MODEL 1
REMARK VINA RESULT:      -7.1      0.000      0.000
REMARK  Name = 
REMARK  4 active torsions:
REMARK  status: ('A' for Active; 'I' for Inactive)
REMARK    1  A    between atoms: C_1  and  O_2
REMARK    2  A    between atoms: O_2  and  C_3
REMARK    3  A    between atoms: C_3  and  C_5
REMARK    4  A    between atoms: C_10  and  C_11
REMARK                            x       y       z     vdW  Elec       q    Type
REMARK                         _______ _______ _______ _____ _____    ______ ____
ROOT
ATOM      1  C   UNL     1      -1.157  12.794  20.039  0.00  0.00    +0.000 C 
ATOM      2  C   UNL     1      -0.671  14.233  19.906  0.00  0.00    +0.000 C 
ATOM      3  N   UNL     1      -0.430  14.667  21.299  0.00  0.00    +0.000 NA
ATOM      4  N   UNL     1      -0.268  13.678  22.069  0.00  0.00    +0.000 NA
ATOM      5  C   UNL     1      -0.387  12.423  21.318  0.00  0.00    +0.000 C 
ATOM      6  C   UNL     1       0.996  11.975  20.815  0.00  0.00    +0.000 C 
ATOM      7  C   UNL     1       0.717  10.549  20.670  0.00  0.00    +0.000 A 
ATOM      8  C   UNL     1      -0.031  10.021  21.738  0.00  0.00    +0.000 A 
ATOM      9  C   UNL     1       0.240   8.716  22.171  0.00  0.00    +0.000 A 
ATOM     10  C   UNL     1       1.132   8.015  21.308  0.00  0.00    +0.000 A 
ATOM     11  C   UNL     1       1.240   8.589  20.030  0.00  0.00    +0.000 A 
ATOM     12  C   UNL     1       0.437   9.676  19.627  0.00  0.00    +0.000 A 
ATOM     13  C   UNL     1       0.389   9.815  18.156  0.00  0.00    +0.000 C 
ATOM     14  C   UNL     1       1.835   9.426  17.862  0.00  0.00    +0.000 C 
ATOM     15  C   UNL     1       2.150   8.251  18.876  0.00  0.00    +0.000 C 
ATOM     16  C   UNL     1      -0.754  11.177  22.259  0.00  0.00    +0.000 C 
ATOM     17  O   UNL     1      -1.502  11.248  23.233  0.00  0.00    +0.000 OA
ENDROOT
BRANCH   1  23
ATOM     18  C   UNL     1      -3.263  11.914  18.882  0.00  0.00    +0.000 A 
ATOM     19  C   UNL     1      -4.641  11.646  18.924  0.00  0.00    +0.000 A 
ATOM     20  C   UNL     1      -5.407  12.088  20.001  0.00  0.00    +0.000 A 
ATOM     21  C   UNL     1      -4.827  12.841  21.007  0.00  0.00    +0.000 A 
ATOM     22  C   UNL     1      -3.466  13.113  20.986  0.00  0.00    +0.000 A 
ATOM     23  C   UNL     1      -2.656  12.618  19.954  0.00  0.00    +0.000 A 
BRANCH  18  24
ATOM     24  C   UNL     1      -2.525  11.501  17.644  0.00  0.00    +0.000 C 
ATOM     25  O   UNL     1      -1.672  12.187  17.098  0.00  0.00    +0.000 OA
BRANCH  24  27
ATOM     26  C   UNL     1      -2.838  10.044  15.799  0.00  0.00    +0.000 C 
ATOM     27  O   UNL     1      -2.945  10.289  17.208  0.00  0.00    +0.000 OA
ENDBRANCH  24  27
ENDBRANCH  18  24
ENDBRANCH   1  23
TORSDOF 3
ENDMDL
MODEL 2
REMARK VINA RESULT:      -7.1      1.883      5.505
REMARK  Name = 
REMARK  4 active torsions:
REMARK  status: ('A' for Active; 'I' for Inactive)
REMARK    1  A    between atoms: C_1  and  O_2
REMARK    2  A    between atoms: O_2  and  C_3
REMARK    3  A    between atoms: C_3  and  C_5
REMARK    4  A    between atoms: C_10  and  C_11
REMARK                            x       y       z     vdW  Elec       q    Type
REMARK                         _______ _______ _______ _____ _____    ______ ____
ROOT
ATOM      1  C   UNL     1      -0.372  12.258  20.293  0.00  0.00    +0.000 C 
ATOM      2  C   UNL     1       0.438  13.542  20.441  0.00  0.00    +0.000 C 
ATOM      3  N   UNL     1       1.555  13.382  19.486  0.00  0.00    +0.000 NA
ATOM      4  N   UNL     1       1.280  12.532  18.592  0.00  0.00    +0.000 NA
ATOM      5  C   UNL     1      -0.060  11.977  18.812  0.00  0.00    +0.000 C 
ATOM      6  C   UNL     1      -1.107  12.798  18.040  0.00  0.00    +0.000 C 
ATOM      7  C   UNL     1      -2.142  11.774  17.930  0.00  0.00    +0.000 A 
ATOM      8  C   UNL     1      -1.630  10.503  17.613  0.00  0.00    +0.000 A 
ATOM      9  C   UNL     1      -2.377   9.666  16.774  0.00  0.00    +0.000 A 
ATOM     10  C   UNL     1      -3.687  10.162  16.510  0.00  0.00    +0.000 A 
ATOM     11  C   UNL     1      -4.109  11.140  17.428  0.00  0.00    +0.000 A 
ATOM     12  C   UNL     1      -3.344  11.482  18.561  0.00  0.00    +0.000 A 
ATOM     13  C   UNL     1      -4.154  12.164  19.593  0.00  0.00    +0.000 C 
ATOM     14  C   UNL     1      -5.046  12.975  18.656  0.00  0.00    +0.000 C 
ATOM     15  C   UNL     1      -5.346  12.003  17.444  0.00  0.00    +0.000 C 
ATOM     16  C   UNL     1      -0.257  10.549  18.108  0.00  0.00    +0.000 C 
ATOM     17  O   UNL     1       0.625   9.698  18.021  0.00  0.00    +0.000 OA
ENDROOT
BRANCH   1  23
ATOM     18  C   UNL     1      -0.850  11.184  22.566  0.00  0.00    +0.000 A 
ATOM     19  C   UNL     1      -0.677  10.110  23.453  0.00  0.00    +0.000 A 
ATOM     20  C   UNL     1       0.230   9.094  23.155  0.00  0.00    +0.000 A 
ATOM     21  C   UNL     1       1.005   9.166  22.012  0.00  0.00    +0.000 A 
ATOM     22  C   UNL     1       0.847  10.218  21.119  0.00  0.00    +0.000 A 
ATOM     23  C   UNL     1      -0.110  11.215  21.355  0.00  0.00    +0.000 A 
BRANCH  18  24
ATOM     24  C   UNL     1      -1.763  12.291  23.002  0.00  0.00    +0.000 C 
ATOM     25  O   UNL     1      -1.373  13.381  23.394  0.00  0.00    +0.000 OA
BRANCH  24  27
ATOM     26  C   UNL     1      -3.987  12.626  23.753  0.00  0.00    +0.000 C 
ATOM     27  O   UNL     1      -3.060  11.911  22.925  0.00  0.00    +0.000 OA
ENDBRANCH  24  27
ENDBRANCH  18  24
ENDBRANCH   1  23
TORSDOF 3
ENDMDL
MODEL 3
REMARK VINA RESULT:      -7.0      2.955      4.169
REMARK  Name = 
REMARK  4 active torsions:
REMARK  status: ('A' for Active; 'I' for Inactive)
REMARK    1  A    between atoms: C_1  and  O_2
REMARK    2  A    between atoms: O_2  and  C_3
REMARK    3  A    between atoms: C_3  and  C_5
REMARK    4  A    between atoms: C_10  and  C_11
REMARK                            x       y       z     vdW  Elec       q    Type
REMARK                         _______ _______ _______ _____ _____    ______ ____
ROOT
ATOM      1  C   UNL     1      -5.489  13.221  20.074  0.00  0.00    +0.000 C 
ATOM      2  C   UNL     1      -6.209  14.485  19.619  0.00  0.00    +0.000 C 
ATOM      3  N   UNL     1      -6.637  15.134  20.877  0.00  0.00    +0.000 NA
ATOM      4  N   UNL     1      -5.950  14.735  21.859  0.00  0.00    +0.000 NA
ATOM      5  C   UNL     1      -4.960  13.746  21.420  0.00  0.00    +0.000 C 
ATOM      6  C   UNL     1      -3.637  14.444  21.064  0.00  0.00    +0.000 C 
ATOM      7  C   UNL     1      -2.739  13.308  21.250  0.00  0.00    +0.000 A 
ATOM      8  C   UNL     1      -3.039  12.550  22.396  0.00  0.00    +0.000 A 
ATOM      9  C   UNL     1      -1.983  11.987  23.126  0.00  0.00    +0.000 A 
ATOM     10  C   UNL     1      -0.724  12.103  22.469  0.00  0.00    +0.000 A 
ATOM     11  C   UNL     1      -0.834  12.375  21.094  0.00  0.00    +0.000 A 
ATOM     12  C   UNL     1      -2.079  12.399  20.434  0.00  0.00    +0.000 A 
ATOM     13  C   UNL     1      -1.933  12.250  18.970  0.00  0.00    +0.000 C 
ATOM     14  C   UNL     1      -0.652  13.063  18.803  0.00  0.00    +0.000 C 
ATOM     15  C   UNL     1       0.225  12.696  20.069  0.00  0.00    +0.000 C 
ATOM     16  C   UNL     1      -4.459  12.804  22.618  0.00  0.00    +0.000 C 
ATOM     17  O   UNL     1      -5.181  12.413  23.533  0.00  0.00    +0.000 OA
ENDROOT
BRANCH   1  23
ATOM     18  C   UNL     1      -6.134  11.007  18.964  0.00  0.00    +0.000 A 
ATOM     19  C   UNL     1      -6.817   9.781  19.023  0.00  0.00    +0.000 A 
ATOM     20  C   UNL     1      -7.680   9.510  20.083  0.00  0.00    +0.000 A 
ATOM     21  C   UNL     1      -7.915  10.469  21.053  0.00  0.00    +0.000 A 
ATOM     22  C   UNL     1      -7.247  11.686  21.016  0.00  0.00    +0.000 A 
ATOM     23  C   UNL     1      -6.316  11.957  20.002  0.00  0.00    +0.000 A 
BRANCH  18  24
ATOM     24  C   UNL     1      -5.305  11.269  17.742  0.00  0.00    +0.000 C 
ATOM     25  O   UNL     1      -5.531  12.170  16.946  0.00  0.00    +0.000 OA
BRANCH  24  27
ATOM     26  C   UNL     1      -3.568  10.373  16.401  0.00  0.00    +0.000 C 
ATOM     27  O   UNL     1      -4.300  10.368  17.633  0.00  0.00    +0.000 OA
ENDBRANCH  24  27
ENDBRANCH  18  24
ENDBRANCH   1  23
TORSDOF 3
ENDMDL
MODEL 4
REMARK VINA RESULT:      -6.5      1.022      1.181
REMARK  Name = 
REMARK  4 active torsions:
REMARK  status: ('A' for Active; 'I' for Inactive)
REMARK    1  A    between atoms: C_1  and  O_2
REMARK    2  A    between atoms: O_2  and  C_3
REMARK    3  A    between atoms: C_3  and  C_5
REMARK    4  A    between atoms: C_10  and  C_11
REMARK                            x       y       z     vdW  Elec       q    Type
REMARK                         _______ _______ _______ _____ _____    ______ ____
ROOT
ATOM      1  C   UNL     1      -1.040  12.328  18.921  0.00  0.00    +0.000 C 
ATOM      2  C   UNL     1      -0.589  13.670  18.355  0.00  0.00    +0.000 C 
ATOM      3  N   UNL     1      -0.376  14.516  19.549  0.00  0.00    +0.000 NA
ATOM      4  N   UNL     1      -0.199  13.816  20.586  0.00  0.00    +0.000 NA
ATOM      5  C   UNL     1      -0.277  12.389  20.256  0.00  0.00    +0.000 C 
ATOM      6  C   UNL     1       1.122  11.845  19.921  0.00  0.00    +0.000 C 
ATOM      7  C   UNL     1       0.880  10.437  20.219  0.00  0.00    +0.000 A 
ATOM      8  C   UNL     1       0.132  10.241  21.394  0.00  0.00    +0.000 A 
ATOM      9  C   UNL     1       0.430   9.140  22.207  0.00  0.00    +0.000 A 
ATOM     10  C   UNL     1       1.350   8.232  21.605  0.00  0.00    +0.000 A 
ATOM     11  C   UNL     1       1.460   8.390  20.212  0.00  0.00    +0.000 A 
ATOM     12  C   UNL     1       0.635   9.279  19.493  0.00  0.00    +0.000 A 
ATOM     13  C   UNL     1       0.602   8.959  18.049  0.00  0.00    +0.000 C 
ATOM     14  C   UNL     1       2.061   8.538  17.895  0.00  0.00    +0.000 C 
ATOM     15  C   UNL     1       2.393   7.740  19.222  0.00  0.00    +0.000 C 
ATOM     16  C   UNL     1      -0.625  11.481  21.532  0.00  0.00    +0.000 C 
ATOM     17  O   UNL     1      -1.387  11.826  22.434  0.00  0.00    +0.000 OA
ENDROOT
BRANCH   1  23
ATOM     18  C   UNL     1      -3.125  11.195  17.962  0.00  0.00    +0.000 A 
ATOM     19  C   UNL     1      -4.493  10.897  18.068  0.00  0.00    +0.000 A 
ATOM     20  C   UNL     1      -5.265  11.494  19.062  0.00  0.00    +0.000 A 
ATOM     21  C   UNL     1      -4.703  12.428  19.914  0.00  0.00    +0.000 A 
ATOM     22  C   UNL     1      -3.351  12.735  19.829  0.00  0.00    +0.000 A 
ATOM     23  C   UNL     1      -2.533  12.094  18.887  0.00  0.00    +0.000 A 
BRANCH  18  24
ATOM     24  C   UNL     1      -2.383  10.596  16.805  0.00  0.00    +0.000 C 
ATOM     25  O   UNL     1      -1.592   9.669  16.909  0.00  0.00    +0.000 OA
BRANCH  24  27
ATOM     26  C   UNL     1      -3.245  10.424  14.603  0.00  0.00    +0.000 C 
ATOM     27  O   UNL     1      -2.688  11.231  15.649  0.00  0.00    +0.000 OA
ENDBRANCH  24  27
ENDBRANCH  18  24
ENDBRANCH   1  23
TORSDOF 3
ENDMDL
MODEL 5
REMARK VINA RESULT:      -6.4      1.250      1.722
REMARK  Name = 
REMARK  4 active torsions:
REMARK  status: ('A' for Active; 'I' for Inactive)
REMARK    1  A    between atoms: C_1  and  O_2
REMARK    2  A    between atoms: O_2  and  C_3
REMARK    3  A    between atoms: C_3  and  C_5
REMARK    4  A    between atoms: C_10  and  C_11
REMARK                            x       y       z     vdW  Elec       q    Type
REMARK                         _______ _______ _______ _____ _____    ______ ____
ROOT
ATOM      1  C   UNL     1      -1.341  12.298  19.066  0.00  0.00    +0.000 C 
ATOM      2  C   UNL     1      -0.715  13.394  18.210  0.00  0.00    +0.000 C 
ATOM      3  N   UNL     1      -0.668  14.572  19.103  0.00  0.00    +0.000 NA
ATOM      4  N   UNL     1      -0.723  14.232  20.319  0.00  0.00    +0.000 NA
ATOM      5  C   UNL     1      -0.827  12.773  20.436  0.00  0.00    +0.000 C 
ATOM      6  C   UNL     1       0.574  12.150  20.555  0.00  0.00    +0.000 C 
ATOM      7  C   UNL     1       0.198  10.907  21.221  0.00  0.00    +0.000 A 
ATOM      8  C   UNL     1      -0.758  11.091  22.235  0.00  0.00    +0.000 A 
ATOM      9  C   UNL     1      -0.678  10.299  23.389  0.00  0.00    +0.000 A 
ATOM     10  C   UNL     1       0.278   9.248  23.281  0.00  0.00    +0.000 A 
ATOM     11  C   UNL     1       0.645   8.961  21.954  0.00  0.00    +0.000 A 
ATOM     12  C   UNL     1       0.018   9.580  20.854  0.00  0.00    +0.000 A 
ATOM     13  C   UNL     1       0.224   8.823  19.600  0.00  0.00    +0.000 C 
ATOM     14  C   UNL     1       1.659   8.373  19.861  0.00  0.00    +0.000 C 
ATOM     15  C   UNL     1       1.698   8.031  21.406  0.00  0.00    +0.000 C 
ATOM     16  C   UNL     1      -1.452  12.313  21.839  0.00  0.00    +0.000 C 
ATOM     17  O   UNL     1      -2.340  12.924  22.430  0.00  0.00    +0.000 OA
ENDROOT
BRANCH   1  23
ATOM     18  C   UNL     1      -3.274  11.161  17.833  0.00  0.00    +0.000 A 
ATOM     19  C   UNL     1      -4.645  10.867  17.749  0.00  0.00    +0.000 A 
ATOM     20  C   UNL     1      -5.547  11.476  18.619  0.00  0.00    +0.000 A 
ATOM     21  C   UNL     1      -5.106  12.417  19.532  0.00  0.00    +0.000 A 
ATOM     22  C   UNL     1      -3.755  12.720  19.635  0.00  0.00    +0.000 A 
ATOM     23  C   UNL     1      -2.815  12.067  18.824  0.00  0.00    +0.000 A 
BRANCH  18  24
ATOM     24  C   UNL     1      -2.379  10.549  16.798  0.00  0.00    +0.000 C 
ATOM     25  O   UNL     1      -1.535   9.698  17.043  0.00  0.00    +0.000 OA
BRANCH  24  27
ATOM     26  C   UNL     1      -3.022  10.164  14.548  0.00  0.00    +0.000 C 
ATOM     27  O   UNL     1      -2.615  11.079  15.574  0.00  0.00    +0.000 OA
ENDBRANCH  24  27
ENDBRANCH  18  24
ENDBRANCH   1  23
TORSDOF 3
ENDMDL
MODEL 6
REMARK VINA RESULT:      -6.2      2.385      3.666
REMARK  Name = 
REMARK  4 active torsions:
REMARK  status: ('A' for Active; 'I' for Inactive)
REMARK    1  A    between atoms: C_1  and  O_2
REMARK    2  A    between atoms: O_2  and  C_3
REMARK    3  A    between atoms: C_3  and  C_5
REMARK    4  A    between atoms: C_10  and  C_11
REMARK                            x       y       z     vdW  Elec       q    Type
REMARK                         _______ _______ _______ _____ _____    ______ ____
ROOT
ATOM      1  C   UNL     1      -4.601  13.900  21.167  0.00  0.00    +0.000 C 
ATOM      2  C   UNL     1      -4.891  15.379  20.935  0.00  0.00    +0.000 C 
ATOM      3  N   UNL     1      -4.617  16.014  22.242  0.00  0.00    +0.000 NA
ATOM      4  N   UNL     1      -3.861  15.296  22.955  0.00  0.00    +0.000 NA
ATOM      5  C   UNL     1      -3.515  14.059  22.245  0.00  0.00    +0.000 C 
ATOM      6  C   UNL     1      -2.213  14.251  21.450  0.00  0.00    +0.000 C 
ATOM      7  C   UNL     1      -1.807  12.852  21.365  0.00  0.00    +0.000 A 
ATOM      8  C   UNL     1      -1.992  12.150  22.570  0.00  0.00    +0.000 A 
ATOM      9  C   UNL     1      -1.057  11.169  22.929  0.00  0.00    +0.000 A 
ATOM     10  C   UNL     1      -0.127  10.875  21.889  0.00  0.00    +0.000 A 
ATOM     11  C   UNL     1      -0.555  11.302  20.620  0.00  0.00    +0.000 A 
ATOM     12  C   UNL     1      -1.837  11.848  20.407  0.00  0.00    +0.000 A 
ATOM     13  C   UNL     1      -2.231  11.799  18.982  0.00  0.00    +0.000 C 
ATOM     14  C   UNL     1      -0.861  12.094  18.376  0.00  0.00    +0.000 C 
ATOM     15  C   UNL     1       0.162  11.308  19.293  0.00  0.00    +0.000 C 
ATOM     16  C   UNL     1      -3.058  12.887  23.240  0.00  0.00    +0.000 C 
ATOM     17  O   UNL     1      -3.545  12.702  24.354  0.00  0.00    +0.000 OA
ENDROOT
BRANCH   1  23
ATOM     18  C   UNL     1      -6.340  12.180  20.413  0.00  0.00    +0.000 A 
ATOM     19  C   UNL     1      -7.381  11.295  20.735  0.00  0.00    +0.000 A 
ATOM     20  C   UNL     1      -7.915  11.282  22.023  0.00  0.00    +0.000 A 
ATOM     21  C   UNL     1      -7.462  12.179  22.974  0.00  0.00    +0.000 A 
ATOM     22  C   UNL     1      -6.430  13.060  22.677  0.00  0.00    +0.000 A 
ATOM     23  C   UNL     1      -5.823  13.044  21.412  0.00  0.00    +0.000 A 
BRANCH  18  24
ATOM     24  C   UNL     1      -5.889  12.212  18.982  0.00  0.00    +0.000 C 
ATOM     25  O   UNL     1      -5.255  11.312  18.448  0.00  0.00    +0.000 OA
BRANCH  24  27
ATOM     26  C   UNL     1      -6.471  13.313  16.965  0.00  0.00    +0.000 C 
ATOM     27  O   UNL     1      -6.255  13.368  18.381  0.00  0.00    +0.000 OA
ENDBRANCH  24  27
ENDBRANCH  18  24
ENDBRANCH   1  23
TORSDOF 3
ENDMDL
MODEL 7
REMARK VINA RESULT:      -6.2      2.207      3.754
REMARK  Name = 
REMARK  4 active torsions:
REMARK  status: ('A' for Active; 'I' for Inactive)
REMARK    1  A    between atoms: C_1  and  O_2
REMARK    2  A    between atoms: O_2  and  C_3
REMARK    3  A    between atoms: C_3  and  C_5
REMARK    4  A    between atoms: C_10  and  C_11
REMARK                            x       y       z     vdW  Elec       q    Type
REMARK                         _______ _______ _______ _____ _____    ______ ____
ROOT
ATOM      1  C   UNL     1      -2.811  14.111  20.945  0.00  0.00    +0.000 C 
ATOM      2  C   UNL     1      -2.812  15.614  20.688  0.00  0.00    +0.000 C 
ATOM      3  N   UNL     1      -1.473  16.060  21.129  0.00  0.00    +0.000 NA
ATOM      4  N   UNL     1      -0.651  15.102  21.150  0.00  0.00    +0.000 NA
ATOM      5  C   UNL     1      -1.308  13.857  20.737  0.00  0.00    +0.000 C 
ATOM      6  C   UNL     1      -1.161  13.659  19.219  0.00  0.00    +0.000 C 
ATOM      7  C   UNL     1      -1.326  12.209  19.176  0.00  0.00    +0.000 A 
ATOM      8  C   UNL     1      -0.640  11.544  20.208  0.00  0.00    +0.000 A 
ATOM      9  C   UNL     1      -0.059  10.298  19.938  0.00  0.00    +0.000 A 
ATOM     10  C   UNL     1      -0.428   9.773  18.666  0.00  0.00    +0.000 A 
ATOM     11  C   UNL     1      -1.575  10.378  18.123  0.00  0.00    +0.000 A 
ATOM     12  C   UNL     1      -2.338  11.318  18.846  0.00  0.00    +0.000 A 
ATOM     13  C   UNL     1      -3.701  11.470  18.291  0.00  0.00    +0.000 C 
ATOM     14  C   UNL     1      -3.341  11.338  16.814  0.00  0.00    +0.000 C 
ATOM     15  C   UNL     1      -2.222  10.218  16.770  0.00  0.00    +0.000 C 
ATOM     16  C   UNL     1      -0.536  12.552  21.260  0.00  0.00    +0.000 C 
ATOM     17  O   UNL     1       0.030  12.478  22.349  0.00  0.00    +0.000 OA
ENDROOT
BRANCH   1  23
ATOM     18  C   UNL     1      -4.758  13.019  22.197  0.00  0.00    +0.000 A 
ATOM     19  C   UNL     1      -5.289  12.507  23.392  0.00  0.00    +0.000 A 
ATOM     20  C   UNL     1      -4.598  12.670  24.591  0.00  0.00    +0.000 A 
ATOM     21  C   UNL     1      -3.415  13.386  24.622  0.00  0.00    +0.000 A 
ATOM     22  C   UNL     1      -2.870  13.896  23.451  0.00  0.00    +0.000 A 
ATOM     23  C   UNL     1      -3.504  13.683  22.219  0.00  0.00    +0.000 A 
BRANCH  18  24
ATOM     24  C   UNL     1      -5.605  12.897  20.965  0.00  0.00    +0.000 C 
ATOM     25  O   UNL     1      -5.838  13.826  20.205  0.00  0.00    +0.000 OA
BRANCH  24  27
ATOM     26  C   UNL     1      -7.220  11.480  19.962  0.00  0.00    +0.000 C 
ATOM     27  O   UNL     1      -6.089  11.640  20.829  0.00  0.00    +0.000 OA
ENDBRANCH  24  27
ENDBRANCH  18  24
ENDBRANCH   1  23
TORSDOF 3
ENDMDL
MODEL 8
REMARK VINA RESULT:      -6.2      2.557      5.138
REMARK  Name = 
REMARK  4 active torsions:
REMARK  status: ('A' for Active; 'I' for Inactive)
REMARK    1  A    between atoms: C_1  and  O_2
REMARK    2  A    between atoms: O_2  and  C_3
REMARK    3  A    between atoms: C_3  and  C_5
REMARK    4  A    between atoms: C_10  and  C_11
REMARK                            x       y       z     vdW  Elec       q    Type
REMARK                         _______ _______ _______ _____ _____    ______ ____
ROOT
ATOM      1  C   UNL     1      -0.742  12.317  20.721  0.00  0.00    +0.000 C 
ATOM      2  C   UNL     1      -0.881  11.782  22.142  0.00  0.00    +0.000 C 
ATOM      3  N   UNL     1       0.220  10.804  22.274  0.00  0.00    +0.000 NA
ATOM      4  N   UNL     1       1.132  11.019  21.426  0.00  0.00    +0.000 NA
ATOM      5  C   UNL     1       0.784  12.167  20.583  0.00  0.00    +0.000 C 
ATOM      6  C   UNL     1       1.350  13.462  21.190  0.00  0.00    +0.000 C 
ATOM      7  C   UNL     1       1.402  14.264  19.971  0.00  0.00    +0.000 A 
ATOM      8  C   UNL     1       1.877  13.547  18.859  0.00  0.00    +0.000 A 
ATOM      9  C   UNL     1       2.674  14.214  17.918  0.00  0.00    +0.000 A 
ATOM     10  C   UNL     1       2.727  15.622  18.128  0.00  0.00    +0.000 A 
ATOM     11  C   UNL     1       1.691  16.105  18.946  0.00  0.00    +0.000 A 
ATOM     12  C   UNL     1       0.644  15.275  19.395  0.00  0.00    +0.000 A 
ATOM     13  C   UNL     1      -0.532  16.055  19.835  0.00  0.00    +0.000 C 
ATOM     14  C   UNL     1       0.217  17.221  20.475  0.00  0.00    +0.000 C 
ATOM     15  C   UNL     1       1.451  17.480  19.516  0.00  0.00    +0.000 C 
ATOM     16  C   UNL     1       1.562  12.159  19.180  0.00  0.00    +0.000 C 
ATOM     17  O   UNL     1       1.827  11.138  18.547  0.00  0.00    +0.000 OA
ENDROOT
BRANCH   1  23
ATOM     18  C   UNL     1      -3.007  12.164  19.540  0.00  0.00    +0.000 A 
ATOM     19  C   UNL     1      -3.789  11.656  18.490  0.00  0.00    +0.000 A 
ATOM     20  C   UNL     1      -3.270  10.683  17.638  0.00  0.00    +0.000 A 
ATOM     21  C   UNL     1      -2.004  10.169  17.856  0.00  0.00    +0.000 A 
ATOM     22  C   UNL     1      -1.213  10.660  18.886  0.00  0.00    +0.000 A 
ATOM     23  C   UNL     1      -1.680  11.693  19.713  0.00  0.00    +0.000 A 
BRANCH  18  24
ATOM     24  C   UNL     1      -3.667  13.131  20.477  0.00  0.00    +0.000 C 
ATOM     25  O   UNL     1      -3.440  14.333  20.488  0.00  0.00    +0.000 OA
BRANCH  24  27
ATOM     26  C   UNL     1      -4.491  12.901  22.689  0.00  0.00    +0.000 C 
ATOM     27  O   UNL     1      -4.519  12.494  21.314  0.00  0.00    +0.000 OA
ENDBRANCH  24  27
ENDBRANCH  18  24
ENDBRANCH   1  23
TORSDOF 3
ENDMDL
MODEL 9
REMARK VINA RESULT:      -6.2      2.567      4.744
REMARK  Name = 
REMARK  4 active torsions:
REMARK  status: ('A' for Active; 'I' for Inactive)
REMARK    1  A    between atoms: C_1  and  O_2
REMARK    2  A    between atoms: O_2  and  C_3
REMARK    3  A    between atoms: C_3  and  C_5
REMARK    4  A    between atoms: C_10  and  C_11
REMARK                            x       y       z     vdW  Elec       q    Type
REMARK                         _______ _______ _______ _____ _____    ______ ____
ROOT
ATOM      1  C   UNL     1      -0.962  12.639  20.302  0.00  0.00    +0.000 C 
ATOM      2  C   UNL     1      -2.306  12.732  19.587  0.00  0.00    +0.000 C 
ATOM      3  N   UNL     1      -3.139  13.561  20.484  0.00  0.00    +0.000 NA
ATOM      4  N   UNL     1      -2.427  14.258  21.261  0.00  0.00    +0.000 NA
ATOM      5  C   UNL     1      -1.004  13.999  21.019  0.00  0.00    +0.000 C 
ATOM      6  C   UNL     1      -0.454  14.994  19.983  0.00  0.00    +0.000 C 
ATOM      7  C   UNL     1       0.956  14.934  20.359  0.00  0.00    +0.000 A 
ATOM      8  C   UNL     1       1.157  14.931  21.750  0.00  0.00    +0.000 A 
ATOM      9  C   UNL     1       2.269  15.606  22.272  0.00  0.00    +0.000 A 
ATOM     10  C   UNL     1       3.177  16.049  21.267  0.00  0.00    +0.000 A 
ATOM     11  C   UNL     1       3.006  15.397  20.034  0.00  0.00    +0.000 A 
ATOM     12  C   UNL     1       2.105  14.325  19.872  0.00  0.00    +0.000 A 
ATOM     13  C   UNL     1       2.410  13.519  18.670  0.00  0.00    +0.000 C 
ATOM     14  C   UNL     1       2.841  14.663  17.756  0.00  0.00    +0.000 C 
ATOM     15  C   UNL     1       3.654  15.645  18.694  0.00  0.00    +0.000 C 
ATOM     16  C   UNL     1      -0.087  14.380  22.279  0.00  0.00    +0.000 C 
ATOM     17  O   UNL     1      -0.429  14.225  23.450  0.00  0.00    +0.000 OA
ENDROOT
BRANCH   1  23
ATOM     18  C   UNL     1      -0.102  10.236  20.484  0.00  0.00    +0.000 A 
ATOM     19  C   UNL     1       0.219   9.126  21.282  0.00  0.00    +0.000 A 
ATOM     20  C   UNL     1      -0.106   9.121  22.637  0.00  0.00    +0.000 A 
ATOM     21  C   UNL     1      -0.796  10.184  23.192  0.00  0.00    +0.000 A 
ATOM     22  C   UNL     1      -1.119  11.293  22.422  0.00  0.00    +0.000 A 
ATOM     23  C   UNL     1      -0.739  11.358  21.073  0.00  0.00    +0.000 A 
BRANCH  18  24
ATOM     24  C   UNL     1       0.183  10.126  19.015  0.00  0.00    +0.000 C 
ATOM     25  O   UNL     1      -0.683  10.016  18.159  0.00  0.00    +0.000 OA
BRANCH  24  27
ATOM     26  C   UNL     1       2.019   9.129  17.894  0.00  0.00    +0.000 C 
ATOM     27  O   UNL     1       1.516  10.142  18.775  0.00  0.00    +0.000 OA
ENDBRANCH  24  27
ENDBRANCH  18  24
ENDBRANCH   1  23
TORSDOF 3
ENDMDL
