MODEL 1
REMARK VINA RESULT:      -8.2      0.000      0.000
REMARK  Name = 
REMARK  4 active torsions:
REMARK  status: ('A' for Active; 'I' for Inactive)
REMARK    1  A    between atoms: C_2  and  C_3
REMARK    2  A    between atoms: C_8  and  N_9
REMARK    3  A    between atoms: N_16  and  C_17
REMARK    4  A    between atoms: C_17  and  C_18
REMARK                            x       y       z     vdW  Elec       q    Type
REMARK                         _______ _______ _______ _____ _____    ______ ____
ROOT
ATOM      1  O   UNL     1       2.804   5.119  20.708  0.00  0.00    +0.000 OA
ATOM      2  C   UNL     1       2.883   5.849  19.720  0.00  0.00    +0.000 C 
ATOM      3  N   UNL     1       3.595   5.494  18.571  0.00  0.00    +0.000 N 
ATOM      4  C   UNL     1       3.852   6.347  17.398  0.00  0.00    +0.000 C 
ATOM      5  C   UNL     1       5.304   6.293  16.905  0.00  0.00    +0.000 C 
ATOM      6  N   UNL     1       5.834   4.928  16.735  0.00  0.00    +0.000 NA
ATOM      7  C   UNL     1       5.641   4.210  18.020  0.00  0.00    +0.000 C 
ATOM      8  C   UNL     1       4.179   4.147  18.496  0.00  0.00    +0.000 C 
ENDROOT
BRANCH   2   9
ATOM      9  C   UNL     1       2.211   7.170  19.799  0.00  0.00    +0.000 A 
ATOM     10  C   UNL     1       2.072   7.935  18.633  0.00  0.00    +0.000 A 
ATOM     11  C   UNL     1       1.410   9.170  18.671  0.00  0.00    +0.000 A 
ATOM     12  C   UNL     1       0.851   9.640  19.865  0.00  0.00    +0.000 A 
ATOM     13 BR   UNL     1      -0.068  11.295  19.826  0.00  0.00    +0.000 Br
ATOM     14  C   UNL     1       1.012   8.877  21.016  0.00  0.00    +0.000 A 
ATOM     15  C   UNL     1       1.739   7.684  21.006  0.00  0.00    +0.000 A 
BRANCH  14  16
ATOM     16  N   UNL     1       0.400   9.233  22.277  0.00  0.00    +0.000 N 
ATOM     17  O   UNL     1       1.125   9.801  23.107  0.00  0.00    +0.000 OA
ATOM     18  O   UNL     1      -0.763   8.869  22.460  0.00  0.00    +0.000 OA
ENDBRANCH  14  16
ENDBRANCH   2   9
BRANCH   6  19
ATOM     19  C   UNL     1       5.171   4.276  15.590  0.00  0.00    +0.000 C 
BRANCH  19  20
ATOM     20  C   UNL     1       5.976   4.281  14.318  0.00  0.00    +0.000 A 
ATOM     21  C   UNL     1       5.570   3.501  13.222  0.00  0.00    +0.000 A 
ATOM     22  C   UNL     1       6.293   3.531  12.030  0.00  0.00    +0.000 A 
ATOM     23  C   UNL     1       7.420   4.342  11.919  0.00  0.00    +0.000 A 
ATOM     24  C   UNL     1       7.832   5.116  13.001  0.00  0.00    +0.000 A 
ATOM     25  C   UNL     1       7.117   5.085  14.198  0.00  0.00    +0.000 A 
ENDBRANCH  19  20
ENDBRANCH   6  19
TORSDOF 4
ENDMDL
MODEL 2
REMARK VINA RESULT:      -8.1      0.467      1.230
REMARK  Name = 
REMARK  4 active torsions:
REMARK  status: ('A' for Active; 'I' for Inactive)
REMARK    1  A    between atoms: C_2  and  C_3
REMARK    2  A    between atoms: C_8  and  N_9
REMARK    3  A    between atoms: N_16  and  C_17
REMARK    4  A    between atoms: C_17  and  C_18
REMARK                            x       y       z     vdW  Elec       q    Type
REMARK                         _______ _______ _______ _____ _____    ______ ____
ROOT
ATOM      1  O   UNL     1       2.831   5.310  20.582  0.00  0.00    +0.000 OA
ATOM      2  C   UNL     1       2.952   5.940  19.530  0.00  0.00    +0.000 C 
ATOM      3  N   UNL     1       3.722   5.482  18.458  0.00  0.00    +0.000 N 
ATOM      4  C   UNL     1       4.028   6.217  17.218  0.00  0.00    +0.000 C 
ATOM      5  C   UNL     1       5.503   6.133  16.802  0.00  0.00    +0.000 C 
ATOM      6  N   UNL     1       6.052   4.766  16.795  0.00  0.00    +0.000 NA
ATOM      7  C   UNL     1       5.802   4.176  18.134  0.00  0.00    +0.000 C 
ATOM      8  C   UNL     1       4.319   4.142  18.545  0.00  0.00    +0.000 C 
ENDROOT
BRANCH   2   9
ATOM      9  C   UNL     1       2.266   7.254  19.445  0.00  0.00    +0.000 A 
ATOM     10  C   UNL     1       2.145   7.879  18.197  0.00  0.00    +0.000 A 
ATOM     11  C   UNL     1       1.470   9.104  18.081  0.00  0.00    +0.000 A 
ATOM     12  C   UNL     1       0.881   9.698  19.202  0.00  0.00    +0.000 A 
ATOM     13 BR   UNL     1      -0.051  11.328  18.957  0.00  0.00    +0.000 Br
ATOM     14  C   UNL     1       1.025   9.073  20.436  0.00  0.00    +0.000 A 
ATOM     15  C   UNL     1       1.764   7.895  20.576  0.00  0.00    +0.000 A 
BRANCH  14  16
ATOM     16  N   UNL     1       0.383   9.562  21.635  0.00  0.00    +0.000 N 
ATOM     17  O   UNL     1      -0.673   9.004  21.969  0.00  0.00    +0.000 OA
ATOM     18  O   UNL     1       0.886  10.546  22.180  0.00  0.00    +0.000 OA
ENDBRANCH  14  16
ENDBRANCH   2   9
BRANCH   6  19
ATOM     19  C   UNL     1       5.450   3.995  15.691  0.00  0.00    +0.000 C 
BRANCH  19  20
ATOM     20  C   UNL     1       6.122   4.187  14.358  0.00  0.00    +0.000 A 
ATOM     21  C   UNL     1       7.234   5.040  14.244  0.00  0.00    +0.000 A 
ATOM     22  C   UNL     1       7.883   5.193  13.020  0.00  0.00    +0.000 A 
ATOM     23  C   UNL     1       7.434   4.493  11.902  0.00  0.00    +0.000 A 
ATOM     24  C   UNL     1       6.331   3.649  12.004  0.00  0.00    +0.000 A 
ATOM     25  C   UNL     1       5.674   3.497  13.224  0.00  0.00    +0.000 A 
ENDBRANCH  19  20
ENDBRANCH   6  19
TORSDOF 4
ENDMDL
MODEL 3
REMARK VINA RESULT:      -7.7      4.433      9.818
REMARK  Name = 
REMARK  4 active torsions:
REMARK  status: ('A' for Active; 'I' for Inactive)
REMARK    1  A    between atoms: C_2  and  C_3
REMARK    2  A    between atoms: C_8  and  N_9
REMARK    3  A    between atoms: N_16  and  C_17
REMARK    4  A    between atoms: C_17  and  C_18
REMARK                            x       y       z     vdW  Elec       q    Type
REMARK                         _______ _______ _______ _____ _____    ______ ____
ROOT
ATOM      1  O   UNL     1       2.288   8.525  17.504  0.00  0.00    +0.000 OA
ATOM      2  C   UNL     1       2.079   8.103  18.641  0.00  0.00    +0.000 C 
ATOM      3  N   UNL     1       1.399   8.843  19.611  0.00  0.00    +0.000 N 
ATOM      4  C   UNL     1       1.212   8.478  21.026  0.00  0.00    +0.000 C 
ATOM      5  C   UNL     1       1.479   9.633  22.000  0.00  0.00    +0.000 C 
ATOM      6  N   UNL     1       0.793  10.889  21.649  0.00  0.00    +0.000 NA
ATOM      7  C   UNL     1       1.161  11.225  20.251  0.00  0.00    +0.000 C 
ATOM      8  C   UNL     1       0.810  10.133  19.224  0.00  0.00    +0.000 C 
ENDROOT
BRANCH   2   9
ATOM      9  C   UNL     1       2.616   6.759  18.973  0.00  0.00    +0.000 A 
ATOM     10  C   UNL     1       1.729   5.751  19.376  0.00  0.00    +0.000 A 
ATOM     11  C   UNL     1       2.204   4.463  19.662  0.00  0.00    +0.000 A 
ATOM     12  C   UNL     1       3.561   4.158  19.516  0.00  0.00    +0.000 A 
ATOM     13 BR   UNL     1       4.118   2.384  19.876  0.00  0.00    +0.000 Br
ATOM     14  C   UNL     1       4.430   5.173  19.132  0.00  0.00    +0.000 A 
ATOM     15  C   UNL     1       3.981   6.480  18.923  0.00  0.00    +0.000 A 
BRANCH  14  16
ATOM     16  N   UNL     1       5.833   4.939  18.872  0.00  0.00    +0.000 N 
ATOM     17  O   UNL     1       6.621   5.193  19.796  0.00  0.00    +0.000 OA
ATOM     18  O   UNL     1       6.143   4.591  17.732  0.00  0.00    +0.000 OA
ENDBRANCH  14  16
ENDBRANCH   2   9
BRANCH   6  19
ATOM     19  C   UNL     1      -0.660  10.736  21.854  0.00  0.00    +0.000 C 
BRANCH  19  20
ATOM     20  C   UNL     1      -1.309  11.878  22.590  0.00  0.00    +0.000 A 
ATOM     21  C   UNL     1      -0.667  13.126  22.664  0.00  0.00    +0.000 A 
ATOM     22  C   UNL     1      -1.280  14.197  23.313  0.00  0.00    +0.000 A 
ATOM     23  C   UNL     1      -2.540  14.034  23.886  0.00  0.00    +0.000 A 
ATOM     24  C   UNL     1      -3.182  12.801  23.821  0.00  0.00    +0.000 A 
ATOM     25  C   UNL     1      -2.570  11.724  23.180  0.00  0.00    +0.000 A 
ENDBRANCH  19  20
ENDBRANCH   6  19
TORSDOF 4
ENDMDL
MODEL 4
REMARK VINA RESULT:      -7.7      4.624      9.403
REMARK  Name = 
REMARK  4 active torsions:
REMARK  status: ('A' for Active; 'I' for Inactive)
REMARK    1  A    between atoms: C_2  and  C_3
REMARK    2  A    between atoms: C_8  and  N_9
REMARK    3  A    between atoms: N_16  and  C_17
REMARK    4  A    between atoms: C_17  and  C_18
REMARK                            x       y       z     vdW  Elec       q    Type
REMARK                         _______ _______ _______ _____ _____    ______ ____
ROOT
ATOM      1  O   UNL     1       2.466   8.506  17.435  0.00  0.00    +0.000 OA
ATOM      2  C   UNL     1       2.186   8.012  18.528  0.00  0.00    +0.000 C 
ATOM      3  N   UNL     1       1.479   8.705  19.514  0.00  0.00    +0.000 N 
ATOM      4  C   UNL     1       1.211   8.248  20.888  0.00  0.00    +0.000 C 
ATOM      5  C   UNL     1       1.461   9.324  21.954  0.00  0.00    +0.000 C 
ATOM      6  N   UNL     1       0.831  10.623  21.660  0.00  0.00    +0.000 NA
ATOM      7  C   UNL     1       1.280  11.043  20.309  0.00  0.00    +0.000 C 
ATOM      8  C   UNL     1       0.950  10.038  19.191  0.00  0.00    +0.000 C 
ENDROOT
BRANCH   2   9
ATOM      9  C   UNL     1       2.666   6.631  18.789  0.00  0.00    +0.000 A 
ATOM     10  C   UNL     1       4.026   6.420  19.048  0.00  0.00    +0.000 A 
ATOM     11  C   UNL     1       4.501   5.131  19.332  0.00  0.00    +0.000 A 
ATOM     12  C   UNL     1       3.619   4.048  19.396  0.00  0.00    +0.000 A 
ATOM     13 BR   UNL     1       4.329   2.347  19.832  0.00  0.00    +0.000 Br
ATOM     14  C   UNL     1       2.274   4.272  19.120  0.00  0.00    +0.000 A 
ATOM     15  C   UNL     1       1.804   5.536  18.756  0.00  0.00    +0.000 A 
BRANCH  14  16
ATOM     16  N   UNL     1       1.272   3.236  19.242  0.00  0.00    +0.000 N 
ATOM     17  O   UNL     1       0.876   2.718  18.188  0.00  0.00    +0.000 OA
ATOM     18  O   UNL     1       0.831   3.012  20.370  0.00  0.00    +0.000 OA
ENDBRANCH  14  16
ENDBRANCH   2   9
BRANCH   6  19
ATOM     19  C   UNL     1      -0.635  10.504  21.783  0.00  0.00    +0.000 C 
BRANCH  19  20
ATOM     20  C   UNL     1      -1.358  11.818  21.910  0.00  0.00    +0.000 A 
ATOM     21  C   UNL     1      -2.088  12.330  20.823  0.00  0.00    +0.000 A 
ATOM     22  C   UNL     1      -2.789  13.528  20.948  0.00  0.00    +0.000 A 
ATOM     23  C   UNL     1      -2.775  14.221  22.157  0.00  0.00    +0.000 A 
ATOM     24  C   UNL     1      -2.053  13.723  23.237  0.00  0.00    +0.000 A 
ATOM     25  C   UNL     1      -1.343  12.529  23.117  0.00  0.00    +0.000 A 
ENDBRANCH  19  20
ENDBRANCH   6  19
TORSDOF 4
ENDMDL
MODEL 5
REMARK VINA RESULT:      -7.7      4.241      9.440
REMARK  Name = 
REMARK  4 active torsions:
REMARK  status: ('A' for Active; 'I' for Inactive)
REMARK    1  A    between atoms: C_2  and  C_3
REMARK    2  A    between atoms: C_8  and  N_9
REMARK    3  A    between atoms: N_16  and  C_17
REMARK    4  A    between atoms: C_17  and  C_18
REMARK                            x       y       z     vdW  Elec       q    Type
REMARK                         _______ _______ _______ _____ _____    ______ ____
ROOT
ATOM      1  O   UNL     1       2.455   8.906  17.262  0.00  0.00    +0.000 OA
ATOM      2  C   UNL     1       2.147   8.264  18.266  0.00  0.00    +0.000 C 
ATOM      3  N   UNL     1       1.467   8.830  19.348  0.00  0.00    +0.000 N 
ATOM      4  C   UNL     1       1.169   8.180  20.636  0.00  0.00    +0.000 C 
ATOM      5  C   UNL     1       1.462   9.067  21.854  0.00  0.00    +0.000 C 
ATOM      6  N   UNL     1       0.895  10.424  21.764  0.00  0.00    +0.000 NA
ATOM      7  C   UNL     1       1.370  11.024  20.493  0.00  0.00    +0.000 C 
ATOM      8  C   UNL     1       1.001  10.219  19.234  0.00  0.00    +0.000 C 
ENDROOT
BRANCH   2   9
ATOM      9  C   UNL     1       2.561   6.839  18.312  0.00  0.00    +0.000 A 
ATOM     10  C   UNL     1       1.601   5.843  18.087  0.00  0.00    +0.000 A 
ATOM     11  C   UNL     1       1.970   4.490  18.089  0.00  0.00    +0.000 A 
ATOM     12  C   UNL     1       3.305   4.119  18.282  0.00  0.00    +0.000 A 
ATOM     13 BR   UNL     1       3.733   2.275  18.225  0.00  0.00    +0.000 Br
ATOM     14  C   UNL     1       4.242   5.118  18.520  0.00  0.00    +0.000 A 
ATOM     15  C   UNL     1       3.872   6.463  18.600  0.00  0.00    +0.000 A 
BRANCH  14  16
ATOM     16  N   UNL     1       5.657   4.845  18.645  0.00  0.00    +0.000 N 
ATOM     17  O   UNL     1       6.152   4.980  19.774  0.00  0.00    +0.000 OA
ATOM     18  O   UNL     1       6.272   4.584  17.611  0.00  0.00    +0.000 OA
ENDBRANCH  14  16
ENDBRANCH   2   9
BRANCH   6  19
ATOM     19  C   UNL     1      -0.576  10.355  21.869  0.00  0.00    +0.000 C 
BRANCH  19  20
ATOM     20  C   UNL     1      -1.260  11.695  21.909  0.00  0.00    +0.000 A 
ATOM     21  C   UNL     1      -2.018  12.134  20.809  0.00  0.00    +0.000 A 
ATOM     22  C   UNL     1      -2.684  13.358  20.856  0.00  0.00    +0.000 A 
ATOM     23  C   UNL     1      -2.606  14.149  22.000  0.00  0.00    +0.000 A 
ATOM     24  C   UNL     1      -1.855  13.724  23.093  0.00  0.00    +0.000 A 
ATOM     25  C   UNL     1      -1.181  12.505  23.049  0.00  0.00    +0.000 A 
ENDBRANCH  19  20
ENDBRANCH   6  19
TORSDOF 4
ENDMDL
MODEL 6
REMARK VINA RESULT:      -7.6      4.249      9.497
REMARK  Name = 
REMARK  4 active torsions:
REMARK  status: ('A' for Active; 'I' for Inactive)
REMARK    1  A    between atoms: C_2  and  C_3
REMARK    2  A    between atoms: C_8  and  N_9
REMARK    3  A    between atoms: N_16  and  C_17
REMARK    4  A    between atoms: C_17  and  C_18
REMARK                            x       y       z     vdW  Elec       q    Type
REMARK                         _______ _______ _______ _____ _____    ______ ____
ROOT
ATOM      1  O   UNL     1       2.395   8.900  17.245  0.00  0.00    +0.000 OA
ATOM      2  C   UNL     1       2.118   8.277  18.270  0.00  0.00    +0.000 C 
ATOM      3  N   UNL     1       1.443   8.853  19.349  0.00  0.00    +0.000 N 
ATOM      4  C   UNL     1       1.182   8.229  20.658  0.00  0.00    +0.000 C 
ATOM      5  C   UNL     1       1.474   9.152  21.849  0.00  0.00    +0.000 C 
ATOM      6  N   UNL     1       0.874  10.493  21.735  0.00  0.00    +0.000 NA
ATOM      7  C   UNL     1       1.314  11.073  20.442  0.00  0.00    +0.000 C 
ATOM      8  C   UNL     1       0.944  10.229  19.210  0.00  0.00    +0.000 C 
ENDROOT
BRANCH   2   9
ATOM      9  C   UNL     1       2.566   6.862  18.344  0.00  0.00    +0.000 A 
ATOM     10  C   UNL     1       1.623   5.840  18.175  0.00  0.00    +0.000 A 
ATOM     11  C   UNL     1       2.023   4.496  18.204  0.00  0.00    +0.000 A 
ATOM     12  C   UNL     1       3.371   4.160  18.368  0.00  0.00    +0.000 A 
ATOM     13 BR   UNL     1       3.839   2.326  18.350  0.00  0.00    +0.000 Br
ATOM     14  C   UNL     1       4.291   5.186  18.551  0.00  0.00    +0.000 A 
ATOM     15  C   UNL     1       3.893   6.525  18.604  0.00  0.00    +0.000 A 
BRANCH  14  16
ATOM     16  N   UNL     1       5.715   4.948  18.642  0.00  0.00    +0.000 N 
ATOM     17  O   UNL     1       6.310   4.718  17.579  0.00  0.00    +0.000 OA
ATOM     18  O   UNL     1       6.205   4.905  19.772  0.00  0.00    +0.000 OA
ENDBRANCH  14  16
ENDBRANCH   2   9
BRANCH   6  19
ATOM     19  C   UNL     1      -0.592  10.393  21.867  0.00  0.00    +0.000 C 
BRANCH  19  20
ATOM     20  C   UNL     1      -1.304  11.719  21.919  0.00  0.00    +0.000 A 
ATOM     21  C   UNL     1      -1.216  12.524  23.068  0.00  0.00    +0.000 A 
ATOM     22  C   UNL     1      -1.843  13.768  23.106  0.00  0.00    +0.000 A 
ATOM     23  C   UNL     1      -2.556  14.223  21.999  0.00  0.00    +0.000 A 
ATOM     24  C   UNL     1      -2.652  13.431  20.858  0.00  0.00    +0.000 A 
ATOM     25  C   UNL     1      -2.033  12.183  20.816  0.00  0.00    +0.000 A 
ENDBRANCH  19  20
ENDBRANCH   6  19
TORSDOF 4
ENDMDL
MODEL 7
REMARK VINA RESULT:      -7.6      4.635      9.460
REMARK  Name = 
REMARK  4 active torsions:
REMARK  status: ('A' for Active; 'I' for Inactive)
REMARK    1  A    between atoms: C_2  and  C_3
REMARK    2  A    between atoms: C_8  and  N_9
REMARK    3  A    between atoms: N_16  and  C_17
REMARK    4  A    between atoms: C_17  and  C_18
REMARK                            x       y       z     vdW  Elec       q    Type
REMARK                         _______ _______ _______ _____ _____    ______ ____
ROOT
ATOM      1  O   UNL     1       2.444   8.589  17.351  0.00  0.00    +0.000 OA
ATOM      2  C   UNL     1       2.166   8.091  18.441  0.00  0.00    +0.000 C 
ATOM      3  N   UNL     1       1.454   8.777  19.429  0.00  0.00    +0.000 N 
ATOM      4  C   UNL     1       1.186   8.314  20.802  0.00  0.00    +0.000 C 
ATOM      5  C   UNL     1       1.429   9.387  21.871  0.00  0.00    +0.000 C 
ATOM      6  N   UNL     1       0.793  10.684  21.581  0.00  0.00    +0.000 NA
ATOM      7  C   UNL     1       1.240  11.110  20.232  0.00  0.00    +0.000 C 
ATOM      8  C   UNL     1       0.918  10.107  19.110  0.00  0.00    +0.000 C 
ENDROOT
BRANCH   2   9
ATOM      9  C   UNL     1       2.653   6.711  18.699  0.00  0.00    +0.000 A 
ATOM     10  C   UNL     1       3.991   6.519  19.068  0.00  0.00    +0.000 A 
ATOM     11  C   UNL     1       4.469   5.231  19.351  0.00  0.00    +0.000 A 
ATOM     12  C   UNL     1       3.609   4.128  19.303  0.00  0.00    +0.000 A 
ATOM     13 BR   UNL     1       4.318   2.429  19.744  0.00  0.00    +0.000 Br
ATOM     14  C   UNL     1       2.289   4.335  18.919  0.00  0.00    +0.000 A 
ATOM     15  C   UNL     1       1.823   5.601  18.556  0.00  0.00    +0.000 A 
BRANCH  14  16
ATOM     16  N   UNL     1       1.304   3.276  18.921  0.00  0.00    +0.000 N 
ATOM     17  O   UNL     1       0.655   3.121  19.966  0.00  0.00    +0.000 OA
ATOM     18  O   UNL     1       1.248   2.559  17.920  0.00  0.00    +0.000 OA
ENDBRANCH  14  16
ENDBRANCH   2   9
BRANCH   6  19
ATOM     19  C   UNL     1      -0.673  10.556  21.702  0.00  0.00    +0.000 C 
BRANCH  19  20
ATOM     20  C   UNL     1      -1.399  11.862  21.875  0.00  0.00    +0.000 A 
ATOM     21  C   UNL     1      -1.265  12.593  23.068  0.00  0.00    +0.000 A 
ATOM     22  C   UNL     1      -1.907  13.821  23.219  0.00  0.00    +0.000 A 
ATOM     23  C   UNL     1      -2.681  14.334  22.180  0.00  0.00    +0.000 A 
ATOM     24  C   UNL     1      -2.822  13.617  20.996  0.00  0.00    +0.000 A 
ATOM     25  C   UNL     1      -2.189  12.384  20.842  0.00  0.00    +0.000 A 
ENDBRANCH  19  20
ENDBRANCH   6  19
TORSDOF 4
ENDMDL
MODEL 8
REMARK VINA RESULT:      -7.5      3.694      8.761
REMARK  Name = 
REMARK  4 active torsions:
REMARK  status: ('A' for Active; 'I' for Inactive)
REMARK    1  A    between atoms: C_2  and  C_3
REMARK    2  A    between atoms: C_8  and  N_9
REMARK    3  A    between atoms: N_16  and  C_17
REMARK    4  A    between atoms: C_17  and  C_18
REMARK                            x       y       z     vdW  Elec       q    Type
REMARK                         _______ _______ _______ _____ _____    ______ ____
ROOT
ATOM      1  O   UNL     1       2.204   5.662  20.645  0.00  0.00    +0.000 OA
ATOM      2  C   UNL     1       2.548   6.368  19.696  0.00  0.00    +0.000 C 
ATOM      3  N   UNL     1       2.158   7.704  19.565  0.00  0.00    +0.000 N 
ATOM      4  C   UNL     1       2.412   8.584  18.411  0.00  0.00    +0.000 C 
ATOM      5  C   UNL     1       1.184   9.396  17.976  0.00  0.00    +0.000 C 
ATOM      6  N   UNL     1       0.501  10.095  19.078  0.00  0.00    +0.000 NA
ATOM      7  C   UNL     1       0.178   9.086  20.117  0.00  0.00    +0.000 C 
ATOM      8  C   UNL     1       1.399   8.323  20.661  0.00  0.00    +0.000 C 
ENDROOT
BRANCH   2   9
ATOM      9  C   UNL     1       3.385   5.732  18.647  0.00  0.00    +0.000 A 
ATOM     10  C   UNL     1       2.813   4.763  17.814  0.00  0.00    +0.000 A 
ATOM     11  C   UNL     1       3.569   4.171  16.792  0.00  0.00    +0.000 A 
ATOM     12  C   UNL     1       4.893   4.564  16.571  0.00  0.00    +0.000 A 
ATOM     13 BR   UNL     1       5.835   3.753  15.143  0.00  0.00    +0.000 Br
ATOM     14  C   UNL     1       5.452   5.515  17.418  0.00  0.00    +0.000 A 
ATOM     15  C   UNL     1       4.732   6.052  18.489  0.00  0.00    +0.000 A 
BRANCH  14  16
ATOM     16  N   UNL     1       6.781   6.049  17.219  0.00  0.00    +0.000 N 
ATOM     17  O   UNL     1       6.867   7.101  16.569  0.00  0.00    +0.000 OA
ATOM     18  O   UNL     1       7.725   5.374  17.634  0.00  0.00    +0.000 OA
ENDBRANCH  14  16
ENDBRANCH   2   9
BRANCH   6  19
ATOM     19  C   UNL     1       1.350  11.197  19.570  0.00  0.00    +0.000 C 
BRANCH  19  20
ATOM     20  C   UNL     1       0.638  12.515  19.717  0.00  0.00    +0.000 A 
ATOM     21  C   UNL     1       0.403  13.320  18.589  0.00  0.00    +0.000 A 
ATOM     22  C   UNL     1      -0.289  14.524  18.715  0.00  0.00    +0.000 A 
ATOM     23  C   UNL     1      -0.758  14.930  19.962  0.00  0.00    +0.000 A 
ATOM     24  C   UNL     1      -0.527  14.141  21.085  0.00  0.00    +0.000 A 
ATOM     25  C   UNL     1       0.171  12.939  20.967  0.00  0.00    +0.000 A 
ENDBRANCH  19  20
ENDBRANCH   6  19
TORSDOF 4
ENDMDL
MODEL 9
REMARK VINA RESULT:      -7.5      3.621      8.511
REMARK  Name = 
REMARK  4 active torsions:
REMARK  status: ('A' for Active; 'I' for Inactive)
REMARK    1  A    between atoms: C_2  and  C_3
REMARK    2  A    between atoms: C_8  and  N_9
REMARK    3  A    between atoms: N_16  and  C_17
REMARK    4  A    between atoms: C_17  and  C_18
REMARK                            x       y       z     vdW  Elec       q    Type
REMARK                         _______ _______ _______ _____ _____    ______ ____
ROOT
ATOM      1  O   UNL     1       2.267   5.339  20.729  0.00  0.00    +0.000 OA
ATOM      2  C   UNL     1       2.640   6.079  19.819  0.00  0.00    +0.000 C 
ATOM      3  N   UNL     1       2.261   7.421  19.731  0.00  0.00    +0.000 N 
ATOM      4  C   UNL     1       2.550   8.346  18.620  0.00  0.00    +0.000 C 
ATOM      5  C   UNL     1       1.339   9.182  18.185  0.00  0.00    +0.000 C 
ATOM      6  N   UNL     1       0.631   9.841  19.297  0.00  0.00    +0.000 NA
ATOM      7  C   UNL     1       0.275   8.794  20.286  0.00  0.00    +0.000 C 
ATOM      8  C   UNL     1       1.477   8.002  20.830  0.00  0.00    +0.000 C 
ENDROOT
BRANCH   2   9
ATOM      9  C   UNL     1       3.501   5.479  18.768  0.00  0.00    +0.000 A 
ATOM     10  C   UNL     1       2.900   4.793  17.705  0.00  0.00    +0.000 A 
ATOM     11  C   UNL     1       3.686   4.247  16.680  0.00  0.00    +0.000 A 
ATOM     12  C   UNL     1       5.075   4.410  16.687  0.00  0.00    +0.000 A 
ATOM     13 BR   UNL     1       6.064   3.684  15.245  0.00  0.00    +0.000 Br
ATOM     14  C   UNL     1       5.657   5.080  17.758  0.00  0.00    +0.000 A 
ATOM     15  C   UNL     1       4.891   5.557  18.825  0.00  0.00    +0.000 A 
BRANCH  14  16
ATOM     16  N   UNL     1       7.072   5.374  17.815  0.00  0.00    +0.000 N 
ATOM     17  O   UNL     1       7.471   6.326  17.128  0.00  0.00    +0.000 OA
ATOM     18  O   UNL     1       7.779   4.606  18.470  0.00  0.00    +0.000 OA
ENDBRANCH  14  16
ENDBRANCH   2   9
BRANCH   6  19
ATOM     19  C   UNL     1       1.473  10.917  19.854  0.00  0.00    +0.000 C 
BRANCH  19  20
ATOM     20  C   UNL     1       1.020  12.309  19.504  0.00  0.00    +0.000 A 
ATOM     21  C   UNL     1       1.834  13.414  19.804  0.00  0.00    +0.000 A 
ATOM     22  C   UNL     1       1.435  14.701  19.448  0.00  0.00    +0.000 A 
ATOM     23  C   UNL     1       0.226  14.896  18.784  0.00  0.00    +0.000 A 
ATOM     24  C   UNL     1      -0.589  13.808  18.485  0.00  0.00    +0.000 A 
ATOM     25  C   UNL     1      -0.199  12.519  18.845  0.00  0.00    +0.000 A 
ENDBRANCH  19  20
ENDBRANCH   6  19
TORSDOF 4
ENDMDL
