MODEL 1
REMARK VINA RESULT:      -6.8      0.000      0.000
REMARK  Name = 
REMARK  6 active torsions:
REMARK  status: ('A' for Active; 'I' for Inactive)
REMARK    1  A    between atoms: C_1  and  C_2
REMARK    2  A    between atoms: C_4  and  O_5
REMARK    3  A    between atoms: C_8  and  O_9
REMARK    4  A    between atoms: O_9  and  C_10
REMARK    5  A    between atoms: C_13  and  C_14
REMARK    6  A    between atoms: C_16  and  O_17
REMARK                            x       y       z     vdW  Elec       q    Type
REMARK                         _______ _______ _______ _____ _____    ______ ____
ROOT
ATOM      1  O   UNL     1       3.753   4.439  17.467  0.00  0.00    +0.000 OA
ENDROOT
BRANCH   1   2
ATOM      2  C   UNL     1       2.982   4.692  18.584  0.00  0.00    +0.000 A 
ATOM      3  C   UNL     1       2.705   3.571  19.403  0.00  0.00    +0.000 A 
ATOM      4 CL   UNL     1       3.310   2.012  18.924  0.00  0.00    +0.000 Cl
ATOM      5  C   UNL     1       1.973   3.705  20.600  0.00  0.00    +0.000 A 
ATOM      6  C   UNL     1       1.688   2.572  21.552  0.00  0.00    +0.000 C 
ATOM      7  C   UNL     1       1.496   4.974  20.956  0.00  0.00    +0.000 A 
ATOM      8  C   UNL     1       1.797   6.088  20.175  0.00  0.00    +0.000 A 
ATOM      9  C   UNL     1       2.576   5.968  19.015  0.00  0.00    +0.000 A 
ATOM     10 CL   UNL     1       3.078   7.432  18.225  0.00  0.00    +0.000 Cl
BRANCH   8  11
ATOM     11  O   UNL     1       1.334   7.318  20.563  0.00  0.00    +0.000 OA
ATOM     12  H   UNL     1       1.147   7.865  19.782  0.00  0.00    +0.000 HD
ENDBRANCH   8  11
ENDBRANCH   1   2
BRANCH   1  19
ATOM     13  C   UNL     1       8.047   5.687  19.605  0.00  0.00    +0.000 C 
ATOM     14  C   UNL     1       7.211   5.452  18.380  0.00  0.00    +0.000 A 
ATOM     15  C   UNL     1       7.793   5.445  17.106  0.00  0.00    +0.000 A 
ATOM     16  C   UNL     1       7.012   5.170  15.983  0.00  0.00    +0.000 A 
ATOM     17  C   UNL     1       5.655   4.858  16.119  0.00  0.00    +0.000 A 
ATOM     18 CL   UNL     1       4.704   4.495  14.715  0.00  0.00    +0.000 Cl
ATOM     19  C   UNL     1       5.073   4.824  17.396  0.00  0.00    +0.000 A 
ATOM     20  C   UNL     1       5.840   5.185  18.513  0.00  0.00    +0.000 A 
BRANCH  16  21
ATOM     21  O   UNL     1       7.588   5.188  14.740  0.00  0.00    +0.000 OA
ATOM     22  H   UNL     1       8.513   4.903  14.807  0.00  0.00    +0.000 HD
ENDBRANCH  16  21
ENDBRANCH   1  19
TORSDOF 4
ENDMDL
MODEL 2
REMARK VINA RESULT:      -6.8      2.229      3.309
REMARK  Name = 
REMARK  6 active torsions:
REMARK  status: ('A' for Active; 'I' for Inactive)
REMARK    1  A    between atoms: C_1  and  C_2
REMARK    2  A    between atoms: C_4  and  O_5
REMARK    3  A    between atoms: C_8  and  O_9
REMARK    4  A    between atoms: O_9  and  C_10
REMARK    5  A    between atoms: C_13  and  C_14
REMARK    6  A    between atoms: C_16  and  O_17
REMARK                            x       y       z     vdW  Elec       q    Type
REMARK                         _______ _______ _______ _____ _____    ______ ____
ROOT
ATOM      1  O   UNL     1       5.322   3.825  16.976  0.00  0.00    +0.000 OA
ENDROOT
BRANCH   1   2
ATOM      2  C   UNL     1       4.088   4.279  17.398  0.00  0.00    +0.000 A 
ATOM      3  C   UNL     1       3.181   3.278  17.821  0.00  0.00    +0.000 A 
ATOM      4 CL   UNL     1       3.671   1.612  17.740  0.00  0.00    +0.000 Cl
ATOM      5  C   UNL     1       1.908   3.614  18.325  0.00  0.00    +0.000 A 
ATOM      6  C   UNL     1       0.911   2.612  18.849  0.00  0.00    +0.000 C 
ATOM      7  C   UNL     1       1.541   4.966  18.375  0.00  0.00    +0.000 A 
ATOM      8  C   UNL     1       2.442   5.958  17.995  0.00  0.00    +0.000 A 
ATOM      9  C   UNL     1       3.733   5.631  17.550  0.00  0.00    +0.000 A 
ATOM     10 CL   UNL     1       4.856   6.933  17.303  0.00  0.00    +0.000 Cl
BRANCH   8  11
ATOM     11  O   UNL     1       2.061   7.272  18.076  0.00  0.00    +0.000 OA
ATOM     12  H   UNL     1       2.750   7.792  18.521  0.00  0.00    +0.000 HD
ENDBRANCH   8  11
ENDBRANCH   1   2
BRANCH   1  19
ATOM     13  C   UNL     1       4.720   3.240  12.091  0.00  0.00    +0.000 C 
ATOM     14  C   UNL     1       5.519   3.728  13.265  0.00  0.00    +0.000 A 
ATOM     15  C   UNL     1       6.653   4.529  13.077  0.00  0.00    +0.000 A 
ATOM     16  C   UNL     1       7.351   5.020  14.181  0.00  0.00    +0.000 A 
ATOM     17  C   UNL     1       6.906   4.755  15.480  0.00  0.00    +0.000 A 
ATOM     18 CL   UNL     1       7.772   5.394  16.840  0.00  0.00    +0.000 Cl
ATOM     19  C   UNL     1       5.747   3.987  15.676  0.00  0.00    +0.000 A 
ATOM     20  C   UNL     1       5.098   3.423  14.569  0.00  0.00    +0.000 A 
BRANCH  16  21
ATOM     21  O   UNL     1       8.471   5.784  13.984  0.00  0.00    +0.000 OA
ATOM     22  H   UNL     1       8.240   6.724  14.052  0.00  0.00    +0.000 HD
ENDBRANCH  16  21
ENDBRANCH   1  19
TORSDOF 4
ENDMDL
MODEL 3
REMARK VINA RESULT:      -6.8      2.929      5.821
REMARK  Name = 
REMARK  6 active torsions:
REMARK  status: ('A' for Active; 'I' for Inactive)
REMARK    1  A    between atoms: C_1  and  C_2
REMARK    2  A    between atoms: C_4  and  O_5
REMARK    3  A    between atoms: C_8  and  O_9
REMARK    4  A    between atoms: O_9  and  C_10
REMARK    5  A    between atoms: C_13  and  C_14
REMARK    6  A    between atoms: C_16  and  O_17
REMARK                            x       y       z     vdW  Elec       q    Type
REMARK                         _______ _______ _______ _____ _____    ______ ____
ROOT
ATOM      1  O   UNL     1       3.068   6.601  19.771  0.00  0.00    +0.000 OA
ENDROOT
BRANCH   1   2
ATOM      2  C   UNL     1       2.888   5.501  18.956  0.00  0.00    +0.000 A 
ATOM      3  C   UNL     1       3.885   5.300  17.972  0.00  0.00    +0.000 A 
ATOM      4 CL   UNL     1       5.192   6.441  17.855  0.00  0.00    +0.000 Cl
ATOM      5  C   UNL     1       3.846   4.185  17.110  0.00  0.00    +0.000 A 
ATOM      6  C   UNL     1       4.899   3.870  16.079  0.00  0.00    +0.000 C 
ATOM      7  C   UNL     1       2.778   3.285  17.227  0.00  0.00    +0.000 A 
ATOM      8  C   UNL     1       1.813   3.456  18.218  0.00  0.00    +0.000 A 
ATOM      9  C   UNL     1       1.882   4.531  19.116  0.00  0.00    +0.000 A 
ATOM     10 CL   UNL     1       0.763   4.546  20.445  0.00  0.00    +0.000 Cl
BRANCH   8  11
ATOM     11  O   UNL     1       0.793   2.545  18.320  0.00  0.00    +0.000 OA
ATOM     12  H   UNL     1       1.020   1.863  18.973  0.00  0.00    +0.000 HD
ENDBRANCH   8  11
ENDBRANCH   1   2
BRANCH   1  19
ATOM     13  C   UNL     1      -0.320   9.005  22.474  0.00  0.00    +0.000 C 
ATOM     14  C   UNL     1       0.409   8.783  21.180  0.00  0.00    +0.000 A 
ATOM     15  C   UNL     1       0.252   9.670  20.108  0.00  0.00    +0.000 A 
ATOM     16  C   UNL     1       0.979   9.480  18.933  0.00  0.00    +0.000 A 
ATOM     17  C   UNL     1       1.901   8.434  18.828  0.00  0.00    +0.000 A 
ATOM     18 CL   UNL     1       2.816   8.227  17.368  0.00  0.00    +0.000 Cl
ATOM     19  C   UNL     1       2.094   7.565  19.913  0.00  0.00    +0.000 A 
ATOM     20  C   UNL     1       1.300   7.705  21.059  0.00  0.00    +0.000 A 
BRANCH  16  21
ATOM     21  O   UNL     1       0.800  10.341  17.882  0.00  0.00    +0.000 OA
ATOM     22  H   UNL     1       1.263  11.175  18.063  0.00  0.00    +0.000 HD
ENDBRANCH  16  21
ENDBRANCH   1  19
TORSDOF 4
ENDMDL
MODEL 4
REMARK VINA RESULT:      -6.7      1.153      2.562
REMARK  Name = 
REMARK  6 active torsions:
REMARK  status: ('A' for Active; 'I' for Inactive)
REMARK    1  A    between atoms: C_1  and  C_2
REMARK    2  A    between atoms: C_4  and  O_5
REMARK    3  A    between atoms: C_8  and  O_9
REMARK    4  A    between atoms: O_9  and  C_10
REMARK    5  A    between atoms: C_13  and  C_14
REMARK    6  A    between atoms: C_16  and  O_17
REMARK                            x       y       z     vdW  Elec       q    Type
REMARK                         _______ _______ _______ _____ _____    ______ ____
ROOT
ATOM      1  O   UNL     1       3.712   4.648  17.325  0.00  0.00    +0.000 OA
ENDROOT
BRANCH   1   2
ATOM      2  C   UNL     1       3.020   4.566  18.517  0.00  0.00    +0.000 A 
ATOM      3  C   UNL     1       2.563   5.797  19.045  0.00  0.00    +0.000 A 
ATOM      4 CL   UNL     1       2.936   7.266  18.192  0.00  0.00    +0.000 Cl
ATOM      5  C   UNL     1       1.798   5.845  20.228  0.00  0.00    +0.000 A 
ATOM      6  C   UNL     1       1.227   7.108  20.821  0.00  0.00    +0.000 C 
ATOM      7  C   UNL     1       1.517   4.644  20.894  0.00  0.00    +0.000 A 
ATOM      8  C   UNL     1       1.931   3.425  20.361  0.00  0.00    +0.000 A 
ATOM      9  C   UNL     1       2.640   3.369  19.151  0.00  0.00    +0.000 A 
ATOM     10 CL   UNL     1       2.928   1.803  18.455  0.00  0.00    +0.000 Cl
BRANCH   8  11
ATOM     11  O   UNL     1       1.621   2.267  21.025  0.00  0.00    +0.000 OA
ATOM     12  H   UNL     1       2.429   1.756  21.199  0.00  0.00    +0.000 HD
ENDBRANCH   8  11
ENDBRANCH   1   2
BRANCH   1  19
ATOM     13  C   UNL     1       8.002   5.712  19.569  0.00  0.00    +0.000 C 
ATOM     14  C   UNL     1       7.191   5.499  18.323  0.00  0.00    +0.000 A 
ATOM     15  C   UNL     1       7.808   5.439  17.068  0.00  0.00    +0.000 A 
ATOM     16  C   UNL     1       7.046   5.185  15.927  0.00  0.00    +0.000 A 
ATOM     17  C   UNL     1       5.672   4.945  16.028  0.00  0.00    +0.000 A 
ATOM     18 CL   UNL     1       4.743   4.607  14.602  0.00  0.00    +0.000 Cl
ATOM     19  C   UNL     1       5.053   4.964  17.288  0.00  0.00    +0.000 A 
ATOM     20  C   UNL     1       5.804   5.305  18.420  0.00  0.00    +0.000 A 
BRANCH  16  21
ATOM     21  O   UNL     1       7.657   5.151  14.701  0.00  0.00    +0.000 OA
ATOM     22  H   UNL     1       7.979   4.253  14.523  0.00  0.00    +0.000 HD
ENDBRANCH  16  21
ENDBRANCH   1  19
TORSDOF 4
ENDMDL
MODEL 5
REMARK VINA RESULT:      -6.5      1.580      2.358
REMARK  Name = 
REMARK  6 active torsions:
REMARK  status: ('A' for Active; 'I' for Inactive)
REMARK    1  A    between atoms: C_1  and  C_2
REMARK    2  A    between atoms: C_4  and  O_5
REMARK    3  A    between atoms: C_8  and  O_9
REMARK    4  A    between atoms: O_9  and  C_10
REMARK    5  A    between atoms: C_13  and  C_14
REMARK    6  A    between atoms: C_16  and  O_17
REMARK                            x       y       z     vdW  Elec       q    Type
REMARK                         _______ _______ _______ _____ _____    ______ ____
ROOT
ATOM      1  O   UNL     1       3.516   3.827  17.039  0.00  0.00    +0.000 OA
ENDROOT
BRANCH   1   2
ATOM      2  C   UNL     1       2.921   4.417  18.137  0.00  0.00    +0.000 A 
ATOM      3  C   UNL     1       2.396   3.525  19.101  0.00  0.00    +0.000 A 
ATOM      4 CL   UNL     1       2.507   1.814  18.810  0.00  0.00    +0.000 Cl
ATOM      5  C   UNL     1       1.810   3.999  20.292  0.00  0.00    +0.000 A 
ATOM      6  C   UNL     1       1.282   3.113  21.391  0.00  0.00    +0.000 C 
ATOM      7  C   UNL     1       1.733   5.384  20.496  0.00  0.00    +0.000 A 
ATOM      8  C   UNL     1       2.282   6.268  19.569  0.00  0.00    +0.000 A 
ATOM      9  C   UNL     1       2.919   5.797  18.411  0.00  0.00    +0.000 A 
ATOM     10 CL   UNL     1       3.758   6.955  17.424  0.00  0.00    +0.000 Cl
BRANCH   8  11
ATOM     11  O   UNL     1       2.209   7.616  19.809  0.00  0.00    +0.000 OA
ATOM     12  H   UNL     1       1.292   7.921  19.716  0.00  0.00    +0.000 HD
ENDBRANCH   8  11
ENDBRANCH   1   2
BRANCH   1  19
ATOM     13  C   UNL     1       6.965   5.056  13.699  0.00  0.00    +0.000 C 
ATOM     14  C   UNL     1       6.568   4.691  15.100  0.00  0.00    +0.000 A 
ATOM     15  C   UNL     1       7.487   4.782  16.152  0.00  0.00    +0.000 A 
ATOM     16  C   UNL     1       7.085   4.492  17.457  0.00  0.00    +0.000 A 
ATOM     17  C   UNL     1       5.757   4.151  17.733  0.00  0.00    +0.000 A 
ATOM     18 CL   UNL     1       5.269   3.818  19.364  0.00  0.00    +0.000 Cl
ATOM     19  C   UNL     1       4.820   4.097  16.689  0.00  0.00    +0.000 A 
ATOM     20  C   UNL     1       5.246   4.303  15.370  0.00  0.00    +0.000 A 
BRANCH  16  21
ATOM     21  O   UNL     1       7.999   4.562  18.475  0.00  0.00    +0.000 OA
ATOM     22  H   UNL     1       7.747   5.269  19.090  0.00  0.00    +0.000 HD
ENDBRANCH  16  21
ENDBRANCH   1  19
TORSDOF 4
ENDMDL
MODEL 6
REMARK VINA RESULT:      -6.5      1.896      3.491
REMARK  Name = 
REMARK  6 active torsions:
REMARK  status: ('A' for Active; 'I' for Inactive)
REMARK    1  A    between atoms: C_1  and  C_2
REMARK    2  A    between atoms: C_4  and  O_5
REMARK    3  A    between atoms: C_8  and  O_9
REMARK    4  A    between atoms: O_9  and  C_10
REMARK    5  A    between atoms: C_13  and  C_14
REMARK    6  A    between atoms: C_16  and  O_17
REMARK                            x       y       z     vdW  Elec       q    Type
REMARK                         _______ _______ _______ _____ _____    ______ ____
ROOT
ATOM      1  O   UNL     1       3.638   5.799  17.168  0.00  0.00    +0.000 OA
ENDROOT
BRANCH   1   2
ATOM      2  C   UNL     1       3.013   5.353  18.316  0.00  0.00    +0.000 A 
ATOM      3  C   UNL     1       2.470   6.361  19.147  0.00  0.00    +0.000 A 
ATOM      4 CL   UNL     1       2.663   8.026  18.683  0.00  0.00    +0.000 Cl
ATOM      5  C   UNL     1       1.762   6.036  20.321  0.00  0.00    +0.000 A 
ATOM      6  C   UNL     1       1.105   7.047  21.225  0.00  0.00    +0.000 C 
ATOM      7  C   UNL     1       1.626   4.685  20.670  0.00  0.00    +0.000 A 
ATOM      8  C   UNL     1       2.126   3.685  19.838  0.00  0.00    +0.000 A 
ATOM      9  C   UNL     1       2.778   4.004  18.637  0.00  0.00    +0.000 A 
ATOM     10 CL   UNL     1       3.177   2.697  17.563  0.00  0.00    +0.000 Cl
BRANCH   8  11
ATOM     11  O   UNL     1       1.957   2.373  20.196  0.00  0.00    +0.000 OA
ATOM     12  H   UNL     1       2.807   1.904  20.152  0.00  0.00    +0.000 HD
ENDBRANCH   8  11
ENDBRANCH   1   2
BRANCH   1  19
ATOM     13  C   UNL     1       6.232   3.765  13.466  0.00  0.00    +0.000 C 
ATOM     14  C   UNL     1       6.098   4.171  14.906  0.00  0.00    +0.000 A 
ATOM     15  C   UNL     1       7.195   4.104  15.774  0.00  0.00    +0.000 A 
ATOM     16  C   UNL     1       7.067   4.538  17.094  0.00  0.00    +0.000 A 
ATOM     17  C   UNL     1       5.862   5.081  17.551  0.00  0.00    +0.000 A 
ATOM     18 CL   UNL     1       5.728   5.638  19.189  0.00  0.00    +0.000 Cl
ATOM     19  C   UNL     1       4.770   5.188  16.676  0.00  0.00    +0.000 A 
ATOM     20  C   UNL     1       4.874   4.672  15.377  0.00  0.00    +0.000 A 
BRANCH  16  21
ATOM     21  O   UNL     1       8.141   4.447  17.940  0.00  0.00    +0.000 OA
ATOM     22  H   UNL     1       7.878   4.731  18.830  0.00  0.00    +0.000 HD
ENDBRANCH  16  21
ENDBRANCH   1  19
TORSDOF 4
ENDMDL
MODEL 7
REMARK VINA RESULT:      -6.4      1.836      3.092
REMARK  Name = 
REMARK  6 active torsions:
REMARK  status: ('A' for Active; 'I' for Inactive)
REMARK    1  A    between atoms: C_1  and  C_2
REMARK    2  A    between atoms: C_4  and  O_5
REMARK    3  A    between atoms: C_8  and  O_9
REMARK    4  A    between atoms: O_9  and  C_10
REMARK    5  A    between atoms: C_13  and  C_14
REMARK    6  A    between atoms: C_16  and  O_17
REMARK                            x       y       z     vdW  Elec       q    Type
REMARK                         _______ _______ _______ _____ _____    ______ ____
ROOT
ATOM      1  O   UNL     1       3.591   6.141  17.352  0.00  0.00    +0.000 OA
ENDROOT
BRANCH   1   2
ATOM      2  C   UNL     1       2.973   6.195  18.586  0.00  0.00    +0.000 A 
ATOM      3  C   UNL     1       2.386   7.439  18.921  0.00  0.00    +0.000 A 
ATOM      4 CL   UNL     1       2.522   8.761  17.800  0.00  0.00    +0.000 Cl
ATOM      5  C   UNL     1       1.680   7.611  20.129  0.00  0.00    +0.000 A 
ATOM      6  C   UNL     1       0.979   8.883  20.530  0.00  0.00    +0.000 C 
ATOM      7  C   UNL     1       1.591   6.527  21.013  0.00  0.00    +0.000 A 
ATOM      8  C   UNL     1       2.134   5.289  20.673  0.00  0.00    +0.000 A 
ATOM      9  C   UNL     1       2.785   5.098  19.445  0.00  0.00    +0.000 A 
ATOM     10 CL   UNL     1       3.240   3.477  19.016  0.00  0.00    +0.000 Cl
BRANCH   8  11
ATOM     11  O   UNL     1       2.010   4.243  21.551  0.00  0.00    +0.000 OA
ATOM     12  H   UNL     1       1.860   3.416  21.064  0.00  0.00    +0.000 HD
ENDBRANCH   8  11
ENDBRANCH   1   2
BRANCH   1  19
ATOM     13  C   UNL     1       7.839   8.651  17.818  0.00  0.00    +0.000 C 
ATOM     14  C   UNL     1       7.081   7.418  17.417  0.00  0.00    +0.000 A 
ATOM     15  C   UNL     1       7.758   6.247  17.054  0.00  0.00    +0.000 A 
ATOM     16  C   UNL     1       7.038   5.094  16.738  0.00  0.00    +0.000 A 
ATOM     17  C   UNL     1       5.642   5.082  16.820  0.00  0.00    +0.000 A 
ATOM     18 CL   UNL     1       4.764   3.634  16.447  0.00  0.00    +0.000 Cl
ATOM     19  C   UNL     1       4.958   6.241  17.221  0.00  0.00    +0.000 A 
ATOM     20  C   UNL     1       5.678   7.421  17.454  0.00  0.00    +0.000 A 
BRANCH  16  21
ATOM     21  O   UNL     1       7.711   3.961  16.363  0.00  0.00    +0.000 OA
ATOM     22  H   UNL     1       7.397   3.669  15.493  0.00  0.00    +0.000 HD
ENDBRANCH  16  21
ENDBRANCH   1  19
TORSDOF 4
ENDMDL
MODEL 8
REMARK VINA RESULT:      -6.3      2.072      5.812
REMARK  Name = 
REMARK  6 active torsions:
REMARK  status: ('A' for Active; 'I' for Inactive)
REMARK    1  A    between atoms: C_1  and  C_2
REMARK    2  A    between atoms: C_4  and  O_5
REMARK    3  A    between atoms: C_8  and  O_9
REMARK    4  A    between atoms: O_9  and  C_10
REMARK    5  A    between atoms: C_13  and  C_14
REMARK    6  A    between atoms: C_16  and  O_17
REMARK                            x       y       z     vdW  Elec       q    Type
REMARK                         _______ _______ _______ _____ _____    ______ ____
ROOT
ATOM      1  O   UNL     1       5.338   3.823  18.912  0.00  0.00    +0.000 OA
ENDROOT
BRANCH   1   2
ATOM      2  C   UNL     1       5.790   4.829  18.081  0.00  0.00    +0.000 A 
ATOM      3  C   UNL     1       6.763   5.691  18.639  0.00  0.00    +0.000 A 
ATOM      4 CL   UNL     1       7.262   5.440  20.286  0.00  0.00    +0.000 Cl
ATOM      5  C   UNL     1       7.345   6.725  17.878  0.00  0.00    +0.000 A 
ATOM      6  C   UNL     1       8.427   7.646  18.382  0.00  0.00    +0.000 C 
ATOM      7  C   UNL     1       6.919   6.904  16.555  0.00  0.00    +0.000 A 
ATOM      8  C   UNL     1       5.989   6.036  15.986  0.00  0.00    +0.000 A 
ATOM      9  C   UNL     1       5.454   4.968  16.722  0.00  0.00    +0.000 A 
ATOM     10 CL   UNL     1       4.469   3.816  15.873  0.00  0.00    +0.000 Cl
BRANCH   8  11
ATOM     11  O   UNL     1       5.610   6.225  14.683  0.00  0.00    +0.000 OA
ATOM     12  H   UNL     1       4.763   6.697  14.647  0.00  0.00    +0.000 HD
ENDBRANCH   8  11
ENDBRANCH   1   2
BRANCH   1  19
ATOM     13  C   UNL     1       1.347   5.953  20.939  0.00  0.00    +0.000 C 
ATOM     14  C   UNL     1       2.038   4.759  20.345  0.00  0.00    +0.000 A 
ATOM     15  C   UNL     1       1.323   3.591  20.050  0.00  0.00    +0.000 A 
ATOM     16  C   UNL     1       1.969   2.511  19.447  0.00  0.00    +0.000 A 
ATOM     17  C   UNL     1       3.319   2.596  19.094  0.00  0.00    +0.000 A 
ATOM     18 CL   UNL     1       4.100   1.253  18.323  0.00  0.00    +0.000 Cl
ATOM     19  C   UNL     1       4.032   3.778  19.350  0.00  0.00    +0.000 A 
ATOM     20  C   UNL     1       3.405   4.828  20.034  0.00  0.00    +0.000 A 
BRANCH  16  21
ATOM     21  O   UNL     1       1.264   1.366  19.184  0.00  0.00    +0.000 OA
ATOM     22  H   UNL     1       1.178   1.251  18.224  0.00  0.00    +0.000 HD
ENDBRANCH  16  21
ENDBRANCH   1  19
TORSDOF 4
ENDMDL
MODEL 9
REMARK VINA RESULT:      -6.2      2.233      3.655
REMARK  Name = 
REMARK  6 active torsions:
REMARK  status: ('A' for Active; 'I' for Inactive)
REMARK    1  A    between atoms: C_1  and  C_2
REMARK    2  A    between atoms: C_4  and  O_5
REMARK    3  A    between atoms: C_8  and  O_9
REMARK    4  A    between atoms: O_9  and  C_10
REMARK    5  A    between atoms: C_13  and  C_14
REMARK    6  A    between atoms: C_16  and  O_17
REMARK                            x       y       z     vdW  Elec       q    Type
REMARK                         _______ _______ _______ _____ _____    ______ ____
ROOT
ATOM      1  O   UNL     1       5.301   3.688  18.888  0.00  0.00    +0.000 OA
ENDROOT
BRANCH   1   2
ATOM      2  C   UNL     1       3.961   3.516  19.174  0.00  0.00    +0.000 A 
ATOM      3  C   UNL     1       3.281   4.670  19.633  0.00  0.00    +0.000 A 
ATOM      4 CL   UNL     1       4.174   6.149  19.826  0.00  0.00    +0.000 Cl
ATOM      5  C   UNL     1       1.899   4.641  19.909  0.00  0.00    +0.000 A 
ATOM      6  C   UNL     1       1.094   5.839  20.344  0.00  0.00    +0.000 C 
ATOM      7  C   UNL     1       1.208   3.432  19.747  0.00  0.00    +0.000 A 
ATOM      8  C   UNL     1       1.862   2.302  19.260  0.00  0.00    +0.000 A 
ATOM      9  C   UNL     1       3.224   2.343  18.926  0.00  0.00    +0.000 A 
ATOM     10 CL   UNL     1       3.903   0.957  18.130  0.00  0.00    +0.000 Cl
BRANCH   8  11
ATOM     11  O   UNL     1       1.153   1.142  19.092  0.00  0.00    +0.000 OA
ATOM     12  H   UNL     1       0.514   1.034  19.816  0.00  0.00    +0.000 HD
ENDBRANCH   8  11
ENDBRANCH   1   2
BRANCH   1  19
ATOM     13  C   UNL     1       5.067   4.078  13.952  0.00  0.00    +0.000 C 
ATOM     14  C   UNL     1       5.666   4.471  15.272  0.00  0.00    +0.000 A 
ATOM     15  C   UNL     1       6.561   5.544  15.361  0.00  0.00    +0.000 A 
ATOM     16  C   UNL     1       7.065   5.930  16.604  0.00  0.00    +0.000 A 
ATOM     17  C   UNL     1       6.651   5.283  17.773  0.00  0.00    +0.000 A 
ATOM     18 CL   UNL     1       7.268   5.793  19.311  0.00  0.00    +0.000 Cl
ATOM     19  C   UNL     1       5.722   4.234  17.695  0.00  0.00    +0.000 A 
ATOM     20  C   UNL     1       5.285   3.790  16.439  0.00  0.00    +0.000 A 
BRANCH  16  21
ATOM     21  O   UNL     1       7.958   6.967  16.676  0.00  0.00    +0.000 OA
ATOM     22  H   UNL     1       7.547   7.775  16.330  0.00  0.00    +0.000 HD
ENDBRANCH  16  21
ENDBRANCH   1  19
TORSDOF 4
ENDMDL
