MODEL 1
REMARK VINA RESULT:      -6.4      0.000      0.000
REMARK  Name = 
REMARK  18 active torsions:
REMARK  status: ('A' for Active; 'I' for Inactive)
REMARK    1  A    between atoms: C_1  and  O_2
REMARK    2  A    between atoms: O_2  and  C_3
REMARK    3  A    between atoms: C_3  and  C_5
REMARK    4  A    between atoms: C_5  and  C_6
REMARK    5  A    between atoms: C_5  and  C_7
REMARK    6  A    between atoms: C_5  and  S_8
REMARK    7  A    between atoms: S_8  and  C_9
REMARK    8  A    between atoms: C_9  and  C_10
REMARK    9  A    between atoms: C_11  and  C_12
REMARK   10  A    between atoms: C_11  and  C_13
REMARK   11  A    between atoms: C_13  and  C_14
REMARK   12  A    between atoms: C_14  and  C_15
REMARK   13  A    between atoms: C_16  and  C_17
REMARK   14  A    between atoms: C_16  and  C_18
REMARK   15  A    between atoms: C_18  and  C_19
REMARK   16  A    between atoms: C_19  and  C_20
REMARK   17  A    between atoms: C_21  and  C_22
REMARK   18  A    between atoms: C_21  and  C_23
REMARK                            x       y       z     vdW  Elec       q    Type
REMARK                         _______ _______ _______ _____ _____    ______ ____
ROOT
ATOM      1  C   UNL     1       4.713   3.509  19.204  0.00  0.00    +0.000 C 
ATOM      2  C   UNL     1       3.971   3.048  18.174  0.00  0.00    +0.000 C 
ATOM      3  C   UNL     1       3.741   3.816  16.894  0.00  0.00    +0.000 C 
ENDROOT
BRANCH   1   4
ATOM      4  C   UNL     1       5.432   4.821  19.229  0.00  0.00    +0.000 C 
BRANCH   4   5
ATOM      5  S   UNL     1       6.808   4.811  18.043  0.00  0.00    +0.000 S 
BRANCH   5   6
ATOM      6  C   UNL     1       6.506   6.417  17.160  0.00  0.00    +0.000 C 
ATOM      7  C   UNL     1       7.689   7.380  17.347  0.00  0.00    +0.000 C 
ATOM      8  C   UNL     1       5.264   7.056  17.798  0.00  0.00    +0.000 C 
BRANCH   6   9
ATOM      9  C   UNL     1       6.298   6.145  15.661  0.00  0.00    +0.000 C 
ATOM     10  O   UNL     1       5.372   6.605  15.001  0.00  0.00    +0.000 OA
BRANCH   9  12
ATOM     11  C   UNL     1       6.829   4.330  14.269  0.00  0.00    +0.000 C 
ATOM     12  O   UNL     1       7.288   5.366  15.138  0.00  0.00    +0.000 OA
ENDBRANCH   9  12
ENDBRANCH   6   9
ENDBRANCH   5   6
ENDBRANCH   4   5
ENDBRANCH   1   4
BRANCH   2  13
ATOM     13  C   UNL     1       3.268   1.702  18.280  0.00  0.00    +0.000 C 
BRANCH  13  14
ATOM     14  C   UNL     1       1.769   1.839  18.581  0.00  0.00    +0.000 C 
BRANCH  14  15
ATOM     15  C   UNL     1       1.362   3.224  18.977  0.00  0.00    +0.000 C 
ATOM     16  C   UNL     1       1.259   3.665  20.249  0.00  0.00    +0.000 C 
ATOM     17  C   UNL     1       1.573   2.790  21.439  0.00  0.00    +0.000 C 
BRANCH  16  18
ATOM     18  C   UNL     1       0.816   5.077  20.613  0.00  0.00    +0.000 C 
BRANCH  18  19
ATOM     19  C   UNL     1       1.959   6.098  20.641  0.00  0.00    +0.000 C 
BRANCH  19  20
ATOM     20  C   UNL     1       2.180   6.880  19.384  0.00  0.00    +0.000 C 
ATOM     21  C   UNL     1       1.793   8.164  19.249  0.00  0.00    +0.000 C 
ATOM     22  C   UNL     1       1.108   8.950  20.338  0.00  0.00    +0.000 C 
ATOM     23  C   UNL     1       2.020   8.925  17.977  0.00  0.00    +0.000 C 
ENDBRANCH  19  20
ENDBRANCH  18  19
ENDBRANCH  16  18
ENDBRANCH  14  15
ENDBRANCH  13  14
ENDBRANCH   2  13
TORSDOF 11
ENDMDL
MODEL 2
REMARK VINA RESULT:      -6.4      4.391      6.508
REMARK  Name = 
REMARK  18 active torsions:
REMARK  status: ('A' for Active; 'I' for Inactive)
REMARK    1  A    between atoms: C_1  and  O_2
REMARK    2  A    between atoms: O_2  and  C_3
REMARK    3  A    between atoms: C_3  and  C_5
REMARK    4  A    between atoms: C_5  and  C_6
REMARK    5  A    between atoms: C_5  and  C_7
REMARK    6  A    between atoms: C_5  and  S_8
REMARK    7  A    between atoms: S_8  and  C_9
REMARK    8  A    between atoms: C_9  and  C_10
REMARK    9  A    between atoms: C_11  and  C_12
REMARK   10  A    between atoms: C_11  and  C_13
REMARK   11  A    between atoms: C_13  and  C_14
REMARK   12  A    between atoms: C_14  and  C_15
REMARK   13  A    between atoms: C_16  and  C_17
REMARK   14  A    between atoms: C_16  and  C_18
REMARK   15  A    between atoms: C_18  and  C_19
REMARK   16  A    between atoms: C_19  and  C_20
REMARK   17  A    between atoms: C_21  and  C_22
REMARK   18  A    between atoms: C_21  and  C_23
REMARK                            x       y       z     vdW  Elec       q    Type
REMARK                         _______ _______ _______ _____ _____    ______ ____
ROOT
ATOM      1  C   UNL     1       8.360   7.999  18.560  0.00  0.00    +0.000 C 
ATOM      2  C   UNL     1       7.580   7.053  17.994  0.00  0.00    +0.000 C 
ATOM      3  C   UNL     1       6.649   7.316  16.834  0.00  0.00    +0.000 C 
ENDROOT
BRANCH   1   4
ATOM      4  C   UNL     1       8.441   9.427  18.119  0.00  0.00    +0.000 C 
BRANCH   4   5
ATOM      5  S   UNL     1       9.342  10.418  19.346  0.00  0.00    +0.000 S 
BRANCH   5   6
ATOM      6  C   UNL     1       9.436  12.049  18.462  0.00  0.00    +0.000 C 
ATOM      7  C   UNL     1       8.257  12.218  17.492  0.00  0.00    +0.000 C 
ATOM      8  C   UNL     1      10.734  12.042  17.641  0.00  0.00    +0.000 C 
BRANCH   6   9
ATOM      9  C   UNL     1       9.422  13.190  19.493  0.00  0.00    +0.000 C 
ATOM     10  O   UNL     1       8.506  13.391  20.283  0.00  0.00    +0.000 OA
BRANCH   9  12
ATOM     11  C   UNL     1      10.861  14.626  20.667  0.00  0.00    +0.000 C 
ATOM     12  O   UNL     1      10.568  13.929  19.456  0.00  0.00    +0.000 OA
ENDBRANCH   9  12
ENDBRANCH   6   9
ENDBRANCH   5   6
ENDBRANCH   4   5
ENDBRANCH   1   4
BRANCH   2  13
ATOM     13  C   UNL     1       7.569   5.637  18.551  0.00  0.00    +0.000 C 
BRANCH  13  14
ATOM     14  C   UNL     1       6.260   5.296  19.278  0.00  0.00    +0.000 C 
BRANCH  14  15
ATOM     15  C   UNL     1       5.391   4.337  18.528  0.00  0.00    +0.000 C 
ATOM     16  C   UNL     1       4.188   4.639  17.994  0.00  0.00    +0.000 C 
ATOM     17  C   UNL     1       3.586   6.022  18.081  0.00  0.00    +0.000 C 
BRANCH  16  18
ATOM     18  C   UNL     1       3.319   3.626  17.258  0.00  0.00    +0.000 C 
BRANCH  18  19
ATOM     19  C   UNL     1       1.968   3.361  17.932  0.00  0.00    +0.000 C 
BRANCH  19  20
ATOM     20  C   UNL     1       2.014   2.674  19.261  0.00  0.00    +0.000 C 
ATOM     21  C   UNL     1       1.622   3.274  20.403  0.00  0.00    +0.000 C 
ATOM     22  C   UNL     1       1.093   4.685  20.469  0.00  0.00    +0.000 C 
ATOM     23  C   UNL     1       1.684   2.568  21.724  0.00  0.00    +0.000 C 
ENDBRANCH  19  20
ENDBRANCH  18  19
ENDBRANCH  16  18
ENDBRANCH  14  15
ENDBRANCH  13  14
ENDBRANCH   2  13
TORSDOF 11
ENDMDL
MODEL 3
REMARK VINA RESULT:      -6.3      4.453      6.607
REMARK  Name = 
REMARK  18 active torsions:
REMARK  status: ('A' for Active; 'I' for Inactive)
REMARK    1  A    between atoms: C_1  and  O_2
REMARK    2  A    between atoms: O_2  and  C_3
REMARK    3  A    between atoms: C_3  and  C_5
REMARK    4  A    between atoms: C_5  and  C_6
REMARK    5  A    between atoms: C_5  and  C_7
REMARK    6  A    between atoms: C_5  and  S_8
REMARK    7  A    between atoms: S_8  and  C_9
REMARK    8  A    between atoms: C_9  and  C_10
REMARK    9  A    between atoms: C_11  and  C_12
REMARK   10  A    between atoms: C_11  and  C_13
REMARK   11  A    between atoms: C_13  and  C_14
REMARK   12  A    between atoms: C_14  and  C_15
REMARK   13  A    between atoms: C_16  and  C_17
REMARK   14  A    between atoms: C_16  and  C_18
REMARK   15  A    between atoms: C_18  and  C_19
REMARK   16  A    between atoms: C_19  and  C_20
REMARK   17  A    between atoms: C_21  and  C_22
REMARK   18  A    between atoms: C_21  and  C_23
REMARK                            x       y       z     vdW  Elec       q    Type
REMARK                         _______ _______ _______ _____ _____    ______ ____
ROOT
ATOM      1  C   UNL     1       7.987   8.430  17.667  0.00  0.00    +0.000 C 
ATOM      2  C   UNL     1       7.672   7.127  17.834  0.00  0.00    +0.000 C 
ATOM      3  C   UNL     1       8.042   6.324  19.058  0.00  0.00    +0.000 C 
ENDROOT
BRANCH   1   4
ATOM      4  C   UNL     1       8.718   9.275  18.663  0.00  0.00    +0.000 C 
BRANCH   4   5
ATOM      5  S   UNL     1       8.952  10.956  18.016  0.00  0.00    +0.000 S 
BRANCH   5   6
ATOM      6  C   UNL     1       9.825  11.752  19.449  0.00  0.00    +0.000 C 
ATOM      7  C   UNL     1      11.347  11.574  19.335  0.00  0.00    +0.000 C 
ATOM      8  C   UNL     1       9.354  11.032  20.720  0.00  0.00    +0.000 C 
BRANCH   6   9
ATOM      9  C   UNL     1       9.484  13.251  19.486  0.00  0.00    +0.000 C 
ATOM     10  O   UNL     1       8.704  13.759  20.285  0.00  0.00    +0.000 OA
BRANCH   9  12
ATOM     11  C   UNL     1      10.451  15.315  18.920  0.00  0.00    +0.000 C 
ATOM     12  O   UNL     1      10.184  13.960  18.555  0.00  0.00    +0.000 OA
ENDBRANCH   9  12
ENDBRANCH   6   9
ENDBRANCH   5   6
ENDBRANCH   4   5
ENDBRANCH   1   4
BRANCH   2  13
ATOM     13  C   UNL     1       6.945   6.369  16.733  0.00  0.00    +0.000 C 
BRANCH  13  14
ATOM     14  C   UNL     1       6.756   4.881  17.063  0.00  0.00    +0.000 C 
BRANCH  14  15
ATOM     15  C   UNL     1       5.366   4.385  16.815  0.00  0.00    +0.000 C 
ATOM     16  C   UNL     1       4.294   4.676  17.581  0.00  0.00    +0.000 C 
ATOM     17  C   UNL     1       4.381   5.576  18.791  0.00  0.00    +0.000 C 
BRANCH  16  18
ATOM     18  C   UNL     1       2.897   4.129  17.311  0.00  0.00    +0.000 C 
BRANCH  18  19
ATOM     19  C   UNL     1       2.665   2.717  17.860  0.00  0.00    +0.000 C 
BRANCH  19  20
ATOM     20  C   UNL     1       2.920   2.525  19.322  0.00  0.00    +0.000 C 
ATOM     21  C   UNL     1       2.093   3.003  20.273  0.00  0.00    +0.000 C 
ATOM     22  C   UNL     1       0.829   3.771  19.973  0.00  0.00    +0.000 C 
ATOM     23  C   UNL     1       2.371   2.804  21.732  0.00  0.00    +0.000 C 
ENDBRANCH  19  20
ENDBRANCH  18  19
ENDBRANCH  16  18
ENDBRANCH  14  15
ENDBRANCH  13  14
ENDBRANCH   2  13
TORSDOF 11
ENDMDL
MODEL 4
REMARK VINA RESULT:      -6.0      2.815      4.587
REMARK  Name = 
REMARK  18 active torsions:
REMARK  status: ('A' for Active; 'I' for Inactive)
REMARK    1  A    between atoms: C_1  and  O_2
REMARK    2  A    between atoms: O_2  and  C_3
REMARK    3  A    between atoms: C_3  and  C_5
REMARK    4  A    between atoms: C_5  and  C_6
REMARK    5  A    between atoms: C_5  and  C_7
REMARK    6  A    between atoms: C_5  and  S_8
REMARK    7  A    between atoms: S_8  and  C_9
REMARK    8  A    between atoms: C_9  and  C_10
REMARK    9  A    between atoms: C_11  and  C_12
REMARK   10  A    between atoms: C_11  and  C_13
REMARK   11  A    between atoms: C_13  and  C_14
REMARK   12  A    between atoms: C_14  and  C_15
REMARK   13  A    between atoms: C_16  and  C_17
REMARK   14  A    between atoms: C_16  and  C_18
REMARK   15  A    between atoms: C_18  and  C_19
REMARK   16  A    between atoms: C_19  and  C_20
REMARK   17  A    between atoms: C_21  and  C_22
REMARK   18  A    between atoms: C_21  and  C_23
REMARK                            x       y       z     vdW  Elec       q    Type
REMARK                         _______ _______ _______ _____ _____    ______ ____
ROOT
ATOM      1  C   UNL     1       2.514   5.122  18.644  0.00  0.00    +0.000 C 
ATOM      2  C   UNL     1       1.703   4.884  19.698  0.00  0.00    +0.000 C 
ATOM      3  C   UNL     1       0.904   3.614  19.873  0.00  0.00    +0.000 C 
ENDROOT
BRANCH   1   4
ATOM      4  C   UNL     1       2.762   4.171  17.516  0.00  0.00    +0.000 C 
BRANCH   4   5
ATOM      5  S   UNL     1       4.388   3.381  17.701  0.00  0.00    +0.000 S 
BRANCH   5   6
ATOM      6  C   UNL     1       5.506   4.805  17.285  0.00  0.00    +0.000 C 
ATOM      7  C   UNL     1       6.116   5.416  18.555  0.00  0.00    +0.000 C 
ATOM      8  C   UNL     1       4.638   5.876  16.608  0.00  0.00    +0.000 C 
BRANCH   6   9
ATOM      9  C   UNL     1       6.631   4.317  16.357  0.00  0.00    +0.000 C 
ATOM     10  O   UNL     1       7.825   4.501  16.570  0.00  0.00    +0.000 OA
BRANCH   9  12
ATOM     11  C   UNL     1       6.560   4.119  14.019  0.00  0.00    +0.000 C 
ATOM     12  O   UNL     1       6.150   3.616  15.291  0.00  0.00    +0.000 OA
ENDBRANCH   9  12
ENDBRANCH   6   9
ENDBRANCH   5   6
ENDBRANCH   4   5
ENDBRANCH   1   4
BRANCH   2  13
ATOM     13  C   UNL     1       1.515   5.945  20.773  0.00  0.00    +0.000 C 
BRANCH  13  14
ATOM     14  C   UNL     1       2.163   7.286  20.400  0.00  0.00    +0.000 C 
BRANCH  14  15
ATOM     15  C   UNL     1       1.172   8.375  20.132  0.00  0.00    +0.000 C 
ATOM     16  C   UNL     1       1.137   9.129  19.012  0.00  0.00    +0.000 C 
ATOM     17  C   UNL     1       2.107   8.932  17.871  0.00  0.00    +0.000 C 
BRANCH  16  18
ATOM     18  C   UNL     1       0.127  10.248  18.786  0.00  0.00    +0.000 C 
BRANCH  18  19
ATOM     19  C   UNL     1      -0.902   9.943  17.692  0.00  0.00    +0.000 C 
BRANCH  19  20
ATOM     20  C   UNL     1      -2.309  10.375  17.967  0.00  0.00    +0.000 C 
ATOM     21  C   UNL     1      -3.161  10.742  16.990  0.00  0.00    +0.000 C 
ATOM     22  C   UNL     1      -2.800  10.754  15.525  0.00  0.00    +0.000 C 
ATOM     23  C   UNL     1      -4.564  11.177  17.290  0.00  0.00    +0.000 C 
ENDBRANCH  19  20
ENDBRANCH  18  19
ENDBRANCH  16  18
ENDBRANCH  14  15
ENDBRANCH  13  14
ENDBRANCH   2  13
TORSDOF 11
ENDMDL
MODEL 5
REMARK VINA RESULT:      -6.0      3.573      5.987
REMARK  Name = 
REMARK  18 active torsions:
REMARK  status: ('A' for Active; 'I' for Inactive)
REMARK    1  A    between atoms: C_1  and  O_2
REMARK    2  A    between atoms: O_2  and  C_3
REMARK    3  A    between atoms: C_3  and  C_5
REMARK    4  A    between atoms: C_5  and  C_6
REMARK    5  A    between atoms: C_5  and  C_7
REMARK    6  A    between atoms: C_5  and  S_8
REMARK    7  A    between atoms: S_8  and  C_9
REMARK    8  A    between atoms: C_9  and  C_10
REMARK    9  A    between atoms: C_11  and  C_12
REMARK   10  A    between atoms: C_11  and  C_13
REMARK   11  A    between atoms: C_13  and  C_14
REMARK   12  A    between atoms: C_14  and  C_15
REMARK   13  A    between atoms: C_16  and  C_17
REMARK   14  A    between atoms: C_16  and  C_18
REMARK   15  A    between atoms: C_18  and  C_19
REMARK   16  A    between atoms: C_19  and  C_20
REMARK   17  A    between atoms: C_21  and  C_22
REMARK   18  A    between atoms: C_21  and  C_23
REMARK                            x       y       z     vdW  Elec       q    Type
REMARK                         _______ _______ _______ _____ _____    ______ ____
ROOT
ATOM      1  C   UNL     1       3.566   5.524  17.576  0.00  0.00    +0.000 C 
ATOM      2  C   UNL     1       4.188   6.703  17.357  0.00  0.00    +0.000 C 
ATOM      3  C   UNL     1       5.681   6.843  17.175  0.00  0.00    +0.000 C 
ENDROOT
BRANCH   1   4
ATOM      4  C   UNL     1       4.243   4.192  17.646  0.00  0.00    +0.000 C 
BRANCH   4   5
ATOM      5  S   UNL     1       4.993   3.949  19.284  0.00  0.00    +0.000 S 
BRANCH   5   6
ATOM      6  C   UNL     1       3.992   2.514  19.906  0.00  0.00    +0.000 C 
ATOM      7  C   UNL     1       4.888   1.475  20.596  0.00  0.00    +0.000 C 
ATOM      8  C   UNL     1       3.346   1.850  18.681  0.00  0.00    +0.000 C 
BRANCH   6   9
ATOM      9  C   UNL     1       2.934   3.022  20.900  0.00  0.00    +0.000 C 
ATOM     10  O   UNL     1       2.704   2.499  21.985  0.00  0.00    +0.000 OA
BRANCH   9  12
ATOM     11  C   UNL     1       0.886   4.057  20.402  0.00  0.00    +0.000 C 
ATOM     12  O   UNL     1       2.310   4.150  20.454  0.00  0.00    +0.000 OA
ENDBRANCH   9  12
ENDBRANCH   6   9
ENDBRANCH   5   6
ENDBRANCH   4   5
ENDBRANCH   1   4
BRANCH   2  13
ATOM     13  C   UNL     1       3.388   7.997  17.331  0.00  0.00    +0.000 C 
BRANCH  13  14
ATOM     14  C   UNL     1       2.133   7.935  18.213  0.00  0.00    +0.000 C 
BRANCH  14  15
ATOM     15  C   UNL     1       1.289   9.169  18.142  0.00  0.00    +0.000 C 
ATOM     16  C   UNL     1       0.652   9.730  19.191  0.00  0.00    +0.000 C 
ATOM     17  C   UNL     1       0.742   9.170  20.590  0.00  0.00    +0.000 C 
BRANCH  16  18
ATOM     18  C   UNL     1      -0.221  10.975  19.073  0.00  0.00    +0.000 C 
BRANCH  18  19
ATOM     19  C   UNL     1      -1.655  10.687  18.614  0.00  0.00    +0.000 C 
BRANCH  19  20
ATOM     20  C   UNL     1      -1.815  10.194  17.210  0.00  0.00    +0.000 C 
ATOM     21  C   UNL     1      -2.883  10.504  16.448  0.00  0.00    +0.000 C 
ATOM     22  C   UNL     1      -4.020  11.376  16.917  0.00  0.00    +0.000 C 
ATOM     23  C   UNL     1      -3.025   9.993  15.046  0.00  0.00    +0.000 C 
ENDBRANCH  19  20
ENDBRANCH  18  19
ENDBRANCH  16  18
ENDBRANCH  14  15
ENDBRANCH  13  14
ENDBRANCH   2  13
TORSDOF 11
ENDMDL
MODEL 6
REMARK VINA RESULT:      -6.0      4.245      6.376
REMARK  Name = 
REMARK  18 active torsions:
REMARK  status: ('A' for Active; 'I' for Inactive)
REMARK    1  A    between atoms: C_1  and  O_2
REMARK    2  A    between atoms: O_2  and  C_3
REMARK    3  A    between atoms: C_3  and  C_5
REMARK    4  A    between atoms: C_5  and  C_6
REMARK    5  A    between atoms: C_5  and  C_7
REMARK    6  A    between atoms: C_5  and  S_8
REMARK    7  A    between atoms: S_8  and  C_9
REMARK    8  A    between atoms: C_9  and  C_10
REMARK    9  A    between atoms: C_11  and  C_12
REMARK   10  A    between atoms: C_11  and  C_13
REMARK   11  A    between atoms: C_13  and  C_14
REMARK   12  A    between atoms: C_14  and  C_15
REMARK   13  A    between atoms: C_16  and  C_17
REMARK   14  A    between atoms: C_16  and  C_18
REMARK   15  A    between atoms: C_18  and  C_19
REMARK   16  A    between atoms: C_19  and  C_20
REMARK   17  A    between atoms: C_21  and  C_22
REMARK   18  A    between atoms: C_21  and  C_23
REMARK                            x       y       z     vdW  Elec       q    Type
REMARK                         _______ _______ _______ _____ _____    ______ ____
ROOT
ATOM      1  C   UNL     1       7.674   8.232  17.525  0.00  0.00    +0.000 C 
ATOM      2  C   UNL     1       7.345   6.942  17.753  0.00  0.00    +0.000 C 
ATOM      3  C   UNL     1       7.845   6.145  18.934  0.00  0.00    +0.000 C 
ENDROOT
BRANCH   1   4
ATOM      4  C   UNL     1       8.553   9.066  18.404  0.00  0.00    +0.000 C 
BRANCH   4   5
ATOM      5  S   UNL     1       8.524  10.801  17.864  0.00  0.00    +0.000 S 
BRANCH   5   6
ATOM      6  C   UNL     1       9.624  11.573  19.145  0.00  0.00    +0.000 C 
ATOM      7  C   UNL     1      11.105  11.377  18.791  0.00  0.00    +0.000 C 
ATOM      8  C   UNL     1       9.350  10.848  20.471  0.00  0.00    +0.000 C 
BRANCH   6   9
ATOM      9  C   UNL     1       9.314  13.076  19.245  0.00  0.00    +0.000 C 
ATOM     10  O   UNL     1       8.735  13.597  20.193  0.00  0.00    +0.000 OA
BRANCH   9  12
ATOM     11  C   UNL     1      10.245  15.094  18.486  0.00  0.00    +0.000 C 
ATOM     12  O   UNL     1       9.799  13.772  18.178  0.00  0.00    +0.000 OA
ENDBRANCH   9  12
ENDBRANCH   6   9
ENDBRANCH   5   6
ENDBRANCH   4   5
ENDBRANCH   1   4
BRANCH   2  13
ATOM     13  C   UNL     1       6.458   6.194  16.769  0.00  0.00    +0.000 C 
BRANCH  13  14
ATOM     14  C   UNL     1       5.017   6.723  16.749  0.00  0.00    +0.000 C 
BRANCH  14  15
ATOM     15  C   UNL     1       4.257   6.440  18.007  0.00  0.00    +0.000 C 
ATOM     16  C   UNL     1       3.128   7.075  18.386  0.00  0.00    +0.000 C 
ATOM     17  C   UNL     1       2.482   8.153  17.549  0.00  0.00    +0.000 C 
BRANCH  16  18
ATOM     18  C   UNL     1       2.396   6.776  19.690  0.00  0.00    +0.000 C 
BRANCH  18  19
ATOM     19  C   UNL     1       2.450   5.302  20.108  0.00  0.00    +0.000 C 
BRANCH  19  20
ATOM     20  C   UNL     1       2.044   4.303  19.069  0.00  0.00    +0.000 C 
ATOM     21  C   UNL     1       2.813   3.248  18.735  0.00  0.00    +0.000 C 
ATOM     22  C   UNL     1       4.151   2.955  19.367  0.00  0.00    +0.000 C 
ATOM     23  C   UNL     1       2.388   2.264  17.687  0.00  0.00    +0.000 C 
ENDBRANCH  19  20
ENDBRANCH  18  19
ENDBRANCH  16  18
ENDBRANCH  14  15
ENDBRANCH  13  14
ENDBRANCH   2  13
TORSDOF 11
ENDMDL
MODEL 7
REMARK VINA RESULT:      -6.0      3.881      5.880
REMARK  Name = 
REMARK  18 active torsions:
REMARK  status: ('A' for Active; 'I' for Inactive)
REMARK    1  A    between atoms: C_1  and  O_2
REMARK    2  A    between atoms: O_2  and  C_3
REMARK    3  A    between atoms: C_3  and  C_5
REMARK    4  A    between atoms: C_5  and  C_6
REMARK    5  A    between atoms: C_5  and  C_7
REMARK    6  A    between atoms: C_5  and  S_8
REMARK    7  A    between atoms: S_8  and  C_9
REMARK    8  A    between atoms: C_9  and  C_10
REMARK    9  A    between atoms: C_11  and  C_12
REMARK   10  A    between atoms: C_11  and  C_13
REMARK   11  A    between atoms: C_13  and  C_14
REMARK   12  A    between atoms: C_14  and  C_15
REMARK   13  A    between atoms: C_16  and  C_17
REMARK   14  A    between atoms: C_16  and  C_18
REMARK   15  A    between atoms: C_18  and  C_19
REMARK   16  A    between atoms: C_19  and  C_20
REMARK   17  A    between atoms: C_21  and  C_22
REMARK   18  A    between atoms: C_21  and  C_23
REMARK                            x       y       z     vdW  Elec       q    Type
REMARK                         _______ _______ _______ _____ _____    ______ ____
ROOT
ATOM      1  C   UNL     1       7.689   7.649  17.635  0.00  0.00    +0.000 C 
ATOM      2  C   UNL     1       7.485   6.388  18.074  0.00  0.00    +0.000 C 
ATOM      3  C   UNL     1       8.057   5.845  19.362  0.00  0.00    +0.000 C 
ENDROOT
BRANCH   1   4
ATOM      4  C   UNL     1       8.480   8.696  18.355  0.00  0.00    +0.000 C 
BRANCH   4   5
ATOM      5  S   UNL     1       8.179  10.332  17.623  0.00  0.00    +0.000 S 
BRANCH   5   6
ATOM      6  C   UNL     1       9.395  11.359  18.579  0.00  0.00    +0.000 C 
ATOM      7  C   UNL     1      10.756  11.406  17.868  0.00  0.00    +0.000 C 
ATOM      8  C   UNL     1       9.591  10.676  19.940  0.00  0.00    +0.000 C 
BRANCH   6   9
ATOM      9  C   UNL     1       8.847  12.788  18.734  0.00  0.00    +0.000 C 
ATOM     10  O   UNL     1       9.124  13.532  19.669  0.00  0.00    +0.000 OA
BRANCH   9  12
ATOM     11  C   UNL     1       7.333  14.367  17.883  0.00  0.00    +0.000 C 
ATOM     12  O   UNL     1       8.050  13.148  17.688  0.00  0.00    +0.000 OA
ENDBRANCH   9  12
ENDBRANCH   6   9
ENDBRANCH   5   6
ENDBRANCH   4   5
ENDBRANCH   1   4
BRANCH   2  13
ATOM     13  C   UNL     1       6.679   5.407  17.235  0.00  0.00    +0.000 C 
BRANCH  13  14
ATOM     14  C   UNL     1       5.787   4.493  18.088  0.00  0.00    +0.000 C 
BRANCH  14  15
ATOM     15  C   UNL     1       4.349   4.502  17.673  0.00  0.00    +0.000 C 
ATOM     16  C   UNL     1       3.568   3.406  17.570  0.00  0.00    +0.000 C 
ATOM     17  C   UNL     1       4.070   2.018  17.893  0.00  0.00    +0.000 C 
BRANCH  16  18
ATOM     18  C   UNL     1       2.113   3.453  17.119  0.00  0.00    +0.000 C 
BRANCH  18  19
ATOM     19  C   UNL     1       1.144   3.949  18.198  0.00  0.00    +0.000 C 
BRANCH  19  20
ATOM     20  C   UNL     1       1.036   3.106  19.430  0.00  0.00    +0.000 C 
ATOM     21  C   UNL     1       1.498   3.510  20.630  0.00  0.00    +0.000 C 
ATOM     22  C   UNL     1       2.160   4.844  20.865  0.00  0.00    +0.000 C 
ATOM     23  C   UNL     1       1.385   2.645  21.849  0.00  0.00    +0.000 C 
ENDBRANCH  19  20
ENDBRANCH  18  19
ENDBRANCH  16  18
ENDBRANCH  14  15
ENDBRANCH  13  14
ENDBRANCH   2  13
TORSDOF 11
ENDMDL
MODEL 8
REMARK VINA RESULT:      -6.0      4.612      7.893
REMARK  Name = 
REMARK  18 active torsions:
REMARK  status: ('A' for Active; 'I' for Inactive)
REMARK    1  A    between atoms: C_1  and  O_2
REMARK    2  A    between atoms: O_2  and  C_3
REMARK    3  A    between atoms: C_3  and  C_5
REMARK    4  A    between atoms: C_5  and  C_6
REMARK    5  A    between atoms: C_5  and  C_7
REMARK    6  A    between atoms: C_5  and  S_8
REMARK    7  A    between atoms: S_8  and  C_9
REMARK    8  A    between atoms: C_9  and  C_10
REMARK    9  A    between atoms: C_11  and  C_12
REMARK   10  A    between atoms: C_11  and  C_13
REMARK   11  A    between atoms: C_13  and  C_14
REMARK   12  A    between atoms: C_14  and  C_15
REMARK   13  A    between atoms: C_16  and  C_17
REMARK   14  A    between atoms: C_16  and  C_18
REMARK   15  A    between atoms: C_18  and  C_19
REMARK   16  A    between atoms: C_19  and  C_20
REMARK   17  A    between atoms: C_21  and  C_22
REMARK   18  A    between atoms: C_21  and  C_23
REMARK                            x       y       z     vdW  Elec       q    Type
REMARK                         _______ _______ _______ _____ _____    ______ ____
ROOT
ATOM      1  C   UNL     1       6.762   5.993  16.894  0.00  0.00    +0.000 C 
ATOM      2  C   UNL     1       7.433   6.738  17.800  0.00  0.00    +0.000 C 
ATOM      3  C   UNL     1       7.952   6.199  19.111  0.00  0.00    +0.000 C 
ENDROOT
BRANCH   1   4
ATOM      4  C   UNL     1       6.453   4.536  17.036  0.00  0.00    +0.000 C 
BRANCH   4   5
ATOM      5  S   UNL     1       4.802   4.172  16.369  0.00  0.00    +0.000 S 
BRANCH   5   6
ATOM      6  C   UNL     1       3.838   3.970  17.944  0.00  0.00    +0.000 C 
ATOM      7  C   UNL     1       4.582   3.060  18.933  0.00  0.00    +0.000 C 
ATOM      8  C   UNL     1       2.511   3.291  17.576  0.00  0.00    +0.000 C 
BRANCH   6   9
ATOM      9  C   UNL     1       3.613   5.349  18.585  0.00  0.00    +0.000 C 
ATOM     10  O   UNL     1       4.084   5.690  19.665  0.00  0.00    +0.000 OA
BRANCH   9  12
ATOM     11  C   UNL     1       3.266   7.537  17.807  0.00  0.00    +0.000 C 
ATOM     12  O   UNL     1       2.863   6.167  17.792  0.00  0.00    +0.000 OA
ENDBRANCH   9  12
ENDBRANCH   6   9
ENDBRANCH   5   6
ENDBRANCH   4   5
ENDBRANCH   1   4
BRANCH   2  13
ATOM     13  C   UNL     1       7.664   8.221  17.549  0.00  0.00    +0.000 C 
BRANCH  13  14
ATOM     14  C   UNL     1       8.611   8.855  18.579  0.00  0.00    +0.000 C 
BRANCH  14  15
ATOM     15  C   UNL     1       8.992  10.265  18.254  0.00  0.00    +0.000 C 
ATOM     16  C   UNL     1       9.359  11.195  19.161  0.00  0.00    +0.000 C 
ATOM     17  C   UNL     1       9.449  10.896  20.639  0.00  0.00    +0.000 C 
BRANCH  16  18
ATOM     18  C   UNL     1       9.715  12.631  18.793  0.00  0.00    +0.000 C 
BRANCH  18  19
ATOM     19  C   UNL     1       8.780  13.254  17.751  0.00  0.00    +0.000 C 
BRANCH  19  20
ATOM     20  C   UNL     1       7.935  14.398  18.219  0.00  0.00    +0.000 C 
ATOM     21  C   UNL     1       8.326  15.683  18.110  0.00  0.00    +0.000 C 
ATOM     22  C   UNL     1       9.641  16.109  17.506  0.00  0.00    +0.000 C 
ATOM     23  C   UNL     1       7.466  16.812  18.592  0.00  0.00    +0.000 C 
ENDBRANCH  19  20
ENDBRANCH  18  19
ENDBRANCH  16  18
ENDBRANCH  14  15
ENDBRANCH  13  14
ENDBRANCH   2  13
TORSDOF 11
ENDMDL
MODEL 9
REMARK VINA RESULT:      -5.9      3.022      7.216
REMARK  Name = 
REMARK  18 active torsions:
REMARK  status: ('A' for Active; 'I' for Inactive)
REMARK    1  A    between atoms: C_1  and  O_2
REMARK    2  A    between atoms: O_2  and  C_3
REMARK    3  A    between atoms: C_3  and  C_5
REMARK    4  A    between atoms: C_5  and  C_6
REMARK    5  A    between atoms: C_5  and  C_7
REMARK    6  A    between atoms: C_5  and  S_8
REMARK    7  A    between atoms: S_8  and  C_9
REMARK    8  A    between atoms: C_9  and  C_10
REMARK    9  A    between atoms: C_11  and  C_12
REMARK   10  A    between atoms: C_11  and  C_13
REMARK   11  A    between atoms: C_13  and  C_14
REMARK   12  A    between atoms: C_14  and  C_15
REMARK   13  A    between atoms: C_16  and  C_17
REMARK   14  A    between atoms: C_16  and  C_18
REMARK   15  A    between atoms: C_18  and  C_19
REMARK   16  A    between atoms: C_19  and  C_20
REMARK   17  A    between atoms: C_21  and  C_22
REMARK   18  A    between atoms: C_21  and  C_23
REMARK                            x       y       z     vdW  Elec       q    Type
REMARK                         _______ _______ _______ _____ _____    ______ ____
ROOT
ATOM      1  C   UNL     1       5.890   5.580  18.961  0.00  0.00    +0.000 C 
ATOM      2  C   UNL     1       7.197   5.874  19.136  0.00  0.00    +0.000 C 
ATOM      3  C   UNL     1       8.092   5.164  20.123  0.00  0.00    +0.000 C 
ENDROOT
BRANCH   1   4
ATOM      4  C   UNL     1       5.143   4.507  19.688  0.00  0.00    +0.000 C 
BRANCH   4   5
ATOM      5  S   UNL     1       4.191   3.494  18.517  0.00  0.00    +0.000 S 
BRANCH   5   6
ATOM      6  C   UNL     1       2.466   4.063  18.902  0.00  0.00    +0.000 C 
ATOM      7  C   UNL     1       1.818   4.727  17.677  0.00  0.00    +0.000 C 
ATOM      8  C   UNL     1       2.576   5.117  20.014  0.00  0.00    +0.000 C 
BRANCH   6   9
ATOM      9  C   UNL     1       1.617   2.859  19.343  0.00  0.00    +0.000 C 
ATOM     10  O   UNL     1       0.576   2.515  18.794  0.00  0.00    +0.000 OA
BRANCH   9  12
ATOM     11  C   UNL     1       1.723   2.613  21.676  0.00  0.00    +0.000 C 
ATOM     12  O   UNL     1       2.180   2.190  20.390  0.00  0.00    +0.000 OA
ENDBRANCH   9  12
ENDBRANCH   6   9
ENDBRANCH   5   6
ENDBRANCH   4   5
ENDBRANCH   1   4
BRANCH   2  13
ATOM     13  C   UNL     1       7.837   7.009  18.349  0.00  0.00    +0.000 C 
BRANCH  13  14
ATOM     14  C   UNL     1       7.382   7.043  16.883  0.00  0.00    +0.000 C 
BRANCH  14  15
ATOM     15  C   UNL     1       7.279   5.688  16.256  0.00  0.00    +0.000 C 
ATOM     16  C   UNL     1       6.194   5.218  15.605  0.00  0.00    +0.000 C 
ATOM     17  C   UNL     1       4.942   6.042  15.416  0.00  0.00    +0.000 C 
BRANCH  16  18
ATOM     18  C   UNL     1       6.118   3.821  15.001  0.00  0.00    +0.000 C 
BRANCH  18  19
ATOM     19  C   UNL     1       6.351   3.785  13.487  0.00  0.00    +0.000 C 
BRANCH  19  20
ATOM     20  C   UNL     1       5.130   3.882  12.626  0.00  0.00    +0.000 C 
ATOM     21  C   UNL     1       4.864   3.002  11.640  0.00  0.00    +0.000 C 
ATOM     22  C   UNL     1       5.752   1.831  11.302  0.00  0.00    +0.000 C 
ATOM     23  C   UNL     1       3.638   3.123  10.786  0.00  0.00    +0.000 C 
ENDBRANCH  19  20
ENDBRANCH  18  19
ENDBRANCH  16  18
ENDBRANCH  14  15
ENDBRANCH  13  14
ENDBRANCH   2  13
TORSDOF 11
ENDMDL
