MODEL 1
REMARK VINA RESULT:      -8.1      0.000      0.000
REMARK  Name = 
REMARK  7 active torsions:
REMARK  status: ('A' for Active; 'I' for Inactive)
REMARK    1  A    between atoms: C_2  and  C_3
REMARK    2  A    between atoms: C_8  and  C_9
REMARK    3  A    between atoms: C_9  and  N_10
REMARK    4  A    between atoms: N_10  and  C_11
REMARK    5  A    between atoms: C_14  and  O_15
REMARK    6  A    between atoms: O_15  and  C_16
REMARK    7  A    between atoms: C_22  and  O_23
REMARK                            x       y       z     vdW  Elec       q    Type
REMARK                         _______ _______ _______ _____ _____    ______ ____
ROOT
ATOM      1  C   UNL     1       2.191   7.592  19.702  0.00  0.00    +0.000 A 
ATOM      2  C   UNL     1       2.145   8.057  18.390  0.00  0.00    +0.000 A 
ATOM      3  C   UNL     1       1.381   9.190  18.058  0.00  0.00    +0.000 A 
ATOM      4  C   UNL     1       0.656   9.890  19.033  0.00  0.00    +0.000 A 
ATOM      5  C   UNL     1       0.628   9.375  20.333  0.00  0.00    +0.000 A 
ATOM      6 CL   UNL     1      -0.394   9.967  21.598  0.00  0.00    +0.000 Cl
ATOM      7  C   UNL     1       1.424   8.269  20.659  0.00  0.00    +0.000 A 
ENDROOT
BRANCH   1   8
ATOM      8  N   UNL     1       2.960   6.528  20.149  0.00  0.00    +0.000 N 
ATOM      9  H   UNL     1       2.543   6.059  20.951  0.00  0.00    +0.000 HD
BRANCH   8  10
ATOM     10  C   UNL     1       3.706   5.631  19.282  0.00  0.00    +0.000 C 
BRANCH  10  16
ATOM     11  C   UNL     1       3.109   3.477  17.991  0.00  0.00    +0.000 A 
ATOM     12  C   UNL     1       2.281   2.351  17.830  0.00  0.00    +0.000 A 
ATOM     13  C   UNL     1       1.187   2.145  18.670  0.00  0.00    +0.000 A 
ATOM     14  C   UNL     1       0.908   3.065  19.676  0.00  0.00    +0.000 A 
ATOM     15  C   UNL     1       1.731   4.180  19.851  0.00  0.00    +0.000 A 
ATOM     16  C   UNL     1       2.843   4.406  19.013  0.00  0.00    +0.000 A 
BRANCH  11  18
ATOM     17  N   UNL     1       5.093   3.769  16.345  0.00  0.00    +0.000 NA
ATOM     18  C   UNL     1       4.205   3.640  17.079  0.00  0.00    +0.000 C 
ENDBRANCH  11  18
ENDBRANCH  10  16
ENDBRANCH   8  10
ENDBRANCH   1   8
BRANCH   4  19
ATOM     19  O   UNL     1      -0.027  10.989  18.554  0.00  0.00    +0.000 OA
BRANCH  19  20
ATOM     20  C   UNL     1      -1.395  10.950  18.383  0.00  0.00    +0.000 A 
ATOM     21  C   UNL     1      -2.053  10.020  17.570  0.00  0.00    +0.000 A 
ATOM     22  C   UNL     1      -3.422  10.153  17.322  0.00  0.00    +0.000 A 
ATOM     23  C   UNL     1      -4.146  11.168  17.948  0.00  0.00    +0.000 A 
ATOM     24 CL   UNL     1      -5.816  11.369  17.588  0.00  0.00    +0.000 Cl
ATOM     25  C   UNL     1      -3.527  12.022  18.857  0.00  0.00    +0.000 A 
ATOM     26  C   UNL     1      -2.154  11.903  19.076  0.00  0.00    +0.000 A 
BRANCH  26  27
ATOM     27  O   UNL     1      -1.531  12.736  19.967  0.00  0.00    +0.000 OA
ATOM     28  H   UNL     1      -2.190  13.323  20.371  0.00  0.00    +0.000 HD
ENDBRANCH  26  27
ENDBRANCH  19  20
ENDBRANCH   4  19
TORSDOF 7
ENDMDL
MODEL 2
REMARK VINA RESULT:      -8.0      6.252      8.551
REMARK  Name = 
REMARK  7 active torsions:
REMARK  status: ('A' for Active; 'I' for Inactive)
REMARK    1  A    between atoms: C_2  and  C_3
REMARK    2  A    between atoms: C_8  and  C_9
REMARK    3  A    between atoms: C_9  and  N_10
REMARK    4  A    between atoms: N_10  and  C_11
REMARK    5  A    between atoms: C_14  and  O_15
REMARK    6  A    between atoms: O_15  and  C_16
REMARK    7  A    between atoms: C_22  and  O_23
REMARK                            x       y       z     vdW  Elec       q    Type
REMARK                         _______ _______ _______ _____ _____    ______ ____
ROOT
ATOM      1  C   UNL     1       4.424   6.300  18.656  0.00  0.00    +0.000 A 
ATOM      2  C   UNL     1       4.243   6.938  17.431  0.00  0.00    +0.000 A 
ATOM      3  C   UNL     1       5.171   6.766  16.390  0.00  0.00    +0.000 A 
ATOM      4  C   UNL     1       6.296   5.942  16.546  0.00  0.00    +0.000 A 
ATOM      5  C   UNL     1       6.528   5.371  17.802  0.00  0.00    +0.000 A 
ATOM      6 CL   UNL     1       7.974   4.527  18.241  0.00  0.00    +0.000 Cl
ATOM      7  C   UNL     1       5.575   5.519  18.819  0.00  0.00    +0.000 A 
ENDROOT
BRANCH   1   8
ATOM      8  N   UNL     1       3.541   6.350  19.724  0.00  0.00    +0.000 N 
ATOM      9  H   UNL     1       3.607   7.224  20.241  0.00  0.00    +0.000 HD
BRANCH   8  10
ATOM     10  C   UNL     1       2.199   5.790  19.708  0.00  0.00    +0.000 C 
BRANCH  10  16
ATOM     11  C   UNL     1       2.280   3.211  19.782  0.00  0.00    +0.000 A 
ATOM     12  C   UNL     1       2.309   1.980  19.103  0.00  0.00    +0.000 A 
ATOM     13  C   UNL     1       2.333   1.935  17.709  0.00  0.00    +0.000 A 
ATOM     14  C   UNL     1       2.333   3.122  16.983  0.00  0.00    +0.000 A 
ATOM     15  C   UNL     1       2.292   4.349  17.648  0.00  0.00    +0.000 A 
ATOM     16  C   UNL     1       2.267   4.416  19.057  0.00  0.00    +0.000 A 
BRANCH  11  18
ATOM     17  N   UNL     1       2.276   3.169  22.377  0.00  0.00    +0.000 NA
ATOM     18  C   UNL     1       2.278   3.185  21.217  0.00  0.00    +0.000 C 
ENDBRANCH  11  18
ENDBRANCH  10  16
ENDBRANCH   8  10
ENDBRANCH   1   8
BRANCH   4  19
ATOM     19  O   UNL     1       7.100   5.860  15.429  0.00  0.00    +0.000 OA
BRANCH  19  20
ATOM     20  C   UNL     1       6.756   5.047  14.369  0.00  0.00    +0.000 A 
ATOM     21  C   UNL     1       5.617   4.234  14.349  0.00  0.00    +0.000 A 
ATOM     22  C   UNL     1       5.429   3.320  13.308  0.00  0.00    +0.000 A 
ATOM     23  C   UNL     1       6.338   3.274  12.251  0.00  0.00    +0.000 A 
ATOM     24 CL   UNL     1       6.141   2.102  11.007  0.00  0.00    +0.000 Cl
ATOM     25  C   UNL     1       7.408   4.165  12.197  0.00  0.00    +0.000 A 
ATOM     26  C   UNL     1       7.607   5.053  13.255  0.00  0.00    +0.000 A 
BRANCH  26  27
ATOM     27  O   UNL     1       8.654   5.935  13.217  0.00  0.00    +0.000 OA
ATOM     28  H   UNL     1       8.319   6.835  13.360  0.00  0.00    +0.000 HD
ENDBRANCH  26  27
ENDBRANCH  19  20
ENDBRANCH   4  19
TORSDOF 7
ENDMDL
MODEL 3
REMARK VINA RESULT:      -7.8      6.604      9.723
REMARK  Name = 
REMARK  7 active torsions:
REMARK  status: ('A' for Active; 'I' for Inactive)
REMARK    1  A    between atoms: C_2  and  C_3
REMARK    2  A    between atoms: C_8  and  C_9
REMARK    3  A    between atoms: C_9  and  N_10
REMARK    4  A    between atoms: N_10  and  C_11
REMARK    5  A    between atoms: C_14  and  O_15
REMARK    6  A    between atoms: O_15  and  C_16
REMARK    7  A    between atoms: C_22  and  O_23
REMARK                            x       y       z     vdW  Elec       q    Type
REMARK                         _______ _______ _______ _____ _____    ______ ____
ROOT
ATOM      1  C   UNL     1       7.914   7.798  18.058  0.00  0.00    +0.000 A 
ATOM      2  C   UNL     1       8.031   6.684  18.885  0.00  0.00    +0.000 A 
ATOM      3  C   UNL     1       7.263   5.531  18.648  0.00  0.00    +0.000 A 
ATOM      4  C   UNL     1       6.369   5.462  17.569  0.00  0.00    +0.000 A 
ATOM      5  C   UNL     1       6.183   6.608  16.790  0.00  0.00    +0.000 A 
ATOM      6 CL   UNL     1       4.961   6.779  15.576  0.00  0.00    +0.000 Cl
ATOM      7  C   UNL     1       6.983   7.737  17.013  0.00  0.00    +0.000 A 
ENDROOT
BRANCH   1   8
ATOM      8  N   UNL     1       8.667   8.958  18.162  0.00  0.00    +0.000 N 
ATOM      9  H   UNL     1       8.472   9.615  17.411  0.00  0.00    +0.000 HD
BRANCH   8  10
ATOM     10  C   UNL     1       9.009   9.605  19.418  0.00  0.00    +0.000 C 
BRANCH  10  16
ATOM     11  C   UNL     1       9.684  12.026  20.011  0.00  0.00    +0.000 A 
ATOM     12  C   UNL     1      10.312  13.231  19.650  0.00  0.00    +0.000 A 
ATOM     13  C   UNL     1      10.884  13.386  18.387  0.00  0.00    +0.000 A 
ATOM     14  C   UNL     1      10.829  12.339  17.473  0.00  0.00    +0.000 A 
ATOM     15  C   UNL     1      10.219  11.133  17.827  0.00  0.00    +0.000 A 
ATOM     16  C   UNL     1       9.635  10.956  19.099  0.00  0.00    +0.000 A 
BRANCH  11  18
ATOM     17  N   UNL     1       8.628  11.872  22.376  0.00  0.00    +0.000 NA
ATOM     18  C   UNL     1       9.098  11.940  21.318  0.00  0.00    +0.000 C 
ENDBRANCH  11  18
ENDBRANCH  10  16
ENDBRANCH   8  10
ENDBRANCH   1   8
BRANCH   4  19
ATOM     19  O   UNL     1       5.704   4.259  17.458  0.00  0.00    +0.000 OA
BRANCH  19  20
ATOM     20  C   UNL     1       4.447   4.094  18.003  0.00  0.00    +0.000 A 
ATOM     21  C   UNL     1       3.292   4.699  17.495  0.00  0.00    +0.000 A 
ATOM     22  C   UNL     1       2.089   4.613  18.203  0.00  0.00    +0.000 A 
ATOM     23  C   UNL     1       2.025   3.859  19.374  0.00  0.00    +0.000 A 
ATOM     24 CL   UNL     1       0.561   3.812  20.277  0.00  0.00    +0.000 Cl
ATOM     25  C   UNL     1       3.136   3.150  19.823  0.00  0.00    +0.000 A 
ATOM     26  C   UNL     1       4.341   3.265  19.129  0.00  0.00    +0.000 A 
BRANCH  26  27
ATOM     27  O   UNL     1       5.443   2.575  19.558  0.00  0.00    +0.000 OA
ATOM     28  H   UNL     1       6.237   2.952  19.146  0.00  0.00    +0.000 HD
ENDBRANCH  26  27
ENDBRANCH  19  20
ENDBRANCH   4  19
TORSDOF 7
ENDMDL
MODEL 4
REMARK VINA RESULT:      -7.7      6.159      8.490
REMARK  Name = 
REMARK  7 active torsions:
REMARK  status: ('A' for Active; 'I' for Inactive)
REMARK    1  A    between atoms: C_2  and  C_3
REMARK    2  A    between atoms: C_8  and  C_9
REMARK    3  A    between atoms: C_9  and  N_10
REMARK    4  A    between atoms: N_10  and  C_11
REMARK    5  A    between atoms: C_14  and  O_15
REMARK    6  A    between atoms: O_15  and  C_16
REMARK    7  A    between atoms: C_22  and  O_23
REMARK                            x       y       z     vdW  Elec       q    Type
REMARK                         _______ _______ _______ _____ _____    ______ ____
ROOT
ATOM      1  C   UNL     1       4.420   6.337  18.515  0.00  0.00    +0.000 A 
ATOM      2  C   UNL     1       4.252   6.966  17.284  0.00  0.00    +0.000 A 
ATOM      3  C   UNL     1       5.183   6.776  16.249  0.00  0.00    +0.000 A 
ATOM      4  C   UNL     1       6.297   5.941  16.417  0.00  0.00    +0.000 A 
ATOM      5  C   UNL     1       6.518   5.379  17.678  0.00  0.00    +0.000 A 
ATOM      6 CL   UNL     1       7.953   4.523  18.130  0.00  0.00    +0.000 Cl
ATOM      7  C   UNL     1       5.563   5.545  18.689  0.00  0.00    +0.000 A 
ENDROOT
BRANCH   1   8
ATOM      8  N   UNL     1       3.533   6.404  19.578  0.00  0.00    +0.000 N 
ATOM      9  H   UNL     1       3.674   7.235  20.149  0.00  0.00    +0.000 HD
BRANCH   8  10
ATOM     10  C   UNL     1       2.145   5.975  19.520  0.00  0.00    +0.000 C 
BRANCH  10  16
ATOM     11  C   UNL     1       2.074   3.413  19.212  0.00  0.00    +0.000 A 
ATOM     12  C   UNL     1       2.035   2.126  19.776  0.00  0.00    +0.000 A 
ATOM     13  C   UNL     1       1.980   1.955  21.160  0.00  0.00    +0.000 A 
ATOM     14  C   UNL     1       1.960   3.071  21.990  0.00  0.00    +0.000 A 
ATOM     15  C   UNL     1       2.011   4.354  21.439  0.00  0.00    +0.000 A 
ATOM     16  C   UNL     1       2.068   4.547  20.043  0.00  0.00    +0.000 A 
BRANCH  11  18
ATOM     17  N   UNL     1       2.134   3.598  16.624  0.00  0.00    +0.000 NA
ATOM     18  C   UNL     1       2.109   3.517  17.781  0.00  0.00    +0.000 C 
ENDBRANCH  11  18
ENDBRANCH  10  16
ENDBRANCH   8  10
ENDBRANCH   1   8
BRANCH   4  19
ATOM     19  O   UNL     1       7.106   5.842  15.304  0.00  0.00    +0.000 OA
BRANCH  19  20
ATOM     20  C   UNL     1       6.768   5.008  14.258  0.00  0.00    +0.000 A 
ATOM     21  C   UNL     1       5.628   4.198  14.244  0.00  0.00    +0.000 A 
ATOM     22  C   UNL     1       5.446   3.263  13.221  0.00  0.00    +0.000 A 
ATOM     23  C   UNL     1       6.364   3.193  12.173  0.00  0.00    +0.000 A 
ATOM     24 CL   UNL     1       6.173   1.996  10.952  0.00  0.00    +0.000 Cl
ATOM     25  C   UNL     1       7.436   4.080  12.110  0.00  0.00    +0.000 A 
ATOM     26  C   UNL     1       7.629   4.989  13.151  0.00  0.00    +0.000 A 
BRANCH  26  27
ATOM     27  O   UNL     1       8.678   5.868  13.104  0.00  0.00    +0.000 OA
ATOM     28  H   UNL     1       8.389   6.689  12.675  0.00  0.00    +0.000 HD
ENDBRANCH  26  27
ENDBRANCH  19  20
ENDBRANCH   4  19
TORSDOF 7
ENDMDL
MODEL 5
REMARK VINA RESULT:      -7.7      2.370      3.052
REMARK  Name = 
REMARK  7 active torsions:
REMARK  status: ('A' for Active; 'I' for Inactive)
REMARK    1  A    between atoms: C_2  and  C_3
REMARK    2  A    between atoms: C_8  and  C_9
REMARK    3  A    between atoms: C_9  and  N_10
REMARK    4  A    between atoms: N_10  and  C_11
REMARK    5  A    between atoms: C_14  and  O_15
REMARK    6  A    between atoms: O_15  and  C_16
REMARK    7  A    between atoms: C_22  and  O_23
REMARK                            x       y       z     vdW  Elec       q    Type
REMARK                         _______ _______ _______ _____ _____    ______ ____
ROOT
ATOM      1  C   UNL     1       2.401   7.716  18.724  0.00  0.00    +0.000 A 
ATOM      2  C   UNL     1       1.961   8.569  17.715  0.00  0.00    +0.000 A 
ATOM      3  C   UNL     1       1.062   9.612  18.000  0.00  0.00    +0.000 A 
ATOM      4  C   UNL     1       0.593   9.832  19.303  0.00  0.00    +0.000 A 
ATOM      5  C   UNL     1       0.962   8.924  20.301  0.00  0.00    +0.000 A 
ATOM      6 CL   UNL     1       0.296   8.902  21.899  0.00  0.00    +0.000 Cl
ATOM      7  C   UNL     1       1.888   7.913  20.012  0.00  0.00    +0.000 A 
ENDROOT
BRANCH   1   8
ATOM      8  N   UNL     1       3.332   6.701  18.566  0.00  0.00    +0.000 N 
ATOM      9  H   UNL     1       4.169   7.014  18.079  0.00  0.00    +0.000 HD
BRANCH   8  10
ATOM     10  C   UNL     1       3.594   5.665  19.552  0.00  0.00    +0.000 C 
BRANCH  10  16
ATOM     11  C   UNL     1       2.965   3.574  18.175  0.00  0.00    +0.000 A 
ATOM     12  C   UNL     1       2.116   2.472  17.965  0.00  0.00    +0.000 A 
ATOM     13  C   UNL     1       1.011   2.256  18.788  0.00  0.00    +0.000 A 
ATOM     14  C   UNL     1       0.742   3.143  19.825  0.00  0.00    +0.000 A 
ATOM     15  C   UNL     1       1.586   4.234  20.050  0.00  0.00    +0.000 A 
ATOM     16  C   UNL     1       2.709   4.469  19.229  0.00  0.00    +0.000 A 
BRANCH  11  18
ATOM     17  N   UNL     1       4.964   3.889  16.551  0.00  0.00    +0.000 NA
ATOM     18  C   UNL     1       4.072   3.748  17.279  0.00  0.00    +0.000 C 
ENDBRANCH  11  18
ENDBRANCH  10  16
ENDBRANCH   8  10
ENDBRANCH   1   8
BRANCH   4  19
ATOM     19  O   UNL     1      -0.267  10.904  19.425  0.00  0.00    +0.000 OA
BRANCH  19  20
ATOM     20  C   UNL     1       0.218  12.194  19.483  0.00  0.00    +0.000 A 
ATOM     21  C   UNL     1       1.205  12.616  20.380  0.00  0.00    +0.000 A 
ATOM     22  C   UNL     1       1.521  13.974  20.484  0.00  0.00    +0.000 A 
ATOM     23  C   UNL     1       0.906  14.897  19.638  0.00  0.00    +0.000 A 
ATOM     24 CL   UNL     1       1.247  16.574  19.815  0.00  0.00    +0.000 Cl
ATOM     25  C   UNL     1       0.015  14.473  18.655  0.00  0.00    +0.000 A 
ATOM     26  C   UNL     1      -0.319  13.121  18.578  0.00  0.00    +0.000 A 
BRANCH  26  27
ATOM     27  O   UNL     1      -1.194  12.688  17.617  0.00  0.00    +0.000 OA
ATOM     28  H   UNL     1      -0.841  11.886  17.200  0.00  0.00    +0.000 HD
ENDBRANCH  26  27
ENDBRANCH  19  20
ENDBRANCH   4  19
TORSDOF 7
ENDMDL
MODEL 6
REMARK VINA RESULT:      -7.7      1.930      2.895
REMARK  Name = 
REMARK  7 active torsions:
REMARK  status: ('A' for Active; 'I' for Inactive)
REMARK    1  A    between atoms: C_2  and  C_3
REMARK    2  A    between atoms: C_8  and  C_9
REMARK    3  A    between atoms: C_9  and  N_10
REMARK    4  A    between atoms: N_10  and  C_11
REMARK    5  A    between atoms: C_14  and  O_15
REMARK    6  A    between atoms: O_15  and  C_16
REMARK    7  A    between atoms: C_22  and  O_23
REMARK                            x       y       z     vdW  Elec       q    Type
REMARK                         _______ _______ _______ _____ _____    ______ ____
ROOT
ATOM      1  C   UNL     1       2.762   6.846  18.996  0.00  0.00    +0.000 A 
ATOM      2  C   UNL     1       2.773   7.645  17.855  0.00  0.00    +0.000 A 
ATOM      3  C   UNL     1       2.095   8.876  17.836  0.00  0.00    +0.000 A 
ATOM      4  C   UNL     1       1.400   9.342  18.962  0.00  0.00    +0.000 A 
ATOM      5  C   UNL     1       1.311   8.503  20.078  0.00  0.00    +0.000 A 
ATOM      6 CL   UNL     1       0.308   8.809  21.454  0.00  0.00    +0.000 Cl
ATOM      7  C   UNL     1       2.023   7.297  20.098  0.00  0.00    +0.000 A 
ENDROOT
BRANCH   1   8
ATOM      8  N   UNL     1       3.447   5.650  19.144  0.00  0.00    +0.000 N 
ATOM      9  H   UNL     1       2.997   4.882  18.650  0.00  0.00    +0.000 HD
BRANCH   8  10
ATOM     10  C   UNL     1       4.895   5.532  19.193  0.00  0.00    +0.000 C 
BRANCH  10  16
ATOM     11  C   UNL     1       6.609   5.635  17.265  0.00  0.00    +0.000 A 
ATOM     12  C   UNL     1       7.009   5.236  15.977  0.00  0.00    +0.000 A 
ATOM     13  C   UNL     1       6.204   4.396  15.209  0.00  0.00    +0.000 A 
ATOM     14  C   UNL     1       4.988   3.952  15.720  0.00  0.00    +0.000 A 
ATOM     15  C   UNL     1       4.588   4.332  17.003  0.00  0.00    +0.000 A 
ATOM     16  C   UNL     1       5.389   5.181  17.796  0.00  0.00    +0.000 A 
BRANCH  11  18
ATOM     17  N   UNL     1       8.173   7.230  18.586  0.00  0.00    +0.000 NA
ATOM     18  C   UNL     1       7.476   6.517  17.994  0.00  0.00    +0.000 C 
ENDBRANCH  11  18
ENDBRANCH  10  16
ENDBRANCH   8  10
ENDBRANCH   1   8
BRANCH   4  19
ATOM     19  O   UNL     1       0.803  10.574  18.792  0.00  0.00    +0.000 OA
BRANCH  19  20
ATOM     20  C   UNL     1      -0.548  10.674  18.531  0.00  0.00    +0.000 A 
ATOM     21  C   UNL     1      -1.212   9.915  17.561  0.00  0.00    +0.000 A 
ATOM     22  C   UNL     1      -2.545  10.194  17.247  0.00  0.00    +0.000 A 
ATOM     23  C   UNL     1      -3.234  11.179  17.954  0.00  0.00    +0.000 A 
ATOM     24 CL   UNL     1      -4.852  11.567  17.519  0.00  0.00    +0.000 Cl
ATOM     25  C   UNL     1      -2.620  11.856  19.007  0.00  0.00    +0.000 A 
ATOM     26  C   UNL     1      -1.281  11.593  19.294  0.00  0.00    +0.000 A 
BRANCH  26  27
ATOM     27  O   UNL     1      -0.664  12.250  20.325  0.00  0.00    +0.000 OA
ATOM     28  H   UNL     1      -1.336  12.671  20.885  0.00  0.00    +0.000 HD
ENDBRANCH  26  27
ENDBRANCH  19  20
ENDBRANCH   4  19
TORSDOF 7
ENDMDL
MODEL 7
REMARK VINA RESULT:      -7.7      1.204      1.878
REMARK  Name = 
REMARK  7 active torsions:
REMARK  status: ('A' for Active; 'I' for Inactive)
REMARK    1  A    between atoms: C_2  and  C_3
REMARK    2  A    between atoms: C_8  and  C_9
REMARK    3  A    between atoms: C_9  and  N_10
REMARK    4  A    between atoms: N_10  and  C_11
REMARK    5  A    between atoms: C_14  and  O_15
REMARK    6  A    between atoms: O_15  and  C_16
REMARK    7  A    between atoms: C_22  and  O_23
REMARK                            x       y       z     vdW  Elec       q    Type
REMARK                         _______ _______ _______ _____ _____    ______ ____
ROOT
ATOM      1  C   UNL     1       2.213   7.269  19.879  0.00  0.00    +0.000 A 
ATOM      2  C   UNL     1       2.277   7.738  18.569  0.00  0.00    +0.000 A 
ATOM      3  C   UNL     1       1.612   8.919  18.197  0.00  0.00    +0.000 A 
ATOM      4  C   UNL     1       0.878   9.665  19.130  0.00  0.00    +0.000 A 
ATOM      5  C   UNL     1       0.737   9.152  20.423  0.00  0.00    +0.000 A 
ATOM      6 CL   UNL     1      -0.317   9.811  21.628  0.00  0.00    +0.000 Cl
ATOM      7  C   UNL     1       1.436   7.995  20.791  0.00  0.00    +0.000 A 
ENDROOT
BRANCH   1   8
ATOM      8  N   UNL     1       2.880   6.156  20.366  0.00  0.00    +0.000 N 
ATOM      9  H   UNL     1       2.261   5.522  20.867  0.00  0.00    +0.000 HD
BRANCH   8  10
ATOM     10  C   UNL     1       3.960   5.475  19.672  0.00  0.00    +0.000 C 
BRANCH  10  16
ATOM     11  C   UNL     1       2.686   3.230  19.641  0.00  0.00    +0.000 A 
ATOM     12  C   UNL     1       2.148   2.152  18.914  0.00  0.00    +0.000 A 
ATOM     13  C   UNL     1       2.300   2.079  17.530  0.00  0.00    +0.000 A 
ATOM     14  C   UNL     1       2.995   3.081  16.860  0.00  0.00    +0.000 A 
ATOM     15  C   UNL     1       3.522   4.162  17.571  0.00  0.00    +0.000 A 
ATOM     16  C   UNL     1       3.379   4.255  18.971  0.00  0.00    +0.000 A 
BRANCH  11  18
ATOM     17  N   UNL     1       2.373   3.237  22.216  0.00  0.00    +0.000 NA
ATOM     18  C   UNL     1       2.511   3.233  21.065  0.00  0.00    +0.000 C 
ENDBRANCH  11  18
ENDBRANCH  10  16
ENDBRANCH   8  10
ENDBRANCH   1   8
BRANCH   4  19
ATOM     19  O   UNL     1       0.300  10.808  18.616  0.00  0.00    +0.000 OA
BRANCH  19  20
ATOM     20  C   UNL     1      -1.049  10.850  18.333  0.00  0.00    +0.000 A 
ATOM     21  C   UNL     1      -1.681   9.997  17.422  0.00  0.00    +0.000 A 
ATOM     22  C   UNL     1      -3.017  10.215  17.071  0.00  0.00    +0.000 A 
ATOM     23  C   UNL     1      -3.740  11.236  17.688  0.00  0.00    +0.000 A 
ATOM     24 CL   UNL     1      -5.362  11.543  17.205  0.00  0.00    +0.000 Cl
ATOM     25  C   UNL     1      -3.157  12.012  18.688  0.00  0.00    +0.000 A 
ATOM     26  C   UNL     1      -1.815  11.810  19.010  0.00  0.00    +0.000 A 
BRANCH  26  27
ATOM     27  O   UNL     1      -1.228  12.565  19.990  0.00  0.00    +0.000 OA
ATOM     28  H   UNL     1      -0.318  12.778  19.728  0.00  0.00    +0.000 HD
ENDBRANCH  26  27
ENDBRANCH  19  20
ENDBRANCH   4  19
TORSDOF 7
ENDMDL
MODEL 8
REMARK VINA RESULT:      -7.6      6.446      8.387
REMARK  Name = 
REMARK  7 active torsions:
REMARK  status: ('A' for Active; 'I' for Inactive)
REMARK    1  A    between atoms: C_2  and  C_3
REMARK    2  A    between atoms: C_8  and  C_9
REMARK    3  A    between atoms: C_9  and  N_10
REMARK    4  A    between atoms: N_10  and  C_11
REMARK    5  A    between atoms: C_14  and  O_15
REMARK    6  A    between atoms: O_15  and  C_16
REMARK    7  A    between atoms: C_22  and  O_23
REMARK                            x       y       z     vdW  Elec       q    Type
REMARK                         _______ _______ _______ _____ _____    ______ ____
ROOT
ATOM      1  C   UNL     1       4.237   6.082  18.728  0.00  0.00    +0.000 A 
ATOM      2  C   UNL     1       3.985   6.715  17.513  0.00  0.00    +0.000 A 
ATOM      3  C   UNL     1       4.904   6.623  16.454  0.00  0.00    +0.000 A 
ATOM      4  C   UNL     1       6.090   5.885  16.581  0.00  0.00    +0.000 A 
ATOM      5  C   UNL     1       6.389   5.323  17.826  0.00  0.00    +0.000 A 
ATOM      6 CL   UNL     1       7.902   4.587  18.230  0.00  0.00    +0.000 Cl
ATOM      7  C   UNL     1       5.447   5.389  18.861  0.00  0.00    +0.000 A 
ENDROOT
BRANCH   1   8
ATOM      8  N   UNL     1       3.373   6.055  19.812  0.00  0.00    +0.000 N 
ATOM      9  H   UNL     1       2.510   6.564  19.633  0.00  0.00    +0.000 HD
BRANCH   8  10
ATOM     10  C   UNL     1       3.193   4.911  20.692  0.00  0.00    +0.000 C 
BRANCH  10  16
ATOM     11  C   UNL     1       2.896   2.536  19.725  0.00  0.00    +0.000 A 
ATOM     12  C   UNL     1       2.104   1.598  19.038  0.00  0.00    +0.000 A 
ATOM     13  C   UNL     1       0.849   1.950  18.545  0.00  0.00    +0.000 A 
ATOM     14  C   UNL     1       0.375   3.245  18.729  0.00  0.00    +0.000 A 
ATOM     15  C   UNL     1       1.149   4.181  19.421  0.00  0.00    +0.000 A 
ATOM     16  C   UNL     1       2.421   3.844  19.929  0.00  0.00    +0.000 A 
BRANCH  11  18
ATOM     17  N   UNL     1       5.228   1.769  20.566  0.00  0.00    +0.000 NA
ATOM     18  C   UNL     1       4.186   2.113  20.189  0.00  0.00    +0.000 C 
ENDBRANCH  11  18
ENDBRANCH  10  16
ENDBRANCH   8  10
ENDBRANCH   1   8
BRANCH   4  19
ATOM     19  O   UNL     1       6.878   5.875  15.449  0.00  0.00    +0.000 OA
BRANCH  19  20
ATOM     20  C   UNL     1       6.582   5.039  14.391  0.00  0.00    +0.000 A 
ATOM     21  C   UNL     1       5.440   4.234  14.330  0.00  0.00    +0.000 A 
ATOM     22  C   UNL     1       5.299   3.297  13.302  0.00  0.00    +0.000 A 
ATOM     23  C   UNL     1       6.261   3.220  12.296  0.00  0.00    +0.000 A 
ATOM     24 CL   UNL     1       6.119   2.021  11.070  0.00  0.00    +0.000 Cl
ATOM     25  C   UNL     1       7.339   4.103  12.277  0.00  0.00    +0.000 A 
ATOM     26  C   UNL     1       7.490   5.014  13.322  0.00  0.00    +0.000 A 
BRANCH  26  27
ATOM     27  O   UNL     1       8.544   5.888  13.319  0.00  0.00    +0.000 OA
ATOM     28  H   UNL     1       9.301   5.473  12.875  0.00  0.00    +0.000 HD
ENDBRANCH  26  27
ENDBRANCH  19  20
ENDBRANCH   4  19
TORSDOF 7
ENDMDL
MODEL 9
REMARK VINA RESULT:      -7.6      2.579      3.315
REMARK  Name = 
REMARK  7 active torsions:
REMARK  status: ('A' for Active; 'I' for Inactive)
REMARK    1  A    between atoms: C_2  and  C_3
REMARK    2  A    between atoms: C_8  and  C_9
REMARK    3  A    between atoms: C_9  and  N_10
REMARK    4  A    between atoms: N_10  and  C_11
REMARK    5  A    between atoms: C_14  and  O_15
REMARK    6  A    between atoms: O_15  and  C_16
REMARK    7  A    between atoms: C_22  and  O_23
REMARK                            x       y       z     vdW  Elec       q    Type
REMARK                         _______ _______ _______ _____ _____    ______ ____
ROOT
ATOM      1  C   UNL     1       2.160   7.867  18.870  0.00  0.00    +0.000 A 
ATOM      2  C   UNL     1       1.722   8.729  17.866  0.00  0.00    +0.000 A 
ATOM      3  C   UNL     1       0.854   9.793  18.163  0.00  0.00    +0.000 A 
ATOM      4  C   UNL     1       0.412  10.028  19.474  0.00  0.00    +0.000 A 
ATOM      5  C   UNL     1       0.777   9.114  20.468  0.00  0.00    +0.000 A 
ATOM      6 CL   UNL     1       0.139   9.113  22.077  0.00  0.00    +0.000 Cl
ATOM      7  C   UNL     1       1.674   8.081  20.166  0.00  0.00    +0.000 A 
ENDROOT
BRANCH   1   8
ATOM      8  N   UNL     1       3.063   6.830  18.699  0.00  0.00    +0.000 N 
ATOM      9  H   UNL     1       3.684   6.722  19.497  0.00  0.00    +0.000 HD
BRANCH   8  10
ATOM     10  C   UNL     1       2.756   5.573  18.035  0.00  0.00    +0.000 C 
BRANCH  10  16
ATOM     11  C   UNL     1       3.594   3.769  19.680  0.00  0.00    +0.000 A 
ATOM     12  C   UNL     1       3.319   2.829  20.690  0.00  0.00    +0.000 A 
ATOM     13  C   UNL     1       2.012   2.614  21.127  0.00  0.00    +0.000 A 
ATOM     14  C   UNL     1       0.968   3.333  20.556  0.00  0.00    +0.000 A 
ATOM     15  C   UNL     1       1.232   4.278  19.561  0.00  0.00    +0.000 A 
ATOM     16  C   UNL     1       2.547   4.511  19.105  0.00  0.00    +0.000 A 
BRANCH  11  18
ATOM     17  N   UNL     1       6.058   4.054  18.922  0.00  0.00    +0.000 NA
ATOM     18  C   UNL     1       4.957   3.926  19.263  0.00  0.00    +0.000 C 
ENDBRANCH  11  18
ENDBRANCH  10  16
ENDBRANCH   8  10
ENDBRANCH   1   8
BRANCH   4  19
ATOM     19  O   UNL     1      -0.419  11.121  19.607  0.00  0.00    +0.000 OA
BRANCH  19  20
ATOM     20  C   UNL     1       0.098  12.399  19.656  0.00  0.00    +0.000 A 
ATOM     21  C   UNL     1       0.992  12.841  20.638  0.00  0.00    +0.000 A 
ATOM     22  C   UNL     1       1.338  14.193  20.711  0.00  0.00    +0.000 A 
ATOM     23  C   UNL     1       0.851  15.087  19.757  0.00  0.00    +0.000 A 
ATOM     24 CL   UNL     1       1.225  16.761  19.890  0.00  0.00    +0.000 Cl
ATOM     25  C   UNL     1       0.062  14.636  18.701  0.00  0.00    +0.000 A 
ATOM     26  C   UNL     1      -0.305  13.291  18.653  0.00  0.00    +0.000 A 
BRANCH  26  27
ATOM     27  O   UNL     1      -1.081  12.833  17.621  0.00  0.00    +0.000 OA
ATOM     28  H   UNL     1      -0.513  12.406  16.959  0.00  0.00    +0.000 HD
ENDBRANCH  26  27
ENDBRANCH  19  20
ENDBRANCH   4  19
TORSDOF 7
ENDMDL
