MODEL 1
REMARK VINA RESULT:      -8.8      0.000      0.000
REMARK  Name = 
REMARK  8 active torsions:
REMARK  status: ('A' for Active; 'I' for Inactive)
REMARK    1  A    between atoms: C_4  and  N_5
REMARK    2  A    between atoms: N_5  and  C_6
REMARK    3  A    between atoms: C_6  and  C_7
REMARK    4  A    between atoms: C_7  and  C_8
REMARK    5  A    between atoms: C_8  and  N_9
REMARK    6  A    between atoms: N_9  and  C_10
REMARK    7  A    between atoms: C_10  and  C_11
REMARK    8  A    between atoms: C_10  and  C_17
REMARK                            x       y       z     vdW  Elec       q    Type
REMARK                         _______ _______ _______ _____ _____    ______ ____
ROOT
ATOM      1  C   UNL     1       5.797   6.984  17.653  0.00  0.00    +0.000 C 
ENDROOT
BRANCH   1   2
ATOM      2  N   UNL     1       5.092   5.941  18.392  0.00  0.00    +0.000 NA
ATOM      3  H   UNL     1       5.097   6.185  19.382  0.00  0.00    +0.000 HD
BRANCH   2   4
ATOM      4  C   UNL     1       3.679   5.811  17.973  0.00  0.00    +0.000 C 
BRANCH   4   5
ATOM      5  C   UNL     1       2.880   7.050  18.390  0.00  0.00    +0.000 A 
ATOM      6  C   UNL     1       2.591   8.050  17.449  0.00  0.00    +0.000 A 
ATOM      7  C   UNL     1       1.855   9.179  17.814  0.00  0.00    +0.000 A 
ATOM      8  C   UNL     1       1.390   9.326  19.123  0.00  0.00    +0.000 A 
ATOM      9 CL   UNL     1       0.494  10.754  19.506  0.00  0.00    +0.000 Cl
ATOM     10  C   UNL     1       1.656   8.333  20.071  0.00  0.00    +0.000 A 
ATOM     11 CL   UNL     1       1.121   8.443  21.709  0.00  0.00    +0.000 Cl
ATOM     12  C   UNL     1       2.388   7.203  19.700  0.00  0.00    +0.000 A 
ENDBRANCH   4   5
BRANCH   4  13
ATOM     13  C   UNL     1       3.014   4.530  18.474  0.00  0.00    +0.000 A 
ATOM     14  C   UNL     1       3.626   3.722  19.448  0.00  0.00    +0.000 A 
ATOM     15  C   UNL     1       2.997   2.567  19.917  0.00  0.00    +0.000 A 
ATOM     16  C   UNL     1       1.756   2.194  19.411  0.00  0.00    +0.000 A 
ATOM     17  C   UNL     1       1.142   2.972  18.430  0.00  0.00    +0.000 A 
ATOM     18  C   UNL     1       1.766   4.133  17.966  0.00  0.00    +0.000 A 
ENDBRANCH   4  13
ENDBRANCH   2   4
ENDBRANCH   1   2
BRANCH   1  19
ATOM     19  C   UNL     1       7.313   6.840  17.821  0.00  0.00    +0.000 C 
BRANCH  19  20
ATOM     20  C   UNL     1       7.929   8.225  17.674  0.00  0.00    +0.000 C 
BRANCH  20  21
ATOM     21  N   UNL     1       8.699   8.628  18.844  0.00  0.00    +0.000 N 
ATOM     22  H   UNL     1       9.396   7.952  19.146  0.00  0.00    +0.000 HD
BRANCH  21  26
ATOM     23  O   UNL     1      10.406  12.791  17.359  0.00  0.00    +0.000 OA
ATOM     24  C   UNL     1       9.970  12.109  18.279  0.00  0.00    +0.000 A 
ATOM     25  C   UNL     1       9.547  10.714  18.046  0.00  0.00    +0.000 A 
ATOM     26  C   UNL     1       9.121   9.932  19.058  0.00  0.00    +0.000 A 
ATOM     27  N   UNL     1       9.093  10.424  20.345  0.00  0.00    +0.000 N 
ATOM     28  C   UNL     1       9.335  11.777  20.639  0.00  0.00    +0.000 A 
ATOM     29  C   UNL     1       9.197  12.274  21.937  0.00  0.00    +0.000 A 
ATOM     30  C   UNL     1       9.498  13.613  22.220  0.00  0.00    +0.000 A 
ATOM     31  C   UNL     1       9.959  14.463  21.213  0.00  0.00    +0.000 A 
ATOM     32  C   UNL     1      10.125  13.977  19.920  0.00  0.00    +0.000 A 
ATOM     33  C   UNL     1       9.817  12.641  19.645  0.00  0.00    +0.000 A 
ATOM     34  H   UNL     1       8.522   9.904  20.997  0.00  0.00    +0.000 HD
ENDBRANCH  21  26
ENDBRANCH  20  21
ENDBRANCH  19  20
ENDBRANCH   1  19
TORSDOF 8
ENDMDL
MODEL 2
REMARK VINA RESULT:      -8.5      6.046      9.014
REMARK  Name = 
REMARK  8 active torsions:
REMARK  status: ('A' for Active; 'I' for Inactive)
REMARK    1  A    between atoms: C_4  and  N_5
REMARK    2  A    between atoms: N_5  and  C_6
REMARK    3  A    between atoms: C_6  and  C_7
REMARK    4  A    between atoms: C_7  and  C_8
REMARK    5  A    between atoms: C_8  and  N_9
REMARK    6  A    between atoms: N_9  and  C_10
REMARK    7  A    between atoms: C_10  and  C_11
REMARK    8  A    between atoms: C_10  and  C_17
REMARK                            x       y       z     vdW  Elec       q    Type
REMARK                         _______ _______ _______ _____ _____    ______ ____
ROOT
ATOM      1  C   UNL     1       2.028   8.726  18.826  0.00  0.00    +0.000 C 
ENDROOT
BRANCH   1   2
ATOM      2  N   UNL     1       2.126   7.455  18.116  0.00  0.00    +0.000 NA
ATOM      3  H   UNL     1       2.486   7.634  17.178  0.00  0.00    +0.000 HD
BRANCH   2   4
ATOM      4  C   UNL     1       3.055   6.511  18.775  0.00  0.00    +0.000 C 
BRANCH   4   5
ATOM      5  C   UNL     1       4.224   6.170  17.846  0.00  0.00    +0.000 A 
ATOM      6  C   UNL     1       4.160   6.501  16.484  0.00  0.00    +0.000 A 
ATOM      7  C   UNL     1       5.223   6.205  15.629  0.00  0.00    +0.000 A 
ATOM      8  C   UNL     1       6.371   5.576  16.120  0.00  0.00    +0.000 A 
ATOM      9 CL   UNL     1       7.643   5.231  15.002  0.00  0.00    +0.000 Cl
ATOM     10  C   UNL     1       6.458   5.251  17.477  0.00  0.00    +0.000 A 
ATOM     11 CL   UNL     1       7.838   4.470  18.160  0.00  0.00    +0.000 Cl
ATOM     12  C   UNL     1       5.395   5.554  18.330  0.00  0.00    +0.000 A 
ENDBRANCH   4   5
BRANCH   4  13
ATOM     13  C   UNL     1       2.369   5.246  19.289  0.00  0.00    +0.000 A 
ATOM     14  C   UNL     1       2.344   4.934  20.659  0.00  0.00    +0.000 A 
ATOM     15  C   UNL     1       1.691   3.789  21.119  0.00  0.00    +0.000 A 
ATOM     16  C   UNL     1       1.067   2.931  20.218  0.00  0.00    +0.000 A 
ATOM     17  C   UNL     1       1.098   3.214  18.853  0.00  0.00    +0.000 A 
ATOM     18  C   UNL     1       1.744   4.364  18.391  0.00  0.00    +0.000 A 
ENDBRANCH   4  13
ENDBRANCH   2   4
ENDBRANCH   1   2
BRANCH   1  19
ATOM     19  C   UNL     1       1.343   8.539  20.184  0.00  0.00    +0.000 C 
BRANCH  19  20
ATOM     20  C   UNL     1       0.438   9.742  20.416  0.00  0.00    +0.000 C 
BRANCH  20  21
ATOM     21  N   UNL     1       0.247  10.545  19.215  0.00  0.00    +0.000 N 
ATOM     22  H   UNL     1       0.997  10.470  18.532  0.00  0.00    +0.000 HD
BRANCH  21  26
ATOM     23  O   UNL     1      -2.882   9.715  15.755  0.00  0.00    +0.000 OA
ATOM     24  C   UNL     1      -2.629  10.248  16.829  0.00  0.00    +0.000 A 
ATOM     25  C   UNL     1      -1.303  10.085  17.456  0.00  0.00    +0.000 A 
ATOM     26  C   UNL     1      -0.989  10.711  18.607  0.00  0.00    +0.000 A 
ATOM     27  N   UNL     1      -1.908  11.541  19.213  0.00  0.00    +0.000 N 
ATOM     28  C   UNL     1      -3.239  11.641  18.772  0.00  0.00    +0.000 A 
ATOM     29  C   UNL     1      -4.179  12.406  19.466  0.00  0.00    +0.000 A 
ATOM     30  C   UNL     1      -5.485  12.538  18.978  0.00  0.00    +0.000 A 
ATOM     31  C   UNL     1      -5.859  11.924  17.781  0.00  0.00    +0.000 A 
ATOM     32  C   UNL     1      -4.928  11.179  17.066  0.00  0.00    +0.000 A 
ATOM     33  C   UNL     1      -3.628  11.047  17.563  0.00  0.00    +0.000 A 
ATOM     34  H   UNL     1      -1.725  11.756  20.184  0.00  0.00    +0.000 HD
ENDBRANCH  21  26
ENDBRANCH  20  21
ENDBRANCH  19  20
ENDBRANCH   1  19
TORSDOF 8
ENDMDL
MODEL 3
REMARK VINA RESULT:      -8.4      5.156      7.980
REMARK  Name = 
REMARK  8 active torsions:
REMARK  status: ('A' for Active; 'I' for Inactive)
REMARK    1  A    between atoms: C_4  and  N_5
REMARK    2  A    between atoms: N_5  and  C_6
REMARK    3  A    between atoms: C_6  and  C_7
REMARK    4  A    between atoms: C_7  and  C_8
REMARK    5  A    between atoms: C_8  and  N_9
REMARK    6  A    between atoms: N_9  and  C_10
REMARK    7  A    between atoms: C_10  and  C_11
REMARK    8  A    between atoms: C_10  and  C_17
REMARK                            x       y       z     vdW  Elec       q    Type
REMARK                         _______ _______ _______ _____ _____    ______ ____
ROOT
ATOM      1  C   UNL     1       4.221   3.410  18.177  0.00  0.00    +0.000 C 
ENDROOT
BRANCH   1   2
ATOM      2  N   UNL     1       5.131   3.330  17.039  0.00  0.00    +0.000 NA
ATOM      3  H   UNL     1       4.713   2.726  16.331  0.00  0.00    +0.000 HD
BRANCH   2   4
ATOM      4  C   UNL     1       5.370   4.649  16.414  0.00  0.00    +0.000 C 
BRANCH   4   5
ATOM      5  C   UNL     1       5.852   4.481  14.971  0.00  0.00    +0.000 A 
ATOM      6  C   UNL     1       7.148   4.880  14.610  0.00  0.00    +0.000 A 
ATOM      7  C   UNL     1       7.602   4.722  13.299  0.00  0.00    +0.000 A 
ATOM      8  C   UNL     1       6.771   4.158  12.327  0.00  0.00    +0.000 A 
ATOM      9 CL   UNL     1       7.397   4.003  10.723  0.00  0.00    +0.000 Cl
ATOM     10  C   UNL     1       5.482   3.742  12.671  0.00  0.00    +0.000 A 
ATOM     11 CL   UNL     1       4.394   3.041  11.528  0.00  0.00    +0.000 Cl
ATOM     12  C   UNL     1       5.034   3.896  13.984  0.00  0.00    +0.000 A 
ENDBRANCH   4   5
BRANCH   4  13
ATOM     13  C   UNL     1       6.323   5.535  17.216  0.00  0.00    +0.000 A 
ATOM     14  C   UNL     1       7.138   5.002  18.228  0.00  0.00    +0.000 A 
ATOM     15  C   UNL     1       8.024   5.817  18.936  0.00  0.00    +0.000 A 
ATOM     16  C   UNL     1       8.098   7.178  18.653  0.00  0.00    +0.000 A 
ATOM     17  C   UNL     1       7.282   7.728  17.666  0.00  0.00    +0.000 A 
ATOM     18  C   UNL     1       6.401   6.913  16.951  0.00  0.00    +0.000 A 
ENDBRANCH   4  13
ENDBRANCH   2   4
ENDBRANCH   1   2
BRANCH   1  19
ATOM     19  C   UNL     1       2.816   3.820  17.723  0.00  0.00    +0.000 C 
BRANCH  19  20
ATOM     20  C   UNL     1       2.108   4.451  18.914  0.00  0.00    +0.000 C 
BRANCH  20  21
ATOM     21  N   UNL     1       2.849   5.568  19.484  0.00  0.00    +0.000 N 
ATOM     22  H   UNL     1       3.850   5.547  19.306  0.00  0.00    +0.000 HD
BRANCH  21  26
ATOM     23  O   UNL     1       1.931   9.759  17.474  0.00  0.00    +0.000 OA
ATOM     24  C   UNL     1       1.844   9.030  18.455  0.00  0.00    +0.000 A 
ATOM     25  C   UNL     1       2.393   7.659  18.424  0.00  0.00    +0.000 A 
ATOM     26  C   UNL     1       2.358   6.865  19.512  0.00  0.00    +0.000 A 
ATOM     27  N   UNL     1       1.821   7.335  20.691  0.00  0.00    +0.000 N 
ATOM     28  C   UNL     1       1.146   8.565  20.775  0.00  0.00    +0.000 A 
ATOM     29  C   UNL     1       0.518   8.970  21.954  0.00  0.00    +0.000 A 
ATOM     30  C   UNL     1      -0.101  10.225  22.033  0.00  0.00    +0.000 A 
ATOM     31  C   UNL     1      -0.080  11.094  20.941  0.00  0.00    +0.000 A 
ATOM     32  C   UNL     1       0.563  10.715  19.767  0.00  0.00    +0.000 A 
ATOM     33  C   UNL     1       1.172   9.459  19.695  0.00  0.00    +0.000 A 
ATOM     34  H   UNL     1       1.577   6.626  21.370  0.00  0.00    +0.000 HD
ENDBRANCH  21  26
ENDBRANCH  20  21
ENDBRANCH  19  20
ENDBRANCH   1  19
TORSDOF 8
ENDMDL
MODEL 4
REMARK VINA RESULT:      -8.4      5.439      9.431
REMARK  Name = 
REMARK  8 active torsions:
REMARK  status: ('A' for Active; 'I' for Inactive)
REMARK    1  A    between atoms: C_4  and  N_5
REMARK    2  A    between atoms: N_5  and  C_6
REMARK    3  A    between atoms: C_6  and  C_7
REMARK    4  A    between atoms: C_7  and  C_8
REMARK    5  A    between atoms: C_8  and  N_9
REMARK    6  A    between atoms: N_9  and  C_10
REMARK    7  A    between atoms: C_10  and  C_11
REMARK    8  A    between atoms: C_10  and  C_17
REMARK                            x       y       z     vdW  Elec       q    Type
REMARK                         _______ _______ _______ _____ _____    ______ ____
ROOT
ATOM      1  C   UNL     1       1.628   8.296  18.149  0.00  0.00    +0.000 C 
ENDROOT
BRANCH   1   2
ATOM      2  N   UNL     1       3.029   7.900  18.048  0.00  0.00    +0.000 NA
ATOM      3  H   UNL     1       3.445   7.937  18.980  0.00  0.00    +0.000 HD
BRANCH   2   4
ATOM      4  C   UNL     1       3.189   6.518  17.546  0.00  0.00    +0.000 C 
BRANCH   4   5
ATOM      5  C   UNL     1       2.695   5.508  18.585  0.00  0.00    +0.000 A 
ATOM      6  C   UNL     1       2.982   5.699  19.945  0.00  0.00    +0.000 A 
ATOM      7  C   UNL     1       2.528   4.790  20.903  0.00  0.00    +0.000 A 
ATOM      8  C   UNL     1       1.775   3.677  20.520  0.00  0.00    +0.000 A 
ATOM      9 CL   UNL     1       1.255   2.590  21.759  0.00  0.00    +0.000 Cl
ATOM     10  C   UNL     1       1.467   3.478  19.171  0.00  0.00    +0.000 A 
ATOM     11 CL   UNL     1       0.546   2.126  18.616  0.00  0.00    +0.000 Cl
ATOM     12  C   UNL     1       1.918   4.392  18.217  0.00  0.00    +0.000 A 
ENDBRANCH   4   5
BRANCH   4  13
ATOM     13  C   UNL     1       4.614   6.198  17.097  0.00  0.00    +0.000 A 
ATOM     14  C   UNL     1       4.882   5.132  16.222  0.00  0.00    +0.000 A 
ATOM     15  C   UNL     1       6.186   4.866  15.797  0.00  0.00    +0.000 A 
ATOM     16  C   UNL     1       7.242   5.650  16.253  0.00  0.00    +0.000 A 
ATOM     17  C   UNL     1       6.998   6.699  17.137  0.00  0.00    +0.000 A 
ATOM     18  C   UNL     1       5.693   6.973  17.556  0.00  0.00    +0.000 A 
ENDBRANCH   4  13
ENDBRANCH   2   4
ENDBRANCH   1   2
BRANCH   1  19
ATOM     19  C   UNL     1       1.432   9.319  19.273  0.00  0.00    +0.000 C 
BRANCH  19  20
ATOM     20  C   UNL     1       0.553  10.439  18.732  0.00  0.00    +0.000 C 
BRANCH  20  21
ATOM     21  N   UNL     1      -0.350   9.990  17.680  0.00  0.00    +0.000 N 
ATOM     22  H   UNL     1      -0.317   8.991  17.491  0.00  0.00    +0.000 HD
BRANCH  21  26
ATOM     23  O   UNL     1      -4.335  10.614  15.194  0.00  0.00    +0.000 OA
ATOM     24  C   UNL     1      -3.715  10.794  16.235  0.00  0.00    +0.000 A 
ATOM     25  C   UNL     1      -2.346  10.265  16.396  0.00  0.00    +0.000 A 
ATOM     26  C   UNL     1      -1.628  10.504  17.511  0.00  0.00    +0.000 A 
ATOM     27  N   UNL     1      -2.160  11.274  18.522  0.00  0.00    +0.000 N 
ATOM     28  C   UNL     1      -3.502  11.694  18.522  0.00  0.00    +0.000 A 
ATOM     29  C   UNL     1      -4.048  12.383  19.608  0.00  0.00    +0.000 A 
ATOM     30  C   UNL     1      -5.370  12.842  19.564  0.00  0.00    +0.000 A 
ATOM     31  C   UNL     1      -6.154  12.637  18.427  0.00  0.00    +0.000 A 
ATOM     32  C   UNL     1      -5.617  11.974  17.328  0.00  0.00    +0.000 A 
ATOM     33  C   UNL     1      -4.298  11.514  17.382  0.00  0.00    +0.000 A 
ATOM     34  H   UNL     1      -1.702  11.191  19.419  0.00  0.00    +0.000 HD
ENDBRANCH  21  26
ENDBRANCH  20  21
ENDBRANCH  19  20
ENDBRANCH   1  19
TORSDOF 8
ENDMDL
MODEL 5
REMARK VINA RESULT:      -8.4      6.040      8.755
REMARK  Name = 
REMARK  8 active torsions:
REMARK  status: ('A' for Active; 'I' for Inactive)
REMARK    1  A    between atoms: C_4  and  N_5
REMARK    2  A    between atoms: N_5  and  C_6
REMARK    3  A    between atoms: C_6  and  C_7
REMARK    4  A    between atoms: C_7  and  C_8
REMARK    5  A    between atoms: C_8  and  N_9
REMARK    6  A    between atoms: N_9  and  C_10
REMARK    7  A    between atoms: C_10  and  C_11
REMARK    8  A    between atoms: C_10  and  C_17
REMARK                            x       y       z     vdW  Elec       q    Type
REMARK                         _______ _______ _______ _____ _____    ______ ____
ROOT
ATOM      1  C   UNL     1       2.102   8.326  19.965  0.00  0.00    +0.000 C 
ENDROOT
BRANCH   1   2
ATOM      2  N   UNL     1       2.052   7.097  19.179  0.00  0.00    +0.000 NA
ATOM      3  H   UNL     1       2.331   7.313  18.222  0.00  0.00    +0.000 HD
BRANCH   2   4
ATOM      4  C   UNL     1       2.978   6.063  19.691  0.00  0.00    +0.000 C 
BRANCH   4   5
ATOM      5  C   UNL     1       4.085   5.781  18.670  0.00  0.00    +0.000 A 
ATOM      6  C   UNL     1       5.113   4.879  18.979  0.00  0.00    +0.000 A 
ATOM      7  C   UNL     1       6.123   4.606  18.053  0.00  0.00    +0.000 A 
ATOM      8  C   UNL     1       6.119   5.226  16.801  0.00  0.00    +0.000 A 
ATOM      9 CL   UNL     1       7.405   4.848  15.709  0.00  0.00    +0.000 Cl
ATOM     10  C   UNL     1       5.094   6.118  16.470  0.00  0.00    +0.000 A 
ATOM     11 CL   UNL     1       5.021   6.928  14.947  0.00  0.00    +0.000 Cl
ATOM     12  C   UNL     1       4.084   6.384  17.397  0.00  0.00    +0.000 A 
ENDBRANCH   4   5
BRANCH   4  13
ATOM     13  C   UNL     1       2.274   4.775  20.113  0.00  0.00    +0.000 A 
ATOM     14  C   UNL     1       1.467   4.056  19.216  0.00  0.00    +0.000 A 
ATOM     15  C   UNL     1       0.850   2.865  19.606  0.00  0.00    +0.000 A 
ATOM     16  C   UNL     1       1.017   2.384  20.901  0.00  0.00    +0.000 A 
ATOM     17  C   UNL     1       1.798   3.095  21.812  0.00  0.00    +0.000 A 
ATOM     18  C   UNL     1       2.424   4.281  21.421  0.00  0.00    +0.000 A 
ENDBRANCH   4  13
ENDBRANCH   2   4
ENDBRANCH   1   2
BRANCH   1  19
ATOM     19  C   UNL     1       1.059   8.297  21.087  0.00  0.00    +0.000 C 
BRANCH  19  20
ATOM     20  C   UNL     1       0.844   9.729  21.558  0.00  0.00    +0.000 C 
BRANCH  20  21
ATOM     21  N   UNL     1       0.702  10.671  20.455  0.00  0.00    +0.000 N 
ATOM     22  H   UNL     1       1.483  10.681  19.803  0.00  0.00    +0.000 HD
BRANCH  21  26
ATOM     23  O   UNL     1      -3.511  12.807  20.085  0.00  0.00    +0.000 OA
ATOM     24  C   UNL     1      -2.679  12.049  19.602  0.00  0.00    +0.000 A 
ATOM     25  C   UNL     1      -1.407  11.783  20.303  0.00  0.00    +0.000 A 
ATOM     26  C   UNL     1      -0.506  10.908  19.815  0.00  0.00    +0.000 A 
ATOM     27  N   UNL     1      -0.773  10.223  18.649  0.00  0.00    +0.000 N 
ATOM     28  C   UNL     1      -1.884  10.516  17.840  0.00  0.00    +0.000 A 
ATOM     29  C   UNL     1      -2.075   9.882  16.611  0.00  0.00    +0.000 A 
ATOM     30  C   UNL     1      -3.218  10.147  15.846  0.00  0.00    +0.000 A 
ATOM     31  C   UNL     1      -4.191  11.033  16.311  0.00  0.00    +0.000 A 
ATOM     32  C   UNL     1      -4.027  11.655  17.545  0.00  0.00    +0.000 A 
ATOM     33  C   UNL     1      -2.881  11.389  18.299  0.00  0.00    +0.000 A 
ATOM     34  H   UNL     1       0.029   9.802  18.199  0.00  0.00    +0.000 HD
ENDBRANCH  21  26
ENDBRANCH  20  21
ENDBRANCH  19  20
ENDBRANCH   1  19
TORSDOF 8
ENDMDL
MODEL 6
REMARK VINA RESULT:      -8.4      5.980      8.822
REMARK  Name = 
REMARK  8 active torsions:
REMARK  status: ('A' for Active; 'I' for Inactive)
REMARK    1  A    between atoms: C_4  and  N_5
REMARK    2  A    between atoms: N_5  and  C_6
REMARK    3  A    between atoms: C_6  and  C_7
REMARK    4  A    between atoms: C_7  and  C_8
REMARK    5  A    between atoms: C_8  and  N_9
REMARK    6  A    between atoms: N_9  and  C_10
REMARK    7  A    between atoms: C_10  and  C_11
REMARK    8  A    between atoms: C_10  and  C_17
REMARK                            x       y       z     vdW  Elec       q    Type
REMARK                         _______ _______ _______ _____ _____    ______ ____
ROOT
ATOM      1  C   UNL     1       1.881   8.292  18.831  0.00  0.00    +0.000 C 
ENDROOT
BRANCH   1   2
ATOM      2  N   UNL     1       1.980   6.920  18.346  0.00  0.00    +0.000 NA
ATOM      3  H   UNL     1       2.323   6.939  17.385  0.00  0.00    +0.000 HD
BRANCH   2   4
ATOM      4  C   UNL     1       2.930   6.109  19.139  0.00  0.00    +0.000 C 
BRANCH   4   5
ATOM      5  C   UNL     1       4.158   5.746  18.300  0.00  0.00    +0.000 A 
ATOM      6  C   UNL     1       4.020   5.482  16.929  0.00  0.00    +0.000 A 
ATOM      7  C   UNL     1       5.134   5.160  16.150  0.00  0.00    +0.000 A 
ATOM      8  C   UNL     1       6.406   5.101  16.727  0.00  0.00    +0.000 A 
ATOM      9 CL   UNL     1       7.737   4.686  15.706  0.00  0.00    +0.000 Cl
ATOM     10  C   UNL     1       6.564   5.375  18.089  0.00  0.00    +0.000 A 
ATOM     11 CL   UNL     1       8.100   5.319  18.877  0.00  0.00    +0.000 Cl
ATOM     12  C   UNL     1       5.448   5.702  18.862  0.00  0.00    +0.000 A 
ENDBRANCH   4   5
BRANCH   4  13
ATOM     13  C   UNL     1       2.294   4.864  19.757  0.00  0.00    +0.000 A 
ATOM     14  C   UNL     1       1.421   4.048  19.019  0.00  0.00    +0.000 A 
ATOM     15  C   UNL     1       0.867   2.898  19.586  0.00  0.00    +0.000 A 
ATOM     16  C   UNL     1       1.166   2.555  20.902  0.00  0.00    +0.000 A 
ATOM     17  C   UNL     1       2.015   3.364  21.656  0.00  0.00    +0.000 A 
ATOM     18  C   UNL     1       2.576   4.510  21.087  0.00  0.00    +0.000 A 
ENDBRANCH   4  13
ENDBRANCH   2   4
ENDBRANCH   1   2
BRANCH   1  19
ATOM     19  C   UNL     1       1.550   8.318  20.327  0.00  0.00    +0.000 C 
BRANCH  19  20
ATOM     20  C   UNL     1       1.073   9.722  20.673  0.00  0.00    +0.000 C 
BRANCH  20  21
ATOM     21  N   UNL     1       0.799  10.532  19.494  0.00  0.00    +0.000 N 
ATOM     22  H   UNL     1       1.441  10.382  18.719  0.00  0.00    +0.000 HD
BRANCH  21  26
ATOM     23  O   UNL     1      -3.449  12.582  19.945  0.00  0.00    +0.000 OA
ATOM     24  C   UNL     1      -2.680  11.910  19.267  0.00  0.00    +0.000 A 
ATOM     25  C   UNL     1      -1.323  11.597  19.758  0.00  0.00    +0.000 A 
ATOM     26  C   UNL     1      -0.486  10.811  19.051  0.00  0.00    +0.000 A 
ATOM     27  N   UNL     1      -0.898  10.265  17.855  0.00  0.00    +0.000 N 
ATOM     28  C   UNL     1      -2.110  10.624  17.241  0.00  0.00    +0.000 A 
ATOM     29  C   UNL     1      -2.457  10.138  15.978  0.00  0.00    +0.000 A 
ATOM     30  C   UNL     1      -3.695  10.463  15.409  0.00  0.00    +0.000 A 
ATOM     31  C   UNL     1      -4.607  11.260  16.103  0.00  0.00    +0.000 A 
ATOM     32  C   UNL     1      -4.286  11.731  17.373  0.00  0.00    +0.000 A 
ATOM     33  C   UNL     1      -3.047  11.407  17.931  0.00  0.00    +0.000 A 
ATOM     34  H   UNL     1      -0.159   9.924  17.256  0.00  0.00    +0.000 HD
ENDBRANCH  21  26
ENDBRANCH  20  21
ENDBRANCH  19  20
ENDBRANCH   1  19
TORSDOF 8
ENDMDL
MODEL 7
REMARK VINA RESULT:      -8.3      5.347      8.483
REMARK  Name = 
REMARK  8 active torsions:
REMARK  status: ('A' for Active; 'I' for Inactive)
REMARK    1  A    between atoms: C_4  and  N_5
REMARK    2  A    between atoms: N_5  and  C_6
REMARK    3  A    between atoms: C_6  and  C_7
REMARK    4  A    between atoms: C_7  and  C_8
REMARK    5  A    between atoms: C_8  and  N_9
REMARK    6  A    between atoms: N_9  and  C_10
REMARK    7  A    between atoms: C_10  and  C_11
REMARK    8  A    between atoms: C_10  and  C_17
REMARK                            x       y       z     vdW  Elec       q    Type
REMARK                         _______ _______ _______ _____ _____    ______ ____
ROOT
ATOM      1  C   UNL     1       2.379   8.702  17.395  0.00  0.00    +0.000 C 
ENDROOT
BRANCH   1   2
ATOM      2  N   UNL     1       3.023   7.761  18.307  0.00  0.00    +0.000 NA
ATOM      3  H   UNL     1       2.475   7.716  19.167  0.00  0.00    +0.000 HD
BRANCH   2   4
ATOM      4  C   UNL     1       3.087   6.392  17.749  0.00  0.00    +0.000 C 
BRANCH   4   5
ATOM      5  C   UNL     1       2.586   5.370  18.774  0.00  0.00    +0.000 A 
ATOM      6  C   UNL     1       2.870   5.544  20.137  0.00  0.00    +0.000 A 
ATOM      7  C   UNL     1       2.410   4.625  21.083  0.00  0.00    +0.000 A 
ATOM      8  C   UNL     1       1.655   3.519  20.684  0.00  0.00    +0.000 A 
ATOM      9 CL   UNL     1       1.128   2.418  21.908  0.00  0.00    +0.000 Cl
ATOM     10  C   UNL     1       1.350   3.337  19.332  0.00  0.00    +0.000 A 
ATOM     11 CL   UNL     1       0.427   1.996  18.758  0.00  0.00    +0.000 Cl
ATOM     12  C   UNL     1       1.807   4.262  18.390  0.00  0.00    +0.000 A 
ENDBRANCH   4   5
BRANCH   4  13
ATOM     13  C   UNL     1       4.472   6.016  17.225  0.00  0.00    +0.000 A 
ATOM     14  C   UNL     1       4.689   4.814  16.531  0.00  0.00    +0.000 A 
ATOM     15  C   UNL     1       5.954   4.494  16.033  0.00  0.00    +0.000 A 
ATOM     16  C   UNL     1       7.023   5.362  16.234  0.00  0.00    +0.000 A 
ATOM     17  C   UNL     1       6.832   6.550  16.938  0.00  0.00    +0.000 A 
ATOM     18  C   UNL     1       5.565   6.876  17.429  0.00  0.00    +0.000 A 
ENDBRANCH   4  13
ENDBRANCH   2   4
ENDBRANCH   1   2
BRANCH   1  19
ATOM     19  C   UNL     1       1.134   9.320  18.040  0.00  0.00    +0.000 C 
BRANCH  19  20
ATOM     20  C   UNL     1       1.497  10.726  18.496  0.00  0.00    +0.000 C 
BRANCH  20  21
ATOM     21  N   UNL     1       0.332  11.587  18.655  0.00  0.00    +0.000 N 
ATOM     22  H   UNL     1      -0.256  11.661  17.829  0.00  0.00    +0.000 HD
BRANCH  21  26
ATOM     23  O   UNL     1      -0.297  10.769  23.280  0.00  0.00    +0.000 OA
ATOM     24  C   UNL     1      -0.724  11.251  22.237  0.00  0.00    +0.000 A 
ATOM     25  C   UNL     1       0.066  11.167  20.992  0.00  0.00    +0.000 A 
ATOM     26  C   UNL     1      -0.413  11.640  19.825  0.00  0.00    +0.000 A 
ATOM     27  N   UNL     1      -1.673  12.196  19.771  0.00  0.00    +0.000 N 
ATOM     28  C   UNL     1      -2.433  12.451  20.925  0.00  0.00    +0.000 A 
ATOM     29  C   UNL     1      -3.662  13.112  20.855  0.00  0.00    +0.000 A 
ATOM     30  C   UNL     1      -4.430  13.306  22.010  0.00  0.00    +0.000 A 
ATOM     31  C   UNL     1      -3.989  12.823  23.243  0.00  0.00    +0.000 A 
ATOM     32  C   UNL     1      -2.780  12.140  23.325  0.00  0.00    +0.000 A 
ATOM     33  C   UNL     1      -2.016  11.956  22.169  0.00  0.00    +0.000 A 
ATOM     34  H   UNL     1      -1.862  12.765  18.957  0.00  0.00    +0.000 HD
ENDBRANCH  21  26
ENDBRANCH  20  21
ENDBRANCH  19  20
ENDBRANCH   1  19
TORSDOF 8
ENDMDL
MODEL 8
REMARK VINA RESULT:      -8.3      5.464      8.681
REMARK  Name = 
REMARK  8 active torsions:
REMARK  status: ('A' for Active; 'I' for Inactive)
REMARK    1  A    between atoms: C_4  and  N_5
REMARK    2  A    between atoms: N_5  and  C_6
REMARK    3  A    between atoms: C_6  and  C_7
REMARK    4  A    between atoms: C_7  and  C_8
REMARK    5  A    between atoms: C_8  and  N_9
REMARK    6  A    between atoms: N_9  and  C_10
REMARK    7  A    between atoms: C_10  and  C_11
REMARK    8  A    between atoms: C_10  and  C_17
REMARK                            x       y       z     vdW  Elec       q    Type
REMARK                         _______ _______ _______ _____ _____    ______ ____
ROOT
ATOM      1  C   UNL     1       1.903  11.014  18.276  0.00  0.00    +0.000 C 
ENDROOT
BRANCH   1   2
ATOM      2  N   UNL     1       0.598  11.602  18.558  0.00  0.00    +0.000 NA
ATOM      3  H   UNL     1       0.249  12.042  17.706  0.00  0.00    +0.000 HD
BRANCH   2   4
ATOM      4  C   UNL     1      -0.397  10.590  18.977  0.00  0.00    +0.000 C 
BRANCH   4   5
ATOM      5  C   UNL     1      -1.783  10.940  18.427  0.00  0.00    +0.000 A 
ATOM      6  C   UNL     1      -2.683  11.680  19.208  0.00  0.00    +0.000 A 
ATOM      7  C   UNL     1      -3.946  12.014  18.714  0.00  0.00    +0.000 A 
ATOM      8  C   UNL     1      -4.329  11.619  17.429  0.00  0.00    +0.000 A 
ATOM      9 CL   UNL     1      -5.910  12.059  16.887  0.00  0.00    +0.000 Cl
ATOM     10  C   UNL     1      -3.439  10.894  16.631  0.00  0.00    +0.000 A 
ATOM     11 CL   UNL     1      -3.838  10.366  15.036  0.00  0.00    +0.000 Cl
ATOM     12  C   UNL     1      -2.175  10.567  17.127  0.00  0.00    +0.000 A 
ENDBRANCH   4   5
BRANCH   4  13
ATOM     13  C   UNL     1      -0.440  10.373  20.488  0.00  0.00    +0.000 A 
ATOM     14  C   UNL     1      -0.620  11.446  21.376  0.00  0.00    +0.000 A 
ATOM     15  C   UNL     1      -0.685  11.232  22.754  0.00  0.00    +0.000 A 
ATOM     16  C   UNL     1      -0.556   9.944  23.267  0.00  0.00    +0.000 A 
ATOM     17  C   UNL     1      -0.357   8.868  22.403  0.00  0.00    +0.000 A 
ATOM     18  C   UNL     1      -0.300   9.080  21.023  0.00  0.00    +0.000 A 
ENDBRANCH   4  13
ENDBRANCH   2   4
ENDBRANCH   1   2
BRANCH   1  19
ATOM     19  C   UNL     1       1.751   9.651  17.593  0.00  0.00    +0.000 C 
BRANCH  19  20
ATOM     20  C   UNL     1       2.446   8.615  18.464  0.00  0.00    +0.000 C 
BRANCH  20  21
ATOM     21  N   UNL     1       3.356   7.763  17.710  0.00  0.00    +0.000 N 
ATOM     22  H   UNL     1       4.229   8.209  17.440  0.00  0.00    +0.000 HD
BRANCH  21  26
ATOM     23  O   UNL     1       6.017   4.028  18.905  0.00  0.00    +0.000 OA
ATOM     24  C   UNL     1       4.908   4.481  18.647  0.00  0.00    +0.000 A 
ATOM     25  C   UNL     1       4.735   5.912  18.330  0.00  0.00    +0.000 A 
ATOM     26  C   UNL     1       3.532   6.414  17.987  0.00  0.00    +0.000 A 
ATOM     27  N   UNL     1       2.436   5.583  17.907  0.00  0.00    +0.000 N 
ATOM     28  C   UNL     1       2.473   4.244  18.332  0.00  0.00    +0.000 A 
ATOM     29  C   UNL     1       1.322   3.452  18.341  0.00  0.00    +0.000 A 
ATOM     30  C   UNL     1       1.392   2.104  18.714  0.00  0.00    +0.000 A 
ATOM     31  C   UNL     1       2.615   1.528  19.063  0.00  0.00    +0.000 A 
ATOM     32  C   UNL     1       3.774   2.297  19.035  0.00  0.00    +0.000 A 
ATOM     33  C   UNL     1       3.695   3.643  18.667  0.00  0.00    +0.000 A 
ATOM     34  H   UNL     1       1.537   6.047  17.917  0.00  0.00    +0.000 HD
ENDBRANCH  21  26
ENDBRANCH  20  21
ENDBRANCH  19  20
ENDBRANCH   1  19
TORSDOF 8
ENDMDL
MODEL 9
REMARK VINA RESULT:      -8.3      5.321      8.935
REMARK  Name = 
REMARK  8 active torsions:
REMARK  status: ('A' for Active; 'I' for Inactive)
REMARK    1  A    between atoms: C_4  and  N_5
REMARK    2  A    between atoms: N_5  and  C_6
REMARK    3  A    between atoms: C_6  and  C_7
REMARK    4  A    between atoms: C_7  and  C_8
REMARK    5  A    between atoms: C_8  and  N_9
REMARK    6  A    between atoms: N_9  and  C_10
REMARK    7  A    between atoms: C_10  and  C_11
REMARK    8  A    between atoms: C_10  and  C_17
REMARK                            x       y       z     vdW  Elec       q    Type
REMARK                         _______ _______ _______ _____ _____    ______ ____
ROOT
ATOM      1  C   UNL     1       1.680   8.330  17.812  0.00  0.00    +0.000 C 
ENDROOT
BRANCH   1   2
ATOM      2  N   UNL     1       3.060   7.867  17.915  0.00  0.00    +0.000 NA
ATOM      3  H   UNL     1       3.346   7.915  18.894  0.00  0.00    +0.000 HD
BRANCH   2   4
ATOM      4  C   UNL     1       3.219   6.464  17.474  0.00  0.00    +0.000 C 
BRANCH   4   5
ATOM      5  C   UNL     1       2.683   5.503  18.539  0.00  0.00    +0.000 A 
ATOM      6  C   UNL     1       2.896   5.771  19.900  0.00  0.00    +0.000 A 
ATOM      7  C   UNL     1       2.404   4.907  20.881  0.00  0.00    +0.000 A 
ATOM      8  C   UNL     1       1.687   3.763  20.519  0.00  0.00    +0.000 A 
ATOM      9 CL   UNL     1       1.117   2.734  21.786  0.00  0.00    +0.000 Cl
ATOM     10  C   UNL     1       1.454   3.487  19.169  0.00  0.00    +0.000 A 
ATOM     11 CL   UNL     1       0.583   2.093  18.641  0.00  0.00    +0.000 Cl
ATOM     12  C   UNL     1       1.943   4.356  18.191  0.00  0.00    +0.000 A 
ENDBRANCH   4   5
BRANCH   4  13
ATOM     13  C   UNL     1       4.652   6.111  17.080  0.00  0.00    +0.000 A 
ATOM     14  C   UNL     1       5.733   6.930  17.447  0.00  0.00    +0.000 A 
ATOM     15  C   UNL     1       7.042   6.584  17.104  0.00  0.00    +0.000 A 
ATOM     16  C   UNL     1       7.288   5.423  16.378  0.00  0.00    +0.000 A 
ATOM     17  C   UNL     1       6.227   4.608  15.987  0.00  0.00    +0.000 A 
ATOM     18  C   UNL     1       4.917   4.948  16.337  0.00  0.00    +0.000 A 
ENDBRANCH   4  13
ENDBRANCH   2   4
ENDBRANCH   1   2
BRANCH   1  19
ATOM     19  C   UNL     1       1.295   9.172  19.033  0.00  0.00    +0.000 C 
BRANCH  19  20
ATOM     20  C   UNL     1       1.803  10.588  18.799  0.00  0.00    +0.000 C 
BRANCH  20  21
ATOM     21  N   UNL     1       0.844  11.422  18.089  0.00  0.00    +0.000 N 
ATOM     22  H   UNL     1       0.917  11.383  17.075  0.00  0.00    +0.000 HD
BRANCH  21  26
ATOM     23  O   UNL     1      -2.437  12.554  21.315  0.00  0.00    +0.000 OA
ATOM     24  C   UNL     1      -2.175  12.210  20.168  0.00  0.00    +0.000 A 
ATOM     25  C   UNL     1      -0.774  12.017  19.743  0.00  0.00    +0.000 A 
ATOM     26  C   UNL     1      -0.470  11.584  18.503  0.00  0.00    +0.000 A 
ATOM     27  N   UNL     1      -1.478  11.290  17.610  0.00  0.00    +0.000 N 
ATOM     28  C   UNL     1      -2.827  11.582  17.874  0.00  0.00    +0.000 A 
ATOM     29  C   UNL     1      -3.817  11.373  16.911  0.00  0.00    +0.000 A 
ATOM     30  C   UNL     1      -5.163  11.617  17.213  0.00  0.00    +0.000 A 
ATOM     31  C   UNL     1      -5.535  12.052  18.486  0.00  0.00    +0.000 A 
ATOM     32  C   UNL     1      -4.563  12.240  19.464  0.00  0.00    +0.000 A 
ATOM     33  C   UNL     1      -3.222  12.000  19.152  0.00  0.00    +0.000 A 
ATOM     34  H   UNL     1      -1.197  11.238  16.640  0.00  0.00    +0.000 HD
ENDBRANCH  21  26
ENDBRANCH  20  21
ENDBRANCH  19  20
ENDBRANCH   1  19
TORSDOF 8
ENDMDL
