MODEL 1
REMARK VINA RESULT:      -6.9      0.000      0.000
REMARK  Name = 
REMARK  3 active torsions:
REMARK  status: ('A' for Active; 'I' for Inactive)
REMARK    1  A    between atoms: C_1  and  C_2
REMARK    2  A    between atoms: N_3  and  C_4
REMARK    3  A    between atoms: N_10  and  C_11
REMARK                            x       y       z     vdW  Elec       q    Type
REMARK                         _______ _______ _______ _____ _____    ______ ____
ROOT
ATOM      1  C   UNL     1       5.061   6.697  15.973  0.00  0.00    +0.000 C 
ATOM      2  C   UNL     1       4.966   5.253  16.436  0.00  0.00    +0.000 C 
ATOM      3  N   UNL     1       5.398   4.227  15.756  0.00  0.00    +0.000 NA
ATOM      4  N   UNL     1       4.439   5.108  17.708  0.00  0.00    +0.000 N 
ATOM      5  H   UNL     1       4.344   5.951  18.260  0.00  0.00    +0.000 HD
ENDROOT
BRANCH   3   6
ATOM      6  C   UNL     1       6.022   4.296  14.502  0.00  0.00    +0.000 A 
ATOM      7  C   UNL     1       7.209   4.997  14.256  0.00  0.00    +0.000 A 
ATOM      8  C   UNL     1       7.780   5.029  12.982  0.00  0.00    +0.000 A 
ATOM      9  C   UNL     1       7.212   4.293  11.947  0.00  0.00    +0.000 A 
ATOM     10  C   UNL     1       6.079   3.520  12.192  0.00  0.00    +0.000 A 
ATOM     11  C   UNL     1       5.490   3.528  13.460  0.00  0.00    +0.000 A 
ENDBRANCH   3   6
BRANCH   4  12
ATOM     12  C   UNL     1       3.534   4.113  18.126  0.00  0.00    +0.000 A 
ATOM     13  C   UNL     1       2.167   4.308  17.870  0.00  0.00    +0.000 A 
ATOM     14  C   UNL     1       1.221   3.358  18.253  0.00  0.00    +0.000 A 
ATOM     15  C   UNL     1       1.628   2.191  18.893  0.00  0.00    +0.000 A 
ATOM     16  C   UNL     1       2.980   1.987  19.162  0.00  0.00    +0.000 A 
ATOM     17  C   UNL     1       3.924   2.948  18.792  0.00  0.00    +0.000 A 
ENDBRANCH   4  12
TORSDOF 2
ENDMDL
MODEL 2
REMARK VINA RESULT:      -6.9      0.126      1.206
REMARK  Name = 
REMARK  3 active torsions:
REMARK  status: ('A' for Active; 'I' for Inactive)
REMARK    1  A    between atoms: C_1  and  C_2
REMARK    2  A    between atoms: N_3  and  C_4
REMARK    3  A    between atoms: N_10  and  C_11
REMARK                            x       y       z     vdW  Elec       q    Type
REMARK                         _______ _______ _______ _____ _____    ______ ____
ROOT
ATOM      1  C   UNL     1       5.137   6.674  15.961  0.00  0.00    +0.000 C 
ATOM      2  C   UNL     1       4.971   5.221  16.375  0.00  0.00    +0.000 C 
ATOM      3  N   UNL     1       5.367   4.199  15.668  0.00  0.00    +0.000 NA
ATOM      4  N   UNL     1       4.420   5.060  17.635  0.00  0.00    +0.000 N 
ATOM      5  H   UNL     1       4.353   5.888  18.212  0.00  0.00    +0.000 HD
ENDROOT
BRANCH   3   6
ATOM      6  C   UNL     1       6.013   4.280  14.426  0.00  0.00    +0.000 A 
ATOM      7  C   UNL     1       7.200   4.989  14.205  0.00  0.00    +0.000 A 
ATOM      8  C   UNL     1       7.792   5.033  12.941  0.00  0.00    +0.000 A 
ATOM      9  C   UNL     1       7.246   4.301  11.892  0.00  0.00    +0.000 A 
ATOM     10  C   UNL     1       6.114   3.521  12.112  0.00  0.00    +0.000 A 
ATOM     11  C   UNL     1       5.502   3.516  13.369  0.00  0.00    +0.000 A 
ENDBRANCH   3   6
BRANCH   4  12
ATOM     12  C   UNL     1       3.465   4.094  18.008  0.00  0.00    +0.000 A 
ATOM     13  C   UNL     1       3.922   2.874  18.531  0.00  0.00    +0.000 A 
ATOM     14  C   UNL     1       3.028   1.879  18.924  0.00  0.00    +0.000 A 
ATOM     15  C   UNL     1       1.657   2.091  18.808  0.00  0.00    +0.000 A 
ATOM     16  C   UNL     1       1.187   3.294  18.284  0.00  0.00    +0.000 A 
ATOM     17  C   UNL     1       2.086   4.283  17.874  0.00  0.00    +0.000 A 
ENDBRANCH   4  12
TORSDOF 2
ENDMDL
MODEL 3
REMARK VINA RESULT:      -6.8      0.105      1.203
REMARK  Name = 
REMARK  3 active torsions:
REMARK  status: ('A' for Active; 'I' for Inactive)
REMARK    1  A    between atoms: C_1  and  C_2
REMARK    2  A    between atoms: N_3  and  C_4
REMARK    3  A    between atoms: N_10  and  C_11
REMARK                            x       y       z     vdW  Elec       q    Type
REMARK                         _______ _______ _______ _____ _____    ______ ____
ROOT
ATOM      1  C   UNL     1       5.028   6.615  15.860  0.00  0.00    +0.000 C 
ATOM      2  C   UNL     1       4.938   5.192  16.386  0.00  0.00    +0.000 C 
ATOM      3  N   UNL     1       5.364   4.137  15.747  0.00  0.00    +0.000 NA
ATOM      4  N   UNL     1       4.424   5.103  17.669  0.00  0.00    +0.000 N 
ATOM      5  H   UNL     1       4.334   5.969  18.184  0.00  0.00    +0.000 HD
ENDROOT
BRANCH   3   6
ATOM      6  C   UNL     1       5.976   4.152  14.485  0.00  0.00    +0.000 A 
ATOM      7  C   UNL     1       5.438   3.539  13.347  0.00  0.00    +0.000 A 
ATOM      8  C   UNL     1       6.099   3.588  12.118  0.00  0.00    +0.000 A 
ATOM      9  C   UNL     1       7.274   4.321  11.990  0.00  0.00    +0.000 A 
ATOM     10  C   UNL     1       7.780   5.010  13.089  0.00  0.00    +0.000 A 
ATOM     11  C   UNL     1       7.135   4.920  14.326  0.00  0.00    +0.000 A 
ENDBRANCH   3   6
BRANCH   4  12
ATOM     12  C   UNL     1       3.524   4.127  18.138  0.00  0.00    +0.000 A 
ATOM     13  C   UNL     1       2.158   4.291  17.855  0.00  0.00    +0.000 A 
ATOM     14  C   UNL     1       1.217   3.357  18.287  0.00  0.00    +0.000 A 
ATOM     15  C   UNL     1       1.627   2.237  19.004  0.00  0.00    +0.000 A 
ATOM     16  C   UNL     1       2.978   2.064  19.300  0.00  0.00    +0.000 A 
ATOM     17  C   UNL     1       3.918   3.010  18.881  0.00  0.00    +0.000 A 
ENDBRANCH   4  12
TORSDOF 2
ENDMDL
MODEL 4
REMARK VINA RESULT:      -6.8      3.077      6.903
REMARK  Name = 
REMARK  3 active torsions:
REMARK  status: ('A' for Active; 'I' for Inactive)
REMARK    1  A    between atoms: C_1  and  C_2
REMARK    2  A    between atoms: N_3  and  C_4
REMARK    3  A    between atoms: N_10  and  C_11
REMARK                            x       y       z     vdW  Elec       q    Type
REMARK                         _______ _______ _______ _____ _____    ______ ____
ROOT
ATOM      1  C   UNL     1       4.089   3.279  17.034  0.00  0.00    +0.000 C 
ATOM      2  C   UNL     1       4.962   3.994  18.052  0.00  0.00    +0.000 C 
ATOM      3  N   UNL     1       4.627   4.208  19.295  0.00  0.00    +0.000 NA
ATOM      4  N   UNL     1       6.211   4.345  17.569  0.00  0.00    +0.000 N 
ATOM      5  H   UNL     1       6.483   3.945  16.680  0.00  0.00    +0.000 HD
ENDROOT
BRANCH   3   6
ATOM      6  C   UNL     1       3.419   3.806  19.885  0.00  0.00    +0.000 A 
ATOM      7  C   UNL     1       3.252   2.607  20.589  0.00  0.00    +0.000 A 
ATOM      8  C   UNL     1       2.021   2.264  21.151  0.00  0.00    +0.000 A 
ATOM      9  C   UNL     1       0.955   3.154  21.085  0.00  0.00    +0.000 A 
ATOM     10  C   UNL     1       1.125   4.389  20.465  0.00  0.00    +0.000 A 
ATOM     11  C   UNL     1       2.348   4.707  19.866  0.00  0.00    +0.000 A 
ENDBRANCH   3   6
BRANCH   4  12
ATOM     12  C   UNL     1       6.893   5.550  17.823  0.00  0.00    +0.000 A 
ATOM     13  C   UNL     1       6.660   6.640  16.969  0.00  0.00    +0.000 A 
ATOM     14  C   UNL     1       7.300   7.862  17.170  0.00  0.00    +0.000 A 
ATOM     15  C   UNL     1       8.180   8.018  18.237  0.00  0.00    +0.000 A 
ATOM     16  C   UNL     1       8.428   6.944  19.089  0.00  0.00    +0.000 A 
ATOM     17  C   UNL     1       7.799   5.715  18.875  0.00  0.00    +0.000 A 
ENDBRANCH   4  12
TORSDOF 2
ENDMDL
MODEL 5
REMARK VINA RESULT:      -6.8      0.130      1.702
REMARK  Name = 
REMARK  3 active torsions:
REMARK  status: ('A' for Active; 'I' for Inactive)
REMARK    1  A    between atoms: C_1  and  C_2
REMARK    2  A    between atoms: N_3  and  C_4
REMARK    3  A    between atoms: N_10  and  C_11
REMARK                            x       y       z     vdW  Elec       q    Type
REMARK                         _______ _______ _______ _____ _____    ______ ____
ROOT
ATOM      1  C   UNL     1       5.052   6.635  15.872  0.00  0.00    +0.000 C 
ATOM      2  C   UNL     1       4.919   5.210  16.382  0.00  0.00    +0.000 C 
ATOM      3  N   UNL     1       5.328   4.151  15.739  0.00  0.00    +0.000 NA
ATOM      4  N   UNL     1       4.386   5.122  17.657  0.00  0.00    +0.000 N 
ATOM      5  H   UNL     1       4.310   5.985  18.179  0.00  0.00    +0.000 HD
ENDROOT
BRANCH   3   6
ATOM      6  C   UNL     1       5.957   4.163  14.485  0.00  0.00    +0.000 A 
ATOM      7  C   UNL     1       5.437   3.543  13.342  0.00  0.00    +0.000 A 
ATOM      8  C   UNL     1       6.115   3.589  12.122  0.00  0.00    +0.000 A 
ATOM      9  C   UNL     1       7.289   4.326  12.007  0.00  0.00    +0.000 A 
ATOM     10  C   UNL     1       7.778   5.021  13.110  0.00  0.00    +0.000 A 
ATOM     11  C   UNL     1       7.116   4.934  14.339  0.00  0.00    +0.000 A 
ENDBRANCH   3   6
BRANCH   4  12
ATOM     12  C   UNL     1       3.455   4.164  18.105  0.00  0.00    +0.000 A 
ATOM     13  C   UNL     1       3.929   3.074  18.851  0.00  0.00    +0.000 A 
ATOM     14  C   UNL     1       3.058   2.095  19.328  0.00  0.00    +0.000 A 
ATOM     15  C   UNL     1       1.694   2.195  19.073  0.00  0.00    +0.000 A 
ATOM     16  C   UNL     1       1.208   3.267  18.327  0.00  0.00    +0.000 A 
ATOM     17  C   UNL     1       2.086   4.238  17.835  0.00  0.00    +0.000 A 
ENDBRANCH   4  12
TORSDOF 2
ENDMDL
MODEL 6
REMARK VINA RESULT:      -6.7      3.097      6.899
REMARK  Name = 
REMARK  3 active torsions:
REMARK  status: ('A' for Active; 'I' for Inactive)
REMARK    1  A    between atoms: C_1  and  C_2
REMARK    2  A    between atoms: N_3  and  C_4
REMARK    3  A    between atoms: N_10  and  C_11
REMARK                            x       y       z     vdW  Elec       q    Type
REMARK                         _______ _______ _______ _____ _____    ______ ____
ROOT
ATOM      1  C   UNL     1       3.924   3.483  17.038  0.00  0.00    +0.000 C 
ATOM      2  C   UNL     1       4.851   4.125  18.057  0.00  0.00    +0.000 C 
ATOM      3  N   UNL     1       4.556   4.310  19.315  0.00  0.00    +0.000 NA
ATOM      4  N   UNL     1       6.102   4.439  17.553  0.00  0.00    +0.000 N 
ATOM      5  H   UNL     1       6.335   4.059  16.645  0.00  0.00    +0.000 HD
ENDROOT
BRANCH   3   6
ATOM      6  C   UNL     1       3.347   3.940  19.921  0.00  0.00    +0.000 A 
ATOM      7  C   UNL     1       2.166   4.687  19.833  0.00  0.00    +0.000 A 
ATOM      8  C   UNL     1       0.994   4.264  20.464  0.00  0.00    +0.000 A 
ATOM      9  C   UNL     1       0.964   3.043  21.129  0.00  0.00    +0.000 A 
ATOM     10  C   UNL     1       2.104   2.244  21.155  0.00  0.00    +0.000 A 
ATOM     11  C   UNL     1       3.286   2.695  20.558  0.00  0.00    +0.000 A 
ENDBRANCH   3   6
BRANCH   4  12
ATOM     12  C   UNL     1       6.842   5.605  17.830  0.00  0.00    +0.000 A 
ATOM     13  C   UNL     1       6.661   6.721  16.997  0.00  0.00    +0.000 A 
ATOM     14  C   UNL     1       7.360   7.907  17.221  0.00  0.00    +0.000 A 
ATOM     15  C   UNL     1       8.247   7.999  18.290  0.00  0.00    +0.000 A 
ATOM     16  C   UNL     1       8.443   6.898  19.121  0.00  0.00    +0.000 A 
ATOM     17  C   UNL     1       7.755   5.705  18.884  0.00  0.00    +0.000 A 
ENDBRANCH   4  12
TORSDOF 2
ENDMDL
MODEL 7
REMARK VINA RESULT:      -6.7      3.063      6.568
REMARK  Name = 
REMARK  3 active torsions:
REMARK  status: ('A' for Active; 'I' for Inactive)
REMARK    1  A    between atoms: C_1  and  C_2
REMARK    2  A    between atoms: N_3  and  C_4
REMARK    3  A    between atoms: N_10  and  C_11
REMARK                            x       y       z     vdW  Elec       q    Type
REMARK                         _______ _______ _______ _____ _____    ______ ____
ROOT
ATOM      1  C   UNL     1       1.464   4.781  17.899  0.00  0.00    +0.000 C 
ATOM      2  C   UNL     1       2.911   5.235  18.011  0.00  0.00    +0.000 C 
ATOM      3  N   UNL     1       3.288   6.420  18.405  0.00  0.00    +0.000 NA
ATOM      4  N   UNL     1       3.831   4.239  17.729  0.00  0.00    +0.000 N 
ATOM      5  H   UNL     1       3.472   3.295  17.659  0.00  0.00    +0.000 HD
ENDROOT
BRANCH   3   6
ATOM      6  C   UNL     1       2.422   7.453  18.792  0.00  0.00    +0.000 A 
ATOM      7  C   UNL     1       1.970   7.646  20.103  0.00  0.00    +0.000 A 
ATOM      8  C   UNL     1       1.106   8.694  20.424  0.00  0.00    +0.000 A 
ATOM      9  C   UNL     1       0.741   9.617  19.449  0.00  0.00    +0.000 A 
ATOM     10  C   UNL     1       1.250   9.494  18.158  0.00  0.00    +0.000 A 
ATOM     11  C   UNL     1       2.080   8.416  17.835  0.00  0.00    +0.000 A 
ENDBRANCH   3   6
BRANCH   4  12
ATOM     12  C   UNL     1       5.026   4.392  17.000  0.00  0.00    +0.000 A 
ATOM     13  C   UNL     1       4.955   4.387  15.598  0.00  0.00    +0.000 A 
ATOM     14  C   UNL     1       6.102   4.540  14.819  0.00  0.00    +0.000 A 
ATOM     15  C   UNL     1       7.340   4.709  15.431  0.00  0.00    +0.000 A 
ATOM     16  C   UNL     1       7.428   4.709  16.822  0.00  0.00    +0.000 A 
ATOM     17  C   UNL     1       6.280   4.538  17.600  0.00  0.00    +0.000 A 
ENDBRANCH   4  12
TORSDOF 2
ENDMDL
MODEL 8
REMARK VINA RESULT:      -6.7      1.806      2.313
REMARK  Name = 
REMARK  3 active torsions:
REMARK  status: ('A' for Active; 'I' for Inactive)
REMARK    1  A    between atoms: C_1  and  C_2
REMARK    2  A    between atoms: N_3  and  C_4
REMARK    3  A    between atoms: N_10  and  C_11
REMARK                            x       y       z     vdW  Elec       q    Type
REMARK                         _______ _______ _______ _____ _____    ______ ____
ROOT
ATOM      1  C   UNL     1       3.784   7.217  17.434  0.00  0.00    +0.000 C 
ATOM      2  C   UNL     1       3.929   5.919  18.211  0.00  0.00    +0.000 C 
ATOM      3  N   UNL     1       4.676   4.914  17.844  0.00  0.00    +0.000 NA
ATOM      4  N   UNL     1       3.249   5.913  19.417  0.00  0.00    +0.000 N 
ATOM      5  H   UNL     1       2.887   6.801  19.740  0.00  0.00    +0.000 HD
ENDROOT
BRANCH   3   6
ATOM      6  C   UNL     1       5.463   4.878  16.684  0.00  0.00    +0.000 A 
ATOM      7  C   UNL     1       6.818   5.228  16.646  0.00  0.00    +0.000 A 
ATOM      8  C   UNL     1       7.547   5.172  15.456  0.00  0.00    +0.000 A 
ATOM      9  C   UNL     1       6.950   4.687  14.298  0.00  0.00    +0.000 A 
ATOM     10  C   UNL     1       5.628   4.252  14.334  0.00  0.00    +0.000 A 
ATOM     11  C   UNL     1       4.892   4.352  15.519  0.00  0.00    +0.000 A 
ENDBRANCH   3   6
BRANCH   4  12
ATOM     12  C   UNL     1       2.524   4.833  19.958  0.00  0.00    +0.000 A 
ATOM     13  C   UNL     1       1.577   4.193  19.142  0.00  0.00    +0.000 A 
ATOM     14  C   UNL     1       0.831   3.114  19.616  0.00  0.00    +0.000 A 
ATOM     15  C   UNL     1       1.026   2.652  20.914  0.00  0.00    +0.000 A 
ATOM     16  C   UNL     1       1.956   3.282  21.739  0.00  0.00    +0.000 A 
ATOM     17  C   UNL     1       2.690   4.373  21.267  0.00  0.00    +0.000 A 
ENDBRANCH   4  12
TORSDOF 2
ENDMDL
MODEL 9
REMARK VINA RESULT:      -6.7      3.167      6.650
REMARK  Name = 
REMARK  3 active torsions:
REMARK  status: ('A' for Active; 'I' for Inactive)
REMARK    1  A    between atoms: C_1  and  C_2
REMARK    2  A    between atoms: N_3  and  C_4
REMARK    3  A    between atoms: N_10  and  C_11
REMARK                            x       y       z     vdW  Elec       q    Type
REMARK                         _______ _______ _______ _____ _____    ______ ____
ROOT
ATOM      1  C   UNL     1       1.579   4.688  18.691  0.00  0.00    +0.000 C 
ATOM      2  C   UNL     1       2.982   5.247  18.516  0.00  0.00    +0.000 C 
ATOM      3  N   UNL     1       3.294   6.510  18.615  0.00  0.00    +0.000 NA
ATOM      4  N   UNL     1       3.948   4.276  18.314  0.00  0.00    +0.000 N 
ATOM      5  H   UNL     1       3.671   3.317  18.480  0.00  0.00    +0.000 HD
ENDROOT
BRANCH   3   6
ATOM      6  C   UNL     1       2.390   7.543  18.904  0.00  0.00    +0.000 A 
ATOM      7  C   UNL     1       1.916   7.831  20.190  0.00  0.00    +0.000 A 
ATOM      8  C   UNL     1       1.014   8.874  20.412  0.00  0.00    +0.000 A 
ATOM      9  C   UNL     1       0.631   9.697  19.358  0.00  0.00    +0.000 A 
ATOM     10  C   UNL     1       1.159   9.481  18.087  0.00  0.00    +0.000 A 
ATOM     11  C   UNL     1       2.028   8.408  17.866  0.00  0.00    +0.000 A 
ENDBRANCH   3   6
BRANCH   4  12
ATOM     12  C   UNL     1       5.030   4.353  17.415  0.00  0.00    +0.000 A 
ATOM     13  C   UNL     1       6.315   4.566  17.938  0.00  0.00    +0.000 A 
ATOM     14  C   UNL     1       7.428   4.646  17.102  0.00  0.00    +0.000 A 
ATOM     15  C   UNL     1       7.274   4.505  15.725  0.00  0.00    +0.000 A 
ATOM     16  C   UNL     1       6.004   4.301  15.190  0.00  0.00    +0.000 A 
ATOM     17  C   UNL     1       4.888   4.239  16.030  0.00  0.00    +0.000 A 
ENDBRANCH   4  12
TORSDOF 2
ENDMDL
