MODEL 1
REMARK VINA RESULT:      -8.9      0.000      0.000
REMARK  Name = 
REMARK  8 active torsions:
REMARK  status: ('A' for Active; 'I' for Inactive)
REMARK    1  A    between atoms: C_1  and  N_2
REMARK    2  A    between atoms: N_2  and  C_24
REMARK    3  A    between atoms: C_3  and  C_5
REMARK    4  A    between atoms: C_5  and  O_6
REMARK    5  A    between atoms: O_6  and  C_7
REMARK    6  A    between atoms: C_10  and  N_11
REMARK    7  A    between atoms: C_18  and  C_19
REMARK    8  A    between atoms: C_18  and  C_20
REMARK                            x       y       z     vdW  Elec       q    Type
REMARK                         _______ _______ _______ _____ _____    ______ ____
ROOT
ATOM      1  C   UNL     1       1.226   9.068  19.190  0.00  0.00    +0.000 A 
ATOM      2  C   UNL     1       1.870   8.497  18.104  0.00  0.00    +0.000 A 
ATOM      3  C   UNL     1       2.458   7.235  18.217  0.00  0.00    +0.000 A 
ATOM      4  C   UNL     1       2.586   6.553  19.427  0.00  0.00    +0.000 A 
ATOM      5  C   UNL     1       2.003   7.188  20.538  0.00  0.00    +0.000 A 
ATOM      6  C   UNL     1       1.277   8.386  20.408  0.00  0.00    +0.000 A 
ATOM      7 CL   UNL     1       0.414   8.970  21.792  0.00  0.00    +0.000 Cl
ENDROOT
BRANCH   4   8
ATOM      8  N   UNL     1       3.194   5.272  19.484  0.00  0.00    +0.000 N 
ATOM      9  C   UNL     1       4.537   5.030  19.280  0.00  0.00    +0.000 C 
ATOM     10  N   UNL     1       5.383   6.074  19.065  0.00  0.00    +0.000 N 
ATOM     11  N   UNL     1       5.107   3.868  19.304  0.00  0.00    +0.000 NA
ATOM     12  C   UNL     1       4.349   2.794  19.619  0.00  0.00    +0.000 C 
ATOM     13  N   UNL     1       5.011   1.654  19.902  0.00  0.00    +0.000 N 
ATOM     14  N   UNL     1       3.071   2.785  19.643  0.00  0.00    +0.000 NA
ATOM     15  C   UNL     1       2.357   4.039  19.385  0.00  0.00    +0.000 C 
ATOM     16  C   UNL     1       1.781   3.916  17.962  0.00  0.00    +0.000 C 
ATOM     17  C   UNL     1       1.183   3.949  20.382  0.00  0.00    +0.000 C 
ATOM     18  H   UNL     1       5.237   6.851  19.698  0.00  0.00    +0.000 HD
ATOM     19  H   UNL     1       6.348   5.759  19.089  0.00  0.00    +0.000 HD
ATOM     20  H   UNL     1       5.918   1.607  19.455  0.00  0.00    +0.000 HD
ATOM     21  H   UNL     1       4.434   0.832  19.795  0.00  0.00    +0.000 HD
ENDBRANCH   4   8
BRANCH   1  22
ATOM     22  O   UNL     1       0.482  10.215  19.117  0.00  0.00    +0.000 OA
BRANCH  22  23
ATOM     23  C   UNL     1      -0.402  10.396  18.012  0.00  0.00    +0.000 C 
BRANCH  23  26
ATOM     24  C   UNL     1      -2.606   9.823  16.193  0.00  0.00    +0.000 C 
ATOM     25  N   UNL     1      -2.863  10.585  17.421  0.00  0.00    +0.000 N 
ATOM     26  C   UNL     1      -1.818  10.968  18.292  0.00  0.00    +0.000 C 
ATOM     27  O   UNL     1      -1.978  11.666  19.296  0.00  0.00    +0.000 OA
BRANCH  25  28
ATOM     28  C   UNL     1      -4.253  10.952  17.670  0.00  0.00    +0.000 A 
ATOM     29  C   UNL     1      -5.106  10.212  18.503  0.00  0.00    +0.000 A 
ATOM     30  C   UNL     1      -6.449  10.564  18.699  0.00  0.00    +0.000 A 
ATOM     31  C   UNL     1      -6.978  11.681  18.069  0.00  0.00    +0.000 A 
ATOM     32  C   UNL     1      -6.159  12.450  17.254  0.00  0.00    +0.000 A 
ATOM     33  C   UNL     1      -4.818  12.095  17.062  0.00  0.00    +0.000 A 
ENDBRANCH  25  28
ENDBRANCH  23  26
ENDBRANCH  22  23
ENDBRANCH   1  22
TORSDOF 5
ENDMDL
MODEL 2
REMARK VINA RESULT:      -8.6      3.527      4.080
REMARK  Name = 
REMARK  8 active torsions:
REMARK  status: ('A' for Active; 'I' for Inactive)
REMARK    1  A    between atoms: C_1  and  N_2
REMARK    2  A    between atoms: N_2  and  C_24
REMARK    3  A    between atoms: C_3  and  C_5
REMARK    4  A    between atoms: C_5  and  O_6
REMARK    5  A    between atoms: O_6  and  C_7
REMARK    6  A    between atoms: C_10  and  N_11
REMARK    7  A    between atoms: C_18  and  C_19
REMARK    8  A    between atoms: C_18  and  C_20
REMARK                            x       y       z     vdW  Elec       q    Type
REMARK                         _______ _______ _______ _____ _____    ______ ____
ROOT
ATOM      1  C   UNL     1       1.408   8.674  20.200  0.00  0.00    +0.000 A 
ATOM      2  C   UNL     1       1.330   7.663  21.146  0.00  0.00    +0.000 A 
ATOM      3  C   UNL     1       1.860   6.400  20.874  0.00  0.00    +0.000 A 
ATOM      4  C   UNL     1       2.339   6.023  19.619  0.00  0.00    +0.000 A 
ATOM      5  C   UNL     1       2.331   7.036  18.644  0.00  0.00    +0.000 A 
ATOM      6  C   UNL     1       1.939   8.353  18.949  0.00  0.00    +0.000 A 
ATOM      7 CL   UNL     1       2.173   9.573  17.742  0.00  0.00    +0.000 Cl
ENDROOT
BRANCH   4   8
ATOM      8  N   UNL     1       2.867   4.724  19.398  0.00  0.00    +0.000 N 
ATOM      9  C   UNL     1       4.207   4.439  19.230  0.00  0.00    +0.000 C 
ATOM     10  N   UNL     1       5.125   5.437  19.335  0.00  0.00    +0.000 N 
ATOM     11  N   UNL     1       4.706   3.266  19.004  0.00  0.00    +0.000 NA
ATOM     12  C   UNL     1       3.866   2.207  18.993  0.00  0.00    +0.000 C 
ATOM     13  N   UNL     1       4.437   0.987  19.030  0.00  0.00    +0.000 N 
ATOM     14  N   UNL     1       2.591   2.288  18.930  0.00  0.00    +0.000 NA
ATOM     15  C   UNL     1       1.973   3.618  18.942  0.00  0.00    +0.000 C 
ATOM     16  C   UNL     1       1.510   3.885  17.499  0.00  0.00    +0.000 C 
ATOM     17  C   UNL     1       0.717   3.378  19.807  0.00  0.00    +0.000 C 
ATOM     18  H   UNL     1       4.971   6.047  20.129  0.00  0.00    +0.000 HD
ATOM     19  H   UNL     1       6.065   5.055  19.344  0.00  0.00    +0.000 HD
ATOM     20  H   UNL     1       5.373   0.981  18.646  0.00  0.00    +0.000 HD
ATOM     21  H   UNL     1       3.825   0.261  18.685  0.00  0.00    +0.000 HD
ENDBRANCH   4   8
BRANCH   1  22
ATOM     22  O   UNL     1       1.068   9.976  20.449  0.00  0.00    +0.000 OA
BRANCH  22  23
ATOM     23  C   UNL     1      -0.299  10.300  20.691  0.00  0.00    +0.000 C 
BRANCH  23  26
ATOM     24  C   UNL     1      -1.848  12.758  20.457  0.00  0.00    +0.000 C 
ATOM     25  N   UNL     1      -1.468  12.269  21.787  0.00  0.00    +0.000 N 
ATOM     26  C   UNL     1      -0.643  11.134  21.955  0.00  0.00    +0.000 C 
ATOM     27  O   UNL     1      -0.242  10.729  23.049  0.00  0.00    +0.000 OA
BRANCH  25  28
ATOM     28  C   UNL     1      -1.963  13.042  22.921  0.00  0.00    +0.000 A 
ATOM     29  C   UNL     1      -3.207  12.806  23.528  0.00  0.00    +0.000 A 
ATOM     30  C   UNL     1      -3.677  13.586  24.594  0.00  0.00    +0.000 A 
ATOM     31  C   UNL     1      -2.907  14.625  25.094  0.00  0.00    +0.000 A 
ATOM     32  C   UNL     1      -1.662  14.875  24.533  0.00  0.00    +0.000 A 
ATOM     33  C   UNL     1      -1.196  14.093  23.468  0.00  0.00    +0.000 A 
ENDBRANCH  25  28
ENDBRANCH  23  26
ENDBRANCH  22  23
ENDBRANCH   1  22
TORSDOF 5
ENDMDL
MODEL 3
REMARK VINA RESULT:      -8.6      1.058      1.382
REMARK  Name = 
REMARK  8 active torsions:
REMARK  status: ('A' for Active; 'I' for Inactive)
REMARK    1  A    between atoms: C_1  and  N_2
REMARK    2  A    between atoms: N_2  and  C_24
REMARK    3  A    between atoms: C_3  and  C_5
REMARK    4  A    between atoms: C_5  and  O_6
REMARK    5  A    between atoms: O_6  and  C_7
REMARK    6  A    between atoms: C_10  and  N_11
REMARK    7  A    between atoms: C_18  and  C_19
REMARK    8  A    between atoms: C_18  and  C_20
REMARK                            x       y       z     vdW  Elec       q    Type
REMARK                         _______ _______ _______ _____ _____    ______ ____
ROOT
ATOM      1  C   UNL     1       1.324   8.979  19.357  0.00  0.00    +0.000 A 
ATOM      2  C   UNL     1       1.948   8.433  18.246  0.00  0.00    +0.000 A 
ATOM      3  C   UNL     1       2.503   7.152  18.307  0.00  0.00    +0.000 A 
ATOM      4  C   UNL     1       2.618   6.421  19.490  0.00  0.00    +0.000 A 
ATOM      5  C   UNL     1       2.057   7.028  20.628  0.00  0.00    +0.000 A 
ATOM      6  C   UNL     1       1.363   8.249  20.548  0.00  0.00    +0.000 A 
ATOM      7 CL   UNL     1       0.522   8.801  21.958  0.00  0.00    +0.000 Cl
ENDROOT
BRANCH   4   8
ATOM      8  N   UNL     1       3.192   5.123  19.494  0.00  0.00    +0.000 N 
ATOM      9  C   UNL     1       4.532   4.856  19.304  0.00  0.00    +0.000 C 
ATOM     10  N   UNL     1       5.409   5.886  19.157  0.00  0.00    +0.000 N 
ATOM     11  N   UNL     1       5.072   3.679  19.280  0.00  0.00    +0.000 NA
ATOM     12  C   UNL     1       4.280   2.611  19.526  0.00  0.00    +0.000 C 
ATOM     13  N   UNL     1       4.907   1.442  19.764  0.00  0.00    +0.000 N 
ATOM     14  N   UNL     1       3.002   2.635  19.525  0.00  0.00    +0.000 NA
ATOM     15  C   UNL     1       2.326   3.919  19.316  0.00  0.00    +0.000 C 
ATOM     16  C   UNL     1       1.776   3.882  17.879  0.00  0.00    +0.000 C 
ATOM     17  C   UNL     1       1.130   3.811  20.285  0.00  0.00    +0.000 C 
ATOM     18  H   UNL     1       5.269   6.634  19.826  0.00  0.00    +0.000 HD
ATOM     19  H   UNL     1       6.364   5.545  19.184  0.00  0.00    +0.000 HD
ATOM     20  H   UNL     1       5.821   1.393  19.333  0.00  0.00    +0.000 HD
ATOM     21  H   UNL     1       4.311   0.642  19.604  0.00  0.00    +0.000 HD
ENDBRANCH   4   8
BRANCH   1  22
ATOM     22  O   UNL     1       0.611  10.147  19.332  0.00  0.00    +0.000 OA
BRANCH  22  23
ATOM     23  C   UNL     1      -0.125  10.482  18.158  0.00  0.00    +0.000 C 
BRANCH  23  26
ATOM     24  C   UNL     1      -1.476  12.820  19.256  0.00  0.00    +0.000 C 
ATOM     25  N   UNL     1      -2.274  11.715  18.712  0.00  0.00    +0.000 N 
ATOM     26  C   UNL     1      -1.675  10.522  18.249  0.00  0.00    +0.000 C 
ATOM     27  O   UNL     1      -2.308   9.542  17.849  0.00  0.00    +0.000 OA
BRANCH  25  28
ATOM     28  C   UNL     1      -3.720  11.908  18.708  0.00  0.00    +0.000 A 
ATOM     29  C   UNL     1      -4.531  11.621  17.598  0.00  0.00    +0.000 A 
ATOM     30  C   UNL     1      -5.914  11.849  17.606  0.00  0.00    +0.000 A 
ATOM     31  C   UNL     1      -6.532  12.364  18.736  0.00  0.00    +0.000 A 
ATOM     32  C   UNL     1      -5.766  12.641  19.859  0.00  0.00    +0.000 A 
ATOM     33  C   UNL     1      -4.384  12.411  19.848  0.00  0.00    +0.000 A 
ENDBRANCH  25  28
ENDBRANCH  23  26
ENDBRANCH  22  23
ENDBRANCH   1  22
TORSDOF 5
ENDMDL
MODEL 4
REMARK VINA RESULT:      -8.5      3.294      4.041
REMARK  Name = 
REMARK  8 active torsions:
REMARK  status: ('A' for Active; 'I' for Inactive)
REMARK    1  A    between atoms: C_1  and  N_2
REMARK    2  A    between atoms: N_2  and  C_24
REMARK    3  A    between atoms: C_3  and  C_5
REMARK    4  A    between atoms: C_5  and  O_6
REMARK    5  A    between atoms: O_6  and  C_7
REMARK    6  A    between atoms: C_10  and  N_11
REMARK    7  A    between atoms: C_18  and  C_19
REMARK    8  A    between atoms: C_18  and  C_20
REMARK                            x       y       z     vdW  Elec       q    Type
REMARK                         _______ _______ _______ _____ _____    ______ ____
ROOT
ATOM      1  C   UNL     1       1.256   8.803  19.982  0.00  0.00    +0.000 A 
ATOM      2  C   UNL     1       1.177   7.882  21.015  0.00  0.00    +0.000 A 
ATOM      3  C   UNL     1       1.827   6.650  20.914  0.00  0.00    +0.000 A 
ATOM      4  C   UNL     1       2.441   6.200  19.745  0.00  0.00    +0.000 A 
ATOM      5  C   UNL     1       2.437   7.112  18.675  0.00  0.00    +0.000 A 
ATOM      6  C   UNL     1       1.917   8.413  18.815  0.00  0.00    +0.000 A 
ATOM      7 CL   UNL     1       2.158   9.530  17.513  0.00  0.00    +0.000 Cl
ENDROOT
BRANCH   4   8
ATOM      8  N   UNL     1       3.087   4.937  19.698  0.00  0.00    +0.000 N 
ATOM      9  C   UNL     1       4.433   4.752  19.460  0.00  0.00    +0.000 C 
ATOM     10  N   UNL     1       5.245   5.834  19.312  0.00  0.00    +0.000 N 
ATOM     11  N   UNL     1       5.037   3.609  19.390  0.00  0.00    +0.000 NA
ATOM     12  C   UNL     1       4.316   2.492  19.633  0.00  0.00    +0.000 C 
ATOM     13  N   UNL     1       5.015   1.355  19.822  0.00  0.00    +0.000 N 
ATOM     14  N   UNL     1       3.039   2.442  19.673  0.00  0.00    +0.000 NA
ATOM     15  C   UNL     1       2.285   3.690  19.518  0.00  0.00    +0.000 C 
ATOM     16  C   UNL     1       1.692   3.655  18.097  0.00  0.00    +0.000 C 
ATOM     17  C   UNL     1       1.129   3.491  20.521  0.00  0.00    +0.000 C 
ATOM     18  H   UNL     1       5.085   6.557  20.004  0.00  0.00    +0.000 HD
ATOM     19  H   UNL     1       6.218   5.548  19.300  0.00  0.00    +0.000 HD
ATOM     20  H   UNL     1       5.916   1.369  19.361  0.00  0.00    +0.000 HD
ATOM     21  H   UNL     1       4.461   0.526  19.661  0.00  0.00    +0.000 HD
ENDBRANCH   4   8
BRANCH   1  22
ATOM     22  O   UNL     1       0.795  10.088  20.071  0.00  0.00    +0.000 OA
BRANCH  22  23
ATOM     23  C   UNL     1      -0.605  10.331  19.943  0.00  0.00    +0.000 C 
BRANCH  23  26
ATOM     24  C   UNL     1      -0.877  10.254  22.844  0.00  0.00    +0.000 C 
ATOM     25  N   UNL     1      -1.240  11.476  22.119  0.00  0.00    +0.000 N 
ATOM     26  C   UNL     1      -1.212  11.539  20.707  0.00  0.00    +0.000 C 
ATOM     27  O   UNL     1      -1.575  12.520  20.053  0.00  0.00    +0.000 OA
BRANCH  25  28
ATOM     28  C   UNL     1      -1.662  12.608  22.936  0.00  0.00    +0.000 A 
ATOM     29  C   UNL     1      -0.847  13.725  23.182  0.00  0.00    +0.000 A 
ATOM     30  C   UNL     1      -1.260  14.785  24.001  0.00  0.00    +0.000 A 
ATOM     31  C   UNL     1      -2.514  14.762  24.595  0.00  0.00    +0.000 A 
ATOM     32  C   UNL     1      -3.355  13.684  24.358  0.00  0.00    +0.000 A 
ATOM     33  C   UNL     1      -2.939  12.628  23.538  0.00  0.00    +0.000 A 
ENDBRANCH  25  28
ENDBRANCH  23  26
ENDBRANCH  22  23
ENDBRANCH   1  22
TORSDOF 5
ENDMDL
MODEL 5
REMARK VINA RESULT:      -8.5      3.510      4.019
REMARK  Name = 
REMARK  8 active torsions:
REMARK  status: ('A' for Active; 'I' for Inactive)
REMARK    1  A    between atoms: C_1  and  N_2
REMARK    2  A    between atoms: N_2  and  C_24
REMARK    3  A    between atoms: C_3  and  C_5
REMARK    4  A    between atoms: C_5  and  O_6
REMARK    5  A    between atoms: O_6  and  C_7
REMARK    6  A    between atoms: C_10  and  N_11
REMARK    7  A    between atoms: C_18  and  C_19
REMARK    8  A    between atoms: C_18  and  C_20
REMARK                            x       y       z     vdW  Elec       q    Type
REMARK                         _______ _______ _______ _____ _____    ______ ____
ROOT
ATOM      1  C   UNL     1       1.196   8.820  19.891  0.00  0.00    +0.000 A 
ATOM      2  C   UNL     1       1.093   7.914  20.935  0.00  0.00    +0.000 A 
ATOM      3  C   UNL     1       1.765   6.691  20.877  0.00  0.00    +0.000 A 
ATOM      4  C   UNL     1       2.429   6.234  19.738  0.00  0.00    +0.000 A 
ATOM      5  C   UNL     1       2.451   7.131  18.655  0.00  0.00    +0.000 A 
ATOM      6  C   UNL     1       1.906   8.424  18.755  0.00  0.00    +0.000 A 
ATOM      7 CL   UNL     1       2.178   9.526  17.447  0.00  0.00    +0.000 Cl
ENDROOT
BRANCH   4   8
ATOM      8  N   UNL     1       3.096   4.981  19.734  0.00  0.00    +0.000 N 
ATOM      9  C   UNL     1       4.438   4.806  19.465  0.00  0.00    +0.000 C 
ATOM     10  N   UNL     1       5.226   5.893  19.242  0.00  0.00    +0.000 N 
ATOM     11  N   UNL     1       5.060   3.671  19.433  0.00  0.00    +0.000 NA
ATOM     12  C   UNL     1       4.366   2.556  19.751  0.00  0.00    +0.000 C 
ATOM     13  N   UNL     1       5.090   1.441  19.975  0.00  0.00    +0.000 N 
ATOM     14  N   UNL     1       3.092   2.487  19.831  0.00  0.00    +0.000 NA
ATOM     15  C   UNL     1       2.311   3.713  19.637  0.00  0.00    +0.000 C 
ATOM     16  C   UNL     1       1.679   3.599  18.238  0.00  0.00    +0.000 C 
ATOM     17  C   UNL     1       1.188   3.545  20.682  0.00  0.00    +0.000 C 
ATOM     18  H   UNL     1       5.073   6.646  19.901  0.00  0.00    +0.000 HD
ATOM     19  H   UNL     1       6.203   5.622  19.216  0.00  0.00    +0.000 HD
ATOM     20  H   UNL     1       5.977   1.447  19.488  0.00  0.00    +0.000 HD
ATOM     21  H   UNL     1       4.546   0.596  19.871  0.00  0.00    +0.000 HD
ENDBRANCH   4   8
BRANCH   1  22
ATOM     22  O   UNL     1       0.712  10.099  19.944  0.00  0.00    +0.000 OA
BRANCH  22  23
ATOM     23  C   UNL     1       1.024  10.911  21.074  0.00  0.00    +0.000 C 
BRANCH  23  26
ATOM     24  C   UNL     1      -0.857  10.240  23.197  0.00  0.00    +0.000 C 
ATOM     25  N   UNL     1      -0.857  11.595  22.635  0.00  0.00    +0.000 N 
ATOM     26  C   UNL     1      -0.029  11.949  21.546  0.00  0.00    +0.000 C 
ATOM     27  O   UNL     1      -0.046  13.054  20.997  0.00  0.00    +0.000 OA
BRANCH  25  28
ATOM     28  C   UNL     1      -1.784  12.543  23.244  0.00  0.00    +0.000 A 
ATOM     29  C   UNL     1      -3.143  12.262  23.457  0.00  0.00    +0.000 A 
ATOM     30  C   UNL     1      -4.022  13.203  24.010  0.00  0.00    +0.000 A 
ATOM     31  C   UNL     1      -3.562  14.459  24.379  0.00  0.00    +0.000 A 
ATOM     32  C   UNL     1      -2.220  14.766  24.203  0.00  0.00    +0.000 A 
ATOM     33  C   UNL     1      -1.344  13.823  23.650  0.00  0.00    +0.000 A 
ENDBRANCH  25  28
ENDBRANCH  23  26
ENDBRANCH  22  23
ENDBRANCH   1  22
TORSDOF 5
ENDMDL
MODEL 6
REMARK VINA RESULT:      -8.4      0.893      1.100
REMARK  Name = 
REMARK  8 active torsions:
REMARK  status: ('A' for Active; 'I' for Inactive)
REMARK    1  A    between atoms: C_1  and  N_2
REMARK    2  A    between atoms: N_2  and  C_24
REMARK    3  A    between atoms: C_3  and  C_5
REMARK    4  A    between atoms: C_5  and  O_6
REMARK    5  A    between atoms: O_6  and  C_7
REMARK    6  A    between atoms: C_10  and  N_11
REMARK    7  A    between atoms: C_18  and  C_19
REMARK    8  A    between atoms: C_18  and  C_20
REMARK                            x       y       z     vdW  Elec       q    Type
REMARK                         _______ _______ _______ _____ _____    ______ ____
ROOT
ATOM      1  C   UNL     1       1.290   9.182  19.587  0.00  0.00    +0.000 A 
ATOM      2  C   UNL     1       1.848   8.685  18.419  0.00  0.00    +0.000 A 
ATOM      3  C   UNL     1       2.360   7.386  18.378  0.00  0.00    +0.000 A 
ATOM      4  C   UNL     1       2.497   6.580  19.509  0.00  0.00    +0.000 A 
ATOM      5  C   UNL     1       2.004   7.133  20.704  0.00  0.00    +0.000 A 
ATOM      6  C   UNL     1       1.351   8.379  20.728  0.00  0.00    +0.000 A 
ATOM      7 CL   UNL     1       0.589   8.870  22.204  0.00  0.00    +0.000 Cl
ENDROOT
BRANCH   4   8
ATOM      8  N   UNL     1       3.024   5.266  19.410  0.00  0.00    +0.000 N 
ATOM      9  C   UNL     1       4.349   4.967  19.167  0.00  0.00    +0.000 C 
ATOM     10  N   UNL     1       5.258   5.975  19.067  0.00  0.00    +0.000 N 
ATOM     11  N   UNL     1       4.846   3.777  19.049  0.00  0.00    +0.000 NA
ATOM     12  C   UNL     1       4.023   2.722  19.243  0.00  0.00    +0.000 C 
ATOM     13  N   UNL     1       4.613   1.518  19.384  0.00  0.00    +0.000 N 
ATOM     14  N   UNL     1       2.747   2.789  19.277  0.00  0.00    +0.000 NA
ATOM     15  C   UNL     1       2.112   4.107  19.174  0.00  0.00    +0.000 C 
ATOM     16  C   UNL     1       1.527   4.187  17.752  0.00  0.00    +0.000 C 
ATOM     17  C   UNL     1       0.936   3.973  20.165  0.00  0.00    +0.000 C 
ATOM     18  H   UNL     1       5.161   6.679  19.788  0.00  0.00    +0.000 HD
ATOM     19  H   UNL     1       6.201   5.600  19.046  0.00  0.00    +0.000 HD
ATOM     20  H   UNL     1       5.514   1.468  18.927  0.00  0.00    +0.000 HD
ATOM     21  H   UNL     1       3.986   0.752  19.187  0.00  0.00    +0.000 HD
ENDBRANCH   4   8
BRANCH   1  22
ATOM     22  O   UNL     1       0.619  10.372  19.663  0.00  0.00    +0.000 OA
BRANCH  22  23
ATOM     23  C   UNL     1       0.190  11.002  18.458  0.00  0.00    +0.000 C 
BRANCH  23  26
ATOM     24  C   UNL     1      -2.242   9.729  17.475  0.00  0.00    +0.000 C 
ATOM     25  N   UNL     1      -2.317  11.072  18.062  0.00  0.00    +0.000 N 
ATOM     26  C   UNL     1      -1.159  11.771  18.472  0.00  0.00    +0.000 C 
ATOM     27  O   UNL     1      -1.168  12.926  18.904  0.00  0.00    +0.000 OA
BRANCH  25  28
ATOM     28  C   UNL     1      -3.651  11.655  18.165  0.00  0.00    +0.000 A 
ATOM     29  C   UNL     1      -4.546  11.722  17.086  0.00  0.00    +0.000 A 
ATOM     30  C   UNL     1      -5.809  12.320  17.201  0.00  0.00    +0.000 A 
ATOM     31  C   UNL     1      -6.219  12.863  18.409  0.00  0.00    +0.000 A 
ATOM     32  C   UNL     1      -5.369  12.796  19.504  0.00  0.00    +0.000 A 
ATOM     33  C   UNL     1      -4.108  12.198  19.386  0.00  0.00    +0.000 A 
ENDBRANCH  25  28
ENDBRANCH  23  26
ENDBRANCH  22  23
ENDBRANCH   1  22
TORSDOF 5
ENDMDL
MODEL 7
REMARK VINA RESULT:      -8.4      2.718      3.515
REMARK  Name = 
REMARK  8 active torsions:
REMARK  status: ('A' for Active; 'I' for Inactive)
REMARK    1  A    between atoms: C_1  and  N_2
REMARK    2  A    between atoms: N_2  and  C_24
REMARK    3  A    between atoms: C_3  and  C_5
REMARK    4  A    between atoms: C_5  and  O_6
REMARK    5  A    between atoms: O_6  and  C_7
REMARK    6  A    between atoms: C_10  and  N_11
REMARK    7  A    between atoms: C_18  and  C_19
REMARK    8  A    between atoms: C_18  and  C_20
REMARK                            x       y       z     vdW  Elec       q    Type
REMARK                         _______ _______ _______ _____ _____    ______ ____
ROOT
ATOM      1  C   UNL     1       1.472   8.901  18.826  0.00  0.00    +0.000 A 
ATOM      2  C   UNL     1       2.221   8.300  17.826  0.00  0.00    +0.000 A 
ATOM      3  C   UNL     1       2.779   7.035  18.026  0.00  0.00    +0.000 A 
ATOM      4  C   UNL     1       2.768   6.378  19.257  0.00  0.00    +0.000 A 
ATOM      5  C   UNL     1       2.077   7.041  20.286  0.00  0.00    +0.000 A 
ATOM      6  C   UNL     1       1.384   8.244  20.056  0.00  0.00    +0.000 A 
ATOM      7 CL   UNL     1       0.386   8.865  21.327  0.00  0.00    +0.000 Cl
ENDROOT
BRANCH   4   8
ATOM      8  N   UNL     1       3.351   5.092  19.403  0.00  0.00    +0.000 N 
ATOM      9  C   UNL     1       4.689   4.809  19.219  0.00  0.00    +0.000 C 
ATOM     10  N   UNL     1       5.555   5.819  18.932  0.00  0.00    +0.000 N 
ATOM     11  N   UNL     1       5.236   3.641  19.324  0.00  0.00    +0.000 NA
ATOM     12  C   UNL     1       4.457   2.606  19.712  0.00  0.00    +0.000 C 
ATOM     13  N   UNL     1       5.096   1.476  20.075  0.00  0.00    +0.000 N 
ATOM     14  N   UNL     1       3.179   2.624  19.735  0.00  0.00    +0.000 NA
ATOM     15  C   UNL     1       2.489   3.871  19.389  0.00  0.00    +0.000 C 
ATOM     16  C   UNL     1       1.911   3.660  17.978  0.00  0.00    +0.000 C 
ATOM     17  C   UNL     1       1.314   3.875  20.389  0.00  0.00    +0.000 C 
ATOM     18  H   UNL     1       5.424   6.641  19.509  0.00  0.00    +0.000 HD
ATOM     19  H   UNL     1       6.513   5.488  18.979  0.00  0.00    +0.000 HD
ATOM     20  H   UNL     1       6.001   1.380  19.633  0.00  0.00    +0.000 HD
ATOM     21  H   UNL     1       4.503   0.661  20.024  0.00  0.00    +0.000 HD
ENDBRANCH   4   8
BRANCH   1  22
ATOM     22  O   UNL     1       0.755  10.053  18.651  0.00  0.00    +0.000 OA
BRANCH  22  23
ATOM     23  C   UNL     1       1.360  11.301  18.981  0.00  0.00    +0.000 C 
BRANCH  23  26
ATOM     24  C   UNL     1      -1.345  12.380  19.096  0.00  0.00    +0.000 C 
ATOM     25  N   UNL     1      -0.482  12.469  20.280  0.00  0.00    +0.000 N 
ATOM     26  C   UNL     1       0.865  12.043  20.252  0.00  0.00    +0.000 C 
ATOM     27  O   UNL     1       1.646  12.163  21.200  0.00  0.00    +0.000 OA
BRANCH  25  28
ATOM     28  C   UNL     1      -1.086  13.052  21.473  0.00  0.00    +0.000 A 
ATOM     29  C   UNL     1      -0.829  14.363  21.903  0.00  0.00    +0.000 A 
ATOM     30  C   UNL     1      -1.393  14.889  23.073  0.00  0.00    +0.000 A 
ATOM     31  C   UNL     1      -2.243  14.116  23.849  0.00  0.00    +0.000 A 
ATOM     32  C   UNL     1      -2.537  12.821  23.445  0.00  0.00    +0.000 A 
ATOM     33  C   UNL     1      -1.973  12.299  22.275  0.00  0.00    +0.000 A 
ENDBRANCH  25  28
ENDBRANCH  23  26
ENDBRANCH  22  23
ENDBRANCH   1  22
TORSDOF 5
ENDMDL
MODEL 8
REMARK VINA RESULT:      -8.3      3.481      4.207
REMARK  Name = 
REMARK  8 active torsions:
REMARK  status: ('A' for Active; 'I' for Inactive)
REMARK    1  A    between atoms: C_1  and  N_2
REMARK    2  A    between atoms: N_2  and  C_24
REMARK    3  A    between atoms: C_3  and  C_5
REMARK    4  A    between atoms: C_5  and  O_6
REMARK    5  A    between atoms: O_6  and  C_7
REMARK    6  A    between atoms: C_10  and  N_11
REMARK    7  A    between atoms: C_18  and  C_19
REMARK    8  A    between atoms: C_18  and  C_20
REMARK                            x       y       z     vdW  Elec       q    Type
REMARK                         _______ _______ _______ _____ _____    ______ ____
ROOT
ATOM      1  C   UNL     1       1.505   9.175  18.879  0.00  0.00    +0.000 A 
ATOM      2  C   UNL     1       2.212   8.569  17.851  0.00  0.00    +0.000 A 
ATOM      3  C   UNL     1       2.730   7.283  18.013  0.00  0.00    +0.000 A 
ATOM      4  C   UNL     1       2.723   6.601  19.231  0.00  0.00    +0.000 A 
ATOM      5  C   UNL     1       2.078   7.266  20.288  0.00  0.00    +0.000 A 
ATOM      6  C   UNL     1       1.422   8.496  20.097  0.00  0.00    +0.000 A 
ATOM      7 CL   UNL     1       0.473   9.124  21.403  0.00  0.00    +0.000 Cl
ENDROOT
BRANCH   4   8
ATOM      8  N   UNL     1       3.264   5.293  19.339  0.00  0.00    +0.000 N 
ATOM      9  C   UNL     1       4.600   4.980  19.185  0.00  0.00    +0.000 C 
ATOM     10  N   UNL     1       5.503   5.975  18.972  0.00  0.00    +0.000 N 
ATOM     11  N   UNL     1       5.109   3.792  19.256  0.00  0.00    +0.000 NA
ATOM     12  C   UNL     1       4.289   2.765  19.572  0.00  0.00    +0.000 C 
ATOM     13  N   UNL     1       4.884   1.602  19.905  0.00  0.00    +0.000 N 
ATOM     14  N   UNL     1       3.012   2.820  19.555  0.00  0.00    +0.000 NA
ATOM     15  C   UNL     1       2.370   4.100  19.243  0.00  0.00    +0.000 C 
ATOM     16  C   UNL     1       1.834   3.968  17.806  0.00  0.00    +0.000 C 
ATOM     17  C   UNL     1       1.162   4.095  20.203  0.00  0.00    +0.000 C 
ATOM     18  H   UNL     1       5.376   6.774  19.580  0.00  0.00    +0.000 HD
ATOM     19  H   UNL     1       6.449   5.614  19.035  0.00  0.00    +0.000 HD
ATOM     20  H   UNL     1       5.800   1.499  19.489  0.00  0.00    +0.000 HD
ATOM     21  H   UNL     1       4.270   0.807  19.799  0.00  0.00    +0.000 HD
ENDBRANCH   4   8
BRANCH   1  22
ATOM     22  O   UNL     1       0.825  10.354  18.743  0.00  0.00    +0.000 OA
BRANCH  22  23
ATOM     23  C   UNL     1       1.498  11.578  19.031  0.00  0.00    +0.000 C 
BRANCH  23  26
ATOM     24  C   UNL     1       2.534  14.092  20.082  0.00  0.00    +0.000 C 
ATOM     25  N   UNL     1       1.344  14.105  19.225  0.00  0.00    +0.000 N 
ATOM     26  C   UNL     1       0.747  12.910  18.761  0.00  0.00    +0.000 C 
ATOM     27  O   UNL     1      -0.293  12.870  18.098  0.00  0.00    +0.000 OA
BRANCH  25  28
ATOM     28  C   UNL     1       0.794  15.418  18.907  0.00  0.00    +0.000 A 
ATOM     29  C   UNL     1      -0.526  15.792  19.207  0.00  0.00    +0.000 A 
ATOM     30  C   UNL     1      -1.043  17.048  18.859  0.00  0.00    +0.000 A 
ATOM     31  C   UNL     1      -0.246  17.977  18.206  0.00  0.00    +0.000 A 
ATOM     32  C   UNL     1       1.071  17.650  17.912  0.00  0.00    +0.000 A 
ATOM     33  C   UNL     1       1.584  16.394  18.261  0.00  0.00    +0.000 A 
ENDBRANCH  25  28
ENDBRANCH  23  26
ENDBRANCH  22  23
ENDBRANCH   1  22
TORSDOF 5
ENDMDL
MODEL 9
REMARK VINA RESULT:      -8.3      3.033      3.525
REMARK  Name = 
REMARK  8 active torsions:
REMARK  status: ('A' for Active; 'I' for Inactive)
REMARK    1  A    between atoms: C_1  and  N_2
REMARK    2  A    between atoms: N_2  and  C_24
REMARK    3  A    between atoms: C_3  and  C_5
REMARK    4  A    between atoms: C_5  and  O_6
REMARK    5  A    between atoms: O_6  and  C_7
REMARK    6  A    between atoms: C_10  and  N_11
REMARK    7  A    between atoms: C_18  and  C_19
REMARK    8  A    between atoms: C_18  and  C_20
REMARK                            x       y       z     vdW  Elec       q    Type
REMARK                         _______ _______ _______ _____ _____    ______ ____
ROOT
ATOM      1  C   UNL     1       1.181   8.866  20.070  0.00  0.00    +0.000 A 
ATOM      2  C   UNL     1       1.110   7.928  21.088  0.00  0.00    +0.000 A 
ATOM      3  C   UNL     1       1.764   6.700  20.963  0.00  0.00    +0.000 A 
ATOM      4  C   UNL     1       2.374   6.272  19.783  0.00  0.00    +0.000 A 
ATOM      5  C   UNL     1       2.361   7.203  18.729  0.00  0.00    +0.000 A 
ATOM      6  C   UNL     1       1.838   8.499  18.893  0.00  0.00    +0.000 A 
ATOM      7 CL   UNL     1       2.068   9.639  17.610  0.00  0.00    +0.000 Cl
ENDROOT
BRANCH   4   8
ATOM      8  N   UNL     1       3.024   5.013  19.711  0.00  0.00    +0.000 N 
ATOM      9  C   UNL     1       4.368   4.836  19.452  0.00  0.00    +0.000 C 
ATOM     10  N   UNL     1       5.173   5.923  19.307  0.00  0.00    +0.000 N 
ATOM     11  N   UNL     1       4.975   3.697  19.359  0.00  0.00    +0.000 NA
ATOM     12  C   UNL     1       4.262   2.574  19.597  0.00  0.00    +0.000 C 
ATOM     13  N   UNL     1       4.968   1.437  19.762  0.00  0.00    +0.000 N 
ATOM     14  N   UNL     1       2.986   2.518  19.654  0.00  0.00    +0.000 NA
ATOM     15  C   UNL     1       2.224   3.765  19.525  0.00  0.00    +0.000 C 
ATOM     16  C   UNL     1       1.612   3.746  18.113  0.00  0.00    +0.000 C 
ATOM     17  C   UNL     1       1.083   3.548  20.541  0.00  0.00    +0.000 C 
ATOM     18  H   UNL     1       5.020   6.636  20.010  0.00  0.00    +0.000 HD
ATOM     19  H   UNL     1       6.147   5.641  19.278  0.00  0.00    +0.000 HD
ATOM     20  H   UNL     1       5.862   1.460  19.289  0.00  0.00    +0.000 HD
ATOM     21  H   UNL     1       4.414   0.608  19.598  0.00  0.00    +0.000 HD
ENDBRANCH   4   8
BRANCH   1  22
ATOM     22  O   UNL     1       0.716  10.148  20.184  0.00  0.00    +0.000 OA
BRANCH  22  23
ATOM     23  C   UNL     1       0.755  10.787  21.458  0.00  0.00    +0.000 C 
BRANCH  23  26
ATOM     24  C   UNL     1      -0.653  13.305  21.037  0.00  0.00    +0.000 C 
ATOM     25  N   UNL     1      -1.267  12.266  21.871  0.00  0.00    +0.000 N 
ATOM     26  C   UNL     1      -0.592  11.064  22.181  0.00  0.00    +0.000 C 
ATOM     27  O   UNL     1      -1.039  10.195  22.933  0.00  0.00    +0.000 OA
BRANCH  25  28
ATOM     28  C   UNL     1      -2.600  12.561  22.388  0.00  0.00    +0.000 A 
ATOM     29  C   UNL     1      -3.752  12.563  21.586  0.00  0.00    +0.000 A 
ATOM     30  C   UNL     1      -5.017  12.885  22.097  0.00  0.00    +0.000 A 
ATOM     31  C   UNL     1      -5.168  13.207  23.438  0.00  0.00    +0.000 A 
ATOM     32  C   UNL     1      -4.054  13.195  24.266  0.00  0.00    +0.000 A 
ATOM     33  C   UNL     1      -2.792  12.872  23.751  0.00  0.00    +0.000 A 
ENDBRANCH  25  28
ENDBRANCH  23  26
ENDBRANCH  22  23
ENDBRANCH   1  22
TORSDOF 5
ENDMDL
