MODEL 1
REMARK VINA RESULT:      -9.0      0.000      0.000
REMARK  Name = 
REMARK  5 active torsions:
REMARK  status: ('A' for Active; 'I' for Inactive)
REMARK    1  A    between atoms: O_1  and  C_2
REMARK    2  A    between atoms: C_8  and  C_9
REMARK    3  A    between atoms: N_17  and  C_18
REMARK    4  A    between atoms: C_18  and  C_19
REMARK    5  A    between atoms: C_20  and  C_21
REMARK                            x       y       z     vdW  Elec       q    Type
REMARK                         _______ _______ _______ _____ _____    ______ ____
ROOT
ATOM      1  C   UNL     1       6.226   4.190  14.805  0.00  0.00    +0.000 A 
ATOM      2  C   UNL     1       7.232   4.830  15.538  0.00  0.00    +0.000 A 
ATOM      3  C   UNL     1       7.078   5.033  16.863  0.00  0.00    +0.000 A 
ATOM      4  C   UNL     1       5.942   4.603  17.484  0.00  0.00    +0.000 A 
ATOM      5  C   UNL     1       4.832   3.791  16.853  0.00  0.00    +0.000 A 
ATOM      6  C   UNL     1       5.040   3.665  15.437  0.00  0.00    +0.000 A 
ATOM      7  C   UNL     1       3.457   3.199  17.755  0.00  0.00    +0.000 C 
ATOM      8  C   UNL     1       2.337   4.088  17.171  0.00  0.00    +0.000 C 
ATOM      9  C   UNL     1       2.358   5.485  17.755  0.00  0.00    +0.000 C 
ATOM     10  N   UNL     1       3.676   5.872  18.324  0.00  0.00    +0.000 NA
ATOM     11  C   UNL     1       4.454   4.958  19.267  0.00  0.00    +0.000 C 
ATOM     12  C   UNL     1       5.887   5.061  18.938  0.00  0.00    +0.000 C 
ATOM     13  C   UNL     1       4.312   3.456  18.988  0.00  0.00    +0.000 C 
ENDROOT
BRANCH   7  14
ATOM     14  C   UNL     1       2.638   2.551  19.071  0.00  0.00    +0.000 A 
ATOM     15  C   UNL     1       1.184   2.822  19.265  0.00  0.00    +0.000 A 
ATOM     16  C   UNL     1       0.696   3.213  20.511  0.00  0.00    +0.000 A 
ATOM     17  C   UNL     1       1.508   3.164  21.624  0.00  0.00    +0.000 A 
ATOM     18  C   UNL     1       2.790   2.615  21.528  0.00  0.00    +0.000 A 
ATOM     19  C   UNL     1       3.361   2.275  20.276  0.00  0.00    +0.000 A 
ENDBRANCH   7  14
BRANCH   1  20
ATOM     20  O   UNL     1       6.414   4.097  13.477  0.00  0.00    +0.000 OA
ATOM     21  H   UNL     1       7.296   3.884  13.119  0.00  0.00    +0.000 HD
ENDBRANCH   1  20
BRANCH  10  22
ATOM     22  C   UNL     1       3.615   7.268  18.778  0.00  0.00    +0.000 C 
BRANCH  22  23
ATOM     23  C   UNL     1       2.247   7.833  18.523  0.00  0.00    +0.000 C 
ATOM     24  C   UNL     1       1.823   8.980  19.079  0.00  0.00    +0.000 C 
BRANCH  24  25
ATOM     25  C   UNL     1       0.488   9.559  18.802  0.00  0.00    +0.000 A 
ATOM     26  C   UNL     1      -0.198   9.325  17.593  0.00  0.00    +0.000 A 
ATOM     27  C   UNL     1      -1.421   9.945  17.341  0.00  0.00    +0.000 A 
ATOM     28  C   UNL     1      -1.974  10.806  18.288  0.00  0.00    +0.000 A 
ATOM     29  C   UNL     1      -1.322  11.031  19.514  0.00  0.00    +0.000 A 
ATOM     30  C   UNL     1      -0.071  10.411  19.758  0.00  0.00    +0.000 A 
ENDBRANCH  24  25
ENDBRANCH  22  23
ENDBRANCH  10  22
TORSDOF 5
ENDMDL
MODEL 2
REMARK VINA RESULT:      -9.0      2.340      5.141
REMARK  Name = 
REMARK  5 active torsions:
REMARK  status: ('A' for Active; 'I' for Inactive)
REMARK    1  A    between atoms: O_1  and  C_2
REMARK    2  A    between atoms: C_8  and  C_9
REMARK    3  A    between atoms: N_17  and  C_18
REMARK    4  A    between atoms: C_18  and  C_19
REMARK    5  A    between atoms: C_20  and  C_21
REMARK                            x       y       z     vdW  Elec       q    Type
REMARK                         _______ _______ _______ _____ _____    ______ ____
ROOT
ATOM      1  C   UNL     1       1.832   2.753  21.214  0.00  0.00    +0.000 A 
ATOM      2  C   UNL     1       0.675   2.954  20.453  0.00  0.00    +0.000 A 
ATOM      3  C   UNL     1       0.766   3.446  19.200  0.00  0.00    +0.000 A 
ATOM      4  C   UNL     1       1.992   3.736  18.677  0.00  0.00    +0.000 A 
ATOM      5  C   UNL     1       3.330   3.457  19.328  0.00  0.00    +0.000 A 
ATOM      6  C   UNL     1       3.149   2.987  20.674  0.00  0.00    +0.000 A 
ATOM      7  C   UNL     1       4.855   3.775  18.537  0.00  0.00    +0.000 C 
ATOM      8  C   UNL     1       5.361   4.968  19.378  0.00  0.00    +0.000 C 
ATOM      9  C   UNL     1       4.677   6.263  18.996  0.00  0.00    +0.000 C 
ATOM     10  N   UNL     1       3.367   6.067  18.321  0.00  0.00    +0.000 NA
ATOM     11  C   UNL     1       3.186   5.084  17.168  0.00  0.00    +0.000 C 
ATOM     12  C   UNL     1       1.878   4.424  17.321  0.00  0.00    +0.000 C 
ATOM     13  C   UNL     1       4.040   3.812  17.252  0.00  0.00    +0.000 C 
ENDROOT
BRANCH   7  14
ATOM     14  C   UNL     1       5.945   3.854  17.261  0.00  0.00    +0.000 A 
ATOM     15  C   UNL     1       7.012   4.897  17.241  0.00  0.00    +0.000 A 
ATOM     16  C   UNL     1       7.248   5.648  16.091  0.00  0.00    +0.000 A 
ATOM     17  C   UNL     1       6.642   5.308  14.901  0.00  0.00    +0.000 A 
ATOM     18  C   UNL     1       5.875   4.142  14.816  0.00  0.00    +0.000 A 
ATOM     19  C   UNL     1       5.541   3.387  15.969  0.00  0.00    +0.000 A 
ENDBRANCH   7  14
BRANCH   1  20
ATOM     20  O   UNL     1       1.656   2.338  22.481  0.00  0.00    +0.000 OA
ATOM     21  H   UNL     1       1.977   1.461  22.760  0.00  0.00    +0.000 HD
ENDBRANCH   1  20
BRANCH  10  22
ATOM     22  C   UNL     1       2.749   7.378  18.077  0.00  0.00    +0.000 C 
BRANCH  22  23
ATOM     23  C   UNL     1       2.099   7.883  19.333  0.00  0.00    +0.000 C 
ATOM     24  C   UNL     1       1.356   9.002  19.364  0.00  0.00    +0.000 C 
BRANCH  24  25
ATOM     25  C   UNL     1       0.683   9.484  20.593  0.00  0.00    +0.000 A 
ATOM     26  C   UNL     1       0.215   8.603  21.589  0.00  0.00    +0.000 A 
ATOM     27  C   UNL     1      -0.475   9.091  22.698  0.00  0.00    +0.000 A 
ATOM     28  C   UNL     1      -0.709  10.459  22.827  0.00  0.00    +0.000 A 
ATOM     29  C   UNL     1      -0.225  11.359  21.860  0.00  0.00    +0.000 A 
ATOM     30  C   UNL     1       0.463  10.856  20.727  0.00  0.00    +0.000 A 
ENDBRANCH  24  25
ENDBRANCH  22  23
ENDBRANCH  10  22
TORSDOF 5
ENDMDL
MODEL 3
REMARK VINA RESULT:      -8.7      0.970      1.307
REMARK  Name = 
REMARK  5 active torsions:
REMARK  status: ('A' for Active; 'I' for Inactive)
REMARK    1  A    between atoms: O_1  and  C_2
REMARK    2  A    between atoms: C_8  and  C_9
REMARK    3  A    between atoms: N_17  and  C_18
REMARK    4  A    between atoms: C_18  and  C_19
REMARK    5  A    between atoms: C_20  and  C_21
REMARK                            x       y       z     vdW  Elec       q    Type
REMARK                         _______ _______ _______ _____ _____    ______ ____
ROOT
ATOM      1  C   UNL     1       6.102   3.806  14.566  0.00  0.00    +0.000 A 
ATOM      2  C   UNL     1       7.096   4.774  14.744  0.00  0.00    +0.000 A 
ATOM      3  C   UNL     1       7.134   5.504  15.878  0.00  0.00    +0.000 A 
ATOM      4  C   UNL     1       6.205   5.286  16.852  0.00  0.00    +0.000 A 
ATOM      5  C   UNL     1       5.153   4.196  16.856  0.00  0.00    +0.000 A 
ATOM      6  C   UNL     1       5.141   3.502  15.598  0.00  0.00    +0.000 A 
ATOM      7  C   UNL     1       4.065   3.931  18.197  0.00  0.00    +0.000 C 
ATOM      8  C   UNL     1       2.733   4.397  17.570  0.00  0.00    +0.000 C 
ATOM      9  C   UNL     1       2.620   5.907  17.532  0.00  0.00    +0.000 C 
ATOM     10  N   UNL     1       3.932   6.602  17.596  0.00  0.00    +0.000 NA
ATOM     11  C   UNL     1       4.996   6.238  18.628  0.00  0.00    +0.000 C 
ATOM     12  C   UNL     1       6.317   6.308  17.978  0.00  0.00    +0.000 C 
ATOM     13  C   UNL     1       5.060   4.752  19.006  0.00  0.00    +0.000 C 
ENDROOT
BRANCH   7  14
ATOM     14  C   UNL     1       3.595   3.834  19.807  0.00  0.00    +0.000 A 
ATOM     15  C   UNL     1       3.652   2.534  20.535  0.00  0.00    +0.000 A 
ATOM     16  C   UNL     1       2.571   2.102  21.302  0.00  0.00    +0.000 A 
ATOM     17  C   UNL     1       1.517   2.951  21.561  0.00  0.00    +0.000 A 
ATOM     18  C   UNL     1       1.579   4.286  21.149  0.00  0.00    +0.000 A 
ATOM     19  C   UNL     1       2.617   4.755  20.304  0.00  0.00    +0.000 A 
ENDBRANCH   7  14
BRANCH   1  20
ATOM     20  O   UNL     1       6.080   3.177  13.378  0.00  0.00    +0.000 OA
ATOM     21  H   UNL     1       6.857   2.674  13.073  0.00  0.00    +0.000 HD
ENDBRANCH   1  20
BRANCH  10  22
ATOM     22  C   UNL     1       3.718   8.050  17.460  0.00  0.00    +0.000 C 
BRANCH  22  23
ATOM     23  C   UNL     1       2.330   8.409  17.907  0.00  0.00    +0.000 C 
ATOM     24  C   UNL     1       1.904   9.681  17.991  0.00  0.00    +0.000 C 
BRANCH  24  25
ATOM     25  C   UNL     1       0.525  10.038  18.398  0.00  0.00    +0.000 A 
ATOM     26  C   UNL     1      -0.595   9.758  17.587  0.00  0.00    +0.000 A 
ATOM     27  C   UNL     1      -1.869  10.173  17.973  0.00  0.00    +0.000 A 
ATOM     28  C   UNL     1      -2.043  10.873  19.166  0.00  0.00    +0.000 A 
ATOM     29  C   UNL     1      -0.945  11.138  20.004  0.00  0.00    +0.000 A 
ATOM     30  C   UNL     1       0.350  10.727  19.600  0.00  0.00    +0.000 A 
ENDBRANCH  24  25
ENDBRANCH  22  23
ENDBRANCH  10  22
TORSDOF 5
ENDMDL
MODEL 4
REMARK VINA RESULT:      -8.7      1.292      1.878
REMARK  Name = 
REMARK  5 active torsions:
REMARK  status: ('A' for Active; 'I' for Inactive)
REMARK    1  A    between atoms: O_1  and  C_2
REMARK    2  A    between atoms: C_8  and  C_9
REMARK    3  A    between atoms: N_17  and  C_18
REMARK    4  A    between atoms: C_18  and  C_19
REMARK    5  A    between atoms: C_20  and  C_21
REMARK                            x       y       z     vdW  Elec       q    Type
REMARK                         _______ _______ _______ _____ _____    ______ ____
ROOT
ATOM      1  C   UNL     1       6.208   3.879  14.530  0.00  0.00    +0.000 A 
ATOM      2  C   UNL     1       7.060   4.965  14.765  0.00  0.00    +0.000 A 
ATOM      3  C   UNL     1       6.975   5.654  15.922  0.00  0.00    +0.000 A 
ATOM      4  C   UNL     1       6.062   5.281  16.864  0.00  0.00    +0.000 A 
ATOM      5  C   UNL     1       5.165   4.063  16.806  0.00  0.00    +0.000 A 
ATOM      6  C   UNL     1       5.273   3.416  15.527  0.00  0.00    +0.000 A 
ATOM      7  C   UNL     1       4.093   3.610  18.109  0.00  0.00    +0.000 C 
ATOM      8  C   UNL     1       2.724   3.917  17.462  0.00  0.00    +0.000 C 
ATOM      9  C   UNL     1       2.412   5.398  17.467  0.00  0.00    +0.000 C 
ATOM     10  N   UNL     1       3.619   6.259  17.587  0.00  0.00    +0.000 NA
ATOM     11  C   UNL     1       4.699   6.004  18.635  0.00  0.00    +0.000 C 
ATOM     12  C   UNL     1       6.012   6.270  18.023  0.00  0.00    +0.000 C 
ATOM     13  C   UNL     1       4.951   4.527  18.969  0.00  0.00    +0.000 C 
ENDROOT
BRANCH   7  14
ATOM     14  C   UNL     1       3.604   3.397  19.702  0.00  0.00    +0.000 A 
ATOM     15  C   UNL     1       2.985   2.112  20.138  0.00  0.00    +0.000 A 
ATOM     16  C   UNL     1       1.818   2.108  20.899  0.00  0.00    +0.000 A 
ATOM     17  C   UNL     1       1.327   3.283  21.427  0.00  0.00    +0.000 A 
ATOM     18  C   UNL     1       2.060   4.467  21.295  0.00  0.00    +0.000 A 
ATOM     19  C   UNL     1       3.210   4.540  20.469  0.00  0.00    +0.000 A 
ENDBRANCH   7  14
BRANCH   1  20
ATOM     20  O   UNL     1       6.296   3.294  13.323  0.00  0.00    +0.000 OA
ATOM     21  H   UNL     1       5.495   3.152  12.786  0.00  0.00    +0.000 HD
ENDBRANCH   1  20
BRANCH  10  22
ATOM     22  C   UNL     1       3.217   7.670  17.490  0.00  0.00    +0.000 C 
BRANCH  22  23
ATOM     23  C   UNL     1       2.527   8.096  18.754  0.00  0.00    +0.000 C 
ATOM     24  C   UNL     1       1.531   8.998  18.766  0.00  0.00    +0.000 C 
BRANCH  24  25
ATOM     25  C   UNL     1       0.824   9.396  20.005  0.00  0.00    +0.000 A 
ATOM     26  C   UNL     1       0.306  10.693  20.193  0.00  0.00    +0.000 A 
ATOM     27  C   UNL     1      -0.292  11.049  21.401  0.00  0.00    +0.000 A 
ATOM     28  C   UNL     1      -0.378  10.119  22.437  0.00  0.00    +0.000 A 
ATOM     29  C   UNL     1       0.106   8.810  22.262  0.00  0.00    +0.000 A 
ATOM     30  C   UNL     1       0.726   8.459  21.037  0.00  0.00    +0.000 A 
ENDBRANCH  24  25
ENDBRANCH  22  23
ENDBRANCH  10  22
TORSDOF 5
ENDMDL
MODEL 5
REMARK VINA RESULT:      -8.4      1.208      1.731
REMARK  Name = 
REMARK  5 active torsions:
REMARK  status: ('A' for Active; 'I' for Inactive)
REMARK    1  A    between atoms: O_1  and  C_2
REMARK    2  A    between atoms: C_8  and  C_9
REMARK    3  A    between atoms: N_17  and  C_18
REMARK    4  A    between atoms: C_18  and  C_19
REMARK    5  A    between atoms: C_20  and  C_21
REMARK                            x       y       z     vdW  Elec       q    Type
REMARK                         _______ _______ _______ _____ _____    ______ ____
ROOT
ATOM      1  C   UNL     1       6.331   3.894  14.854  0.00  0.00    +0.000 A 
ATOM      2  C   UNL     1       7.211   4.773  15.496  0.00  0.00    +0.000 A 
ATOM      3  C   UNL     1       6.924   5.233  16.732  0.00  0.00    +0.000 A 
ATOM      4  C   UNL     1       5.780   4.830  17.354  0.00  0.00    +0.000 A 
ATOM      5  C   UNL     1       4.801   3.795  16.841  0.00  0.00    +0.000 A 
ATOM      6  C   UNL     1       5.143   3.396  15.503  0.00  0.00    +0.000 A 
ATOM      7  C   UNL     1       3.408   3.269  17.755  0.00  0.00    +0.000 C 
ATOM      8  C   UNL     1       2.272   3.898  16.918  0.00  0.00    +0.000 C 
ATOM      9  C   UNL     1       2.124   5.381  17.183  0.00  0.00    +0.000 C 
ATOM     10  N   UNL     1       3.349   6.010  17.742  0.00  0.00    +0.000 NA
ATOM     11  C   UNL     1       4.116   5.399  18.912  0.00  0.00    +0.000 C 
ATOM     12  C   UNL     1       5.558   5.575  18.665  0.00  0.00    +0.000 C 
ATOM     13  C   UNL     1       4.127   3.865  18.957  0.00  0.00    +0.000 C 
ENDROOT
BRANCH   7  14
ATOM     14  C   UNL     1       2.534   2.832  19.122  0.00  0.00    +0.000 A 
ATOM     15  C   UNL     1       1.257   3.525  19.457  0.00  0.00    +0.000 A 
ATOM     16  C   UNL     1       1.013   3.978  20.752  0.00  0.00    +0.000 A 
ATOM     17  C   UNL     1       1.854   3.622  21.784  0.00  0.00    +0.000 A 
ATOM     18  C   UNL     1       2.892   2.713  21.556  0.00  0.00    +0.000 A 
ATOM     19  C   UNL     1       3.229   2.282  20.247  0.00  0.00    +0.000 A 
ENDBRANCH   7  14
BRANCH   1  20
ATOM     20  O   UNL     1       6.643   3.544  13.594  0.00  0.00    +0.000 OA
ATOM     21  H   UNL     1       7.029   4.198  12.983  0.00  0.00    +0.000 HD
ENDBRANCH   1  20
BRANCH  10  22
ATOM     22  C   UNL     1       3.130   7.457  17.876  0.00  0.00    +0.000 C 
BRANCH  22  23
ATOM     23  C   UNL     1       2.249   7.737  19.060  0.00  0.00    +0.000 C 
ATOM     24  C   UNL     1       1.732   8.953  19.305  0.00  0.00    +0.000 C 
BRANCH  24  25
ATOM     25  C   UNL     1       0.834   9.225  20.451  0.00  0.00    +0.000 A 
ATOM     26  C   UNL     1       0.064  10.403  20.540  0.00  0.00    +0.000 A 
ATOM     27  C   UNL     1      -0.716  10.655  21.668  0.00  0.00    +0.000 A 
ATOM     28  C   UNL     1      -0.736   9.741  22.720  0.00  0.00    +0.000 A 
ATOM     29  C   UNL     1       0.001   8.546  22.641  0.00  0.00    +0.000 A 
ATOM     30  C   UNL     1       0.804   8.302  21.498  0.00  0.00    +0.000 A 
ENDBRANCH  24  25
ENDBRANCH  22  23
ENDBRANCH  10  22
TORSDOF 5
ENDMDL
MODEL 6
REMARK VINA RESULT:      -8.2      3.919      9.164
REMARK  Name = 
REMARK  5 active torsions:
REMARK  status: ('A' for Active; 'I' for Inactive)
REMARK    1  A    between atoms: O_1  and  C_2
REMARK    2  A    between atoms: C_8  and  C_9
REMARK    3  A    between atoms: N_17  and  C_18
REMARK    4  A    between atoms: C_18  and  C_19
REMARK    5  A    between atoms: C_20  and  C_21
REMARK                            x       y       z     vdW  Elec       q    Type
REMARK                         _______ _______ _______ _____ _____    ______ ____
ROOT
ATOM      1  C   UNL     1       1.940  15.013  19.145  0.00  0.00    +0.000 A 
ATOM      2  C   UNL     1       2.926  14.111  18.732  0.00  0.00    +0.000 A 
ATOM      3  C   UNL     1       2.608  12.820  18.498  0.00  0.00    +0.000 A 
ATOM      4  C   UNL     1       1.319  12.404  18.658  0.00  0.00    +0.000 A 
ATOM      5  C   UNL     1       0.129  13.283  18.977  0.00  0.00    +0.000 A 
ATOM      6  C   UNL     1       0.555  14.625  19.264  0.00  0.00    +0.000 A 
ATOM      7  C   UNL     1      -1.506  12.673  19.066  0.00  0.00    +0.000 C 
ATOM      8  C   UNL     1      -1.763  12.788  20.585  0.00  0.00    +0.000 C 
ATOM      9  C   UNL     1      -1.101  11.668  21.359  0.00  0.00    +0.000 C 
ATOM     10  N   UNL     1       0.030  11.032  20.635  0.00  0.00    +0.000 NA
ATOM     11  C   UNL     1      -0.082  10.591  19.178  0.00  0.00    +0.000 C 
ATOM     12  C   UNL     1       1.191  10.892  18.501  0.00  0.00    +0.000 C 
ATOM     13  C   UNL     1      -0.970  11.476  18.293  0.00  0.00    +0.000 C 
ENDROOT
BRANCH   7  14
ATOM     14  C   UNL     1      -2.828  11.731  18.633  0.00  0.00    +0.000 A 
ATOM     15  C   UNL     1      -2.916  11.131  17.270  0.00  0.00    +0.000 A 
ATOM     16  C   UNL     1      -4.091  11.227  16.526  0.00  0.00    +0.000 A 
ATOM     17  C   UNL     1      -5.247  11.699  17.109  0.00  0.00    +0.000 A 
ATOM     18  C   UNL     1      -5.274  11.979  18.479  0.00  0.00    +0.000 A 
ATOM     19  C   UNL     1      -4.091  11.971  19.263  0.00  0.00    +0.000 A 
ENDBRANCH   7  14
BRANCH   1  20
ATOM     20  O   UNL     1       2.348  16.260  19.437  0.00  0.00    +0.000 OA
ATOM     21  H   UNL     1       1.842  16.809  20.064  0.00  0.00    +0.000 HD
ENDBRANCH   1  20
BRANCH  10  22
ATOM     22  C   UNL     1       0.657  10.027  21.505  0.00  0.00    +0.000 C 
BRANCH  22  23
ATOM     23  C   UNL     1       0.721   8.703  20.799  0.00  0.00    +0.000 C 
ATOM     24  C   UNL     1       1.860   7.999  20.683  0.00  0.00    +0.000 C 
BRANCH  24  25
ATOM     25  C   UNL     1       1.921   6.677  20.019  0.00  0.00    +0.000 A 
ATOM     26  C   UNL     1       2.366   6.522  18.690  0.00  0.00    +0.000 A 
ATOM     27  C   UNL     1       2.343   5.270  18.077  0.00  0.00    +0.000 A 
ATOM     28  C   UNL     1       1.874   4.159  18.778  0.00  0.00    +0.000 A 
ATOM     29  C   UNL     1       1.453   4.285  20.114  0.00  0.00    +0.000 A 
ATOM     30  C   UNL     1       1.464   5.562  20.727  0.00  0.00    +0.000 A 
ENDBRANCH  24  25
ENDBRANCH  22  23
ENDBRANCH  10  22
TORSDOF 5
ENDMDL
MODEL 7
REMARK VINA RESULT:      -8.0      1.483      2.097
REMARK  Name = 
REMARK  5 active torsions:
REMARK  status: ('A' for Active; 'I' for Inactive)
REMARK    1  A    between atoms: O_1  and  C_2
REMARK    2  A    between atoms: C_8  and  C_9
REMARK    3  A    between atoms: N_17  and  C_18
REMARK    4  A    between atoms: C_18  and  C_19
REMARK    5  A    between atoms: C_20  and  C_21
REMARK                            x       y       z     vdW  Elec       q    Type
REMARK                         _______ _______ _______ _____ _____    ______ ____
ROOT
ATOM      1  C   UNL     1       6.324   4.007  14.683  0.00  0.00    +0.000 A 
ATOM      2  C   UNL     1       7.122   5.045  15.178  0.00  0.00    +0.000 A 
ATOM      3  C   UNL     1       6.899   5.538  16.414  0.00  0.00    +0.000 A 
ATOM      4  C   UNL     1       5.900   5.013  17.181  0.00  0.00    +0.000 A 
ATOM      5  C   UNL     1       5.043   3.815  16.832  0.00  0.00    +0.000 A 
ATOM      6  C   UNL     1       5.300   3.383  15.485  0.00  0.00    +0.000 A 
ATOM      7  C   UNL     1       3.849   3.152  17.923  0.00  0.00    +0.000 C 
ATOM      8  C   UNL     1       2.550   3.551  17.189  0.00  0.00    +0.000 C 
ATOM      9  C   UNL     1       2.205   5.011  17.397  0.00  0.00    +0.000 C 
ATOM     10  N   UNL     1       3.372   5.848  17.783  0.00  0.00    +0.000 NA
ATOM     11  C   UNL     1       4.341   5.432  18.887  0.00  0.00    +0.000 C 
ATOM     12  C   UNL     1       5.705   5.801  18.471  0.00  0.00    +0.000 C 
ATOM     13  C   UNL     1       4.590   3.923  19.005  0.00  0.00    +0.000 C 
ENDROOT
BRANCH   7  14
ATOM     14  C   UNL     1       3.199   2.681  19.398  0.00  0.00    +0.000 A 
ATOM     15  C   UNL     1       1.859   2.029  19.462  0.00  0.00    +0.000 A 
ATOM     16  C   UNL     1       0.907   2.454  20.387  0.00  0.00    +0.000 A 
ATOM     17  C   UNL     1       1.251   3.340  21.384  0.00  0.00    +0.000 A 
ATOM     18  C   UNL     1       2.585   3.732  21.540  0.00  0.00    +0.000 A 
ATOM     19  C   UNL     1       3.575   3.392  20.584  0.00  0.00    +0.000 A 
ENDBRANCH   7  14
BRANCH   1  20
ATOM     20  O   UNL     1       6.552   3.625  13.414  0.00  0.00    +0.000 OA
ATOM     21  H   UNL     1       6.381   2.706  13.139  0.00  0.00    +0.000 HD
ENDBRANCH   1  20
BRANCH  10  22
ATOM     22  C   UNL     1       2.950   7.253  17.870  0.00  0.00    +0.000 C 
BRANCH  22  23
ATOM     23  C   UNL     1       2.340   7.525  19.215  0.00  0.00    +0.000 C 
ATOM     24  C   UNL     1       1.777   8.703  19.529  0.00  0.00    +0.000 C 
BRANCH  24  25
ATOM     25  C   UNL     1       1.142   8.964  20.841  0.00  0.00    +0.000 A 
ATOM     26  C   UNL     1       1.893   9.104  22.026  0.00  0.00    +0.000 A 
ATOM     27  C   UNL     1       1.254   9.279  23.253  0.00  0.00    +0.000 A 
ATOM     28  C   UNL     1      -0.138   9.314  23.316  0.00  0.00    +0.000 A 
ATOM     29  C   UNL     1      -0.907   9.206  22.143  0.00  0.00    +0.000 A 
ATOM     30  C   UNL     1      -0.253   9.013  20.901  0.00  0.00    +0.000 A 
ENDBRANCH  24  25
ENDBRANCH  22  23
ENDBRANCH  10  22
TORSDOF 5
ENDMDL
MODEL 8
REMARK VINA RESULT:      -8.0      3.886      7.048
REMARK  Name = 
REMARK  5 active torsions:
REMARK  status: ('A' for Active; 'I' for Inactive)
REMARK    1  A    between atoms: O_1  and  C_2
REMARK    2  A    between atoms: C_8  and  C_9
REMARK    3  A    between atoms: N_17  and  C_18
REMARK    4  A    between atoms: C_18  and  C_19
REMARK    5  A    between atoms: C_20  and  C_21
REMARK                            x       y       z     vdW  Elec       q    Type
REMARK                         _______ _______ _______ _____ _____    ______ ____
ROOT
ATOM      1  C   UNL     1       2.549   4.262  19.236  0.00  0.00    +0.000 A 
ATOM      2  C   UNL     1       2.504   5.582  19.697  0.00  0.00    +0.000 A 
ATOM      3  C   UNL     1       3.224   6.540  19.077  0.00  0.00    +0.000 A 
ATOM      4  C   UNL     1       3.987   6.216  17.994  0.00  0.00    +0.000 A 
ATOM      5  C   UNL     1       4.039   4.867  17.309  0.00  0.00    +0.000 A 
ATOM      6  C   UNL     1       3.294   3.892  18.057  0.00  0.00    +0.000 A 
ATOM      7  C   UNL     1       4.975   4.572  15.863  0.00  0.00    +0.000 C 
ATOM      8  C   UNL     1       6.088   3.665  16.433  0.00  0.00    +0.000 C 
ATOM      9  C   UNL     1       7.140   4.457  17.180  0.00  0.00    +0.000 C 
ATOM     10  N   UNL     1       6.660   5.782  17.655  0.00  0.00    +0.000 NA
ATOM     11  C   UNL     1       5.905   6.747  16.745  0.00  0.00    +0.000 C 
ATOM     12  C   UNL     1       4.841   7.393  17.534  0.00  0.00    +0.000 C 
ATOM     13  C   UNL     1       4.985   6.086  15.710  0.00  0.00    +0.000 C 
ENDROOT
BRANCH   7  14
ATOM     14  C   UNL     1       5.639   4.912  14.359  0.00  0.00    +0.000 A 
ATOM     15  C   UNL     1       5.172   4.184  13.143  0.00  0.00    +0.000 A 
ATOM     16  C   UNL     1       6.090   3.648  12.241  0.00  0.00    +0.000 A 
ATOM     17  C   UNL     1       7.430   3.950  12.349  0.00  0.00    +0.000 A 
ATOM     18  C   UNL     1       7.861   4.884  13.296  0.00  0.00    +0.000 A 
ATOM     19  C   UNL     1       6.984   5.399  14.285  0.00  0.00    +0.000 A 
ENDBRANCH   7  14
BRANCH   1  20
ATOM     20  O   UNL     1       1.871   3.349  19.953  0.00  0.00    +0.000 OA
ATOM     21  H   UNL     1       0.918   3.212  19.799  0.00  0.00    +0.000 HD
ENDBRANCH   1  20
BRANCH  10  22
ATOM     22  C   UNL     1       7.722   6.426  18.441  0.00  0.00    +0.000 C 
BRANCH  22  23
ATOM     23  C   UNL     1       7.895   7.852  18.001  0.00  0.00    +0.000 C 
ATOM     24  C   UNL     1       8.640   8.735  18.687  0.00  0.00    +0.000 C 
BRANCH  24  25
ATOM     25  C   UNL     1       8.843  10.132  18.238  0.00  0.00    +0.000 A 
ATOM     26  C   UNL     1      10.054  10.822  18.451  0.00  0.00    +0.000 A 
ATOM     27  C   UNL     1      10.181  12.159  18.076  0.00  0.00    +0.000 A 
ATOM     28  C   UNL     1       9.106  12.824  17.489  0.00  0.00    +0.000 A 
ATOM     29  C   UNL     1       7.898  12.147  17.241  0.00  0.00    +0.000 A 
ATOM     30  C   UNL     1       7.769  10.793  17.638  0.00  0.00    +0.000 A 
ENDBRANCH  24  25
ENDBRANCH  22  23
ENDBRANCH  10  22
TORSDOF 5
ENDMDL
MODEL 9
REMARK VINA RESULT:      -7.7      2.794      6.908
REMARK  Name = 
REMARK  5 active torsions:
REMARK  status: ('A' for Active; 'I' for Inactive)
REMARK    1  A    between atoms: O_1  and  C_2
REMARK    2  A    between atoms: C_8  and  C_9
REMARK    3  A    between atoms: N_17  and  C_18
REMARK    4  A    between atoms: C_18  and  C_19
REMARK    5  A    between atoms: C_20  and  C_21
REMARK                            x       y       z     vdW  Elec       q    Type
REMARK                         _______ _______ _______ _____ _____    ______ ____
ROOT
ATOM      1  C   UNL     1       1.354   9.031  21.311  0.00  0.00    +0.000 A 
ATOM      2  C   UNL     1       1.323   9.858  20.183  0.00  0.00    +0.000 A 
ATOM      3  C   UNL     1       1.561   9.342  18.959  0.00  0.00    +0.000 A 
ATOM      4  C   UNL     1       1.822   8.010  18.827  0.00  0.00    +0.000 A 
ATOM      5  C   UNL     1       1.766   6.975  19.931  0.00  0.00    +0.000 A 
ATOM      6  C   UNL     1       1.563   7.607  21.206  0.00  0.00    +0.000 A 
ATOM      7  C   UNL     1       2.020   5.270  19.648  0.00  0.00    +0.000 C 
ATOM      8  C   UNL     1       3.387   5.074  20.341  0.00  0.00    +0.000 C 
ATOM      9  C   UNL     1       4.533   5.579  19.489  0.00  0.00    +0.000 C 
ATOM     10  N   UNL     1       4.120   6.582  18.472  0.00  0.00    +0.000 NA
ATOM     11  C   UNL     1       2.918   6.365  17.558  0.00  0.00    +0.000 C 
ATOM     12  C   UNL     1       2.217   7.651  17.399  0.00  0.00    +0.000 C 
ATOM     13  C   UNL     1       1.747   5.597  18.187  0.00  0.00    +0.000 C 
ENDROOT
BRANCH   7  14
ATOM     14  C   UNL     1       1.916   3.810  18.824  0.00  0.00    +0.000 A 
ATOM     15  C   UNL     1       2.099   2.518  19.547  0.00  0.00    +0.000 A 
ATOM     16  C   UNL     1       2.933   1.528  19.031  0.00  0.00    +0.000 A 
ATOM     17  C   UNL     1       3.444   1.642  17.756  0.00  0.00    +0.000 A 
ATOM     18  C   UNL     1       3.037   2.698  16.933  0.00  0.00    +0.000 A 
ATOM     19  C   UNL     1       2.253   3.769  17.433  0.00  0.00    +0.000 A 
ENDBRANCH   7  14
BRANCH   1  20
ATOM     20  O   UNL     1       1.188   9.631  22.502  0.00  0.00    +0.000 OA
ATOM     21  H   UNL     1       1.909   9.628  23.158  0.00  0.00    +0.000 HD
ENDBRANCH   1  20
BRANCH  10  22
ATOM     22  C   UNL     1       5.313   7.072  17.767  0.00  0.00    +0.000 C 
BRANCH  22  23
ATOM     23  C   UNL     1       5.409   6.432  16.411  0.00  0.00    +0.000 C 
ATOM     24  C   UNL     1       6.421   5.620  16.064  0.00  0.00    +0.000 C 
BRANCH  24  25
ATOM     25  C   UNL     1       6.501   4.958  14.742  0.00  0.00    +0.000 A 
ATOM     26  C   UNL     1       7.533   5.237  13.822  0.00  0.00    +0.000 A 
ATOM     27  C   UNL     1       7.534   4.646  12.559  0.00  0.00    +0.000 A 
ATOM     28  C   UNL     1       6.509   3.774  12.196  0.00  0.00    +0.000 A 
ATOM     29  C   UNL     1       5.486   3.458  13.108  0.00  0.00    +0.000 A 
ATOM     30  C   UNL     1       5.481   4.074  14.385  0.00  0.00    +0.000 A 
ENDBRANCH  24  25
ENDBRANCH  22  23
ENDBRANCH  10  22
TORSDOF 5
ENDMDL
