MODEL 1
REMARK VINA RESULT:      -8.3      0.000      0.000
REMARK  Name = 
REMARK  8 active torsions:
REMARK  status: ('A' for Active; 'I' for Inactive)
REMARK    1  A    between atoms: C_4  and  C_5
REMARK    2  A    between atoms: C_5  and  C_6
REMARK    3  A    between atoms: C_6  and  C_7
REMARK    4  A    between atoms: C_7  and  C_8
REMARK    5  A    between atoms: C_8  and  C_9
REMARK    6  A    between atoms: C_8  and  C_17
REMARK    7  A    between atoms: C_9  and  S_10
REMARK    8  A    between atoms: S_10  and  C_11
REMARK                            x       y       z     vdW  Elec       q    Type
REMARK                         _______ _______ _______ _____ _____    ______ ____
ROOT
ATOM      1  C   UNL     1       7.328   5.940  17.632  0.00  0.00    +0.000 C 
ENDROOT
BRANCH   1   2
ATOM      2  C   UNL     1       7.014   5.209  16.360  0.00  0.00    +0.000 A 
ATOM      3  N   UNL     1       6.404   4.052  16.209  0.00  0.00    +0.000 NA
ATOM      4  N   UNL     1       6.380   3.807  14.858  0.00  0.00    +0.000 NA
ATOM      5  N   UNL     1       6.959   4.793  14.186  0.00  0.00    +0.000 NA
ATOM      6  N   UNL     1       7.366   5.661  15.119  0.00  0.00    +0.000 N 
ATOM      7  H   UNL     1       7.861   6.499  14.846  0.00  0.00    +0.000 HD
ENDBRANCH   1   2
BRANCH   1   8
ATOM      8  C   UNL     1       7.337   7.459  17.342  0.00  0.00    +0.000 C 
BRANCH   8   9
ATOM      9  C   UNL     1       8.271   8.305  18.212  0.00  0.00    +0.000 C 
BRANCH   9  10
ATOM     10  C   UNL     1       8.164   9.814  17.966  0.00  0.00    +0.000 C 
BRANCH  10  14
ATOM     11  C   UNL     1      11.387  11.987  19.832  0.00  0.00    +0.000 A 
ATOM     12  C   UNL     1      10.357  11.460  20.609  0.00  0.00    +0.000 A 
ATOM     13  C   UNL     1       9.325  10.742  20.006  0.00  0.00    +0.000 A 
ATOM     14  C   UNL     1       9.313  10.544  18.618  0.00  0.00    +0.000 A 
ATOM     15  C   UNL     1      10.352  11.077  17.845  0.00  0.00    +0.000 A 
ATOM     16  C   UNL     1      11.385  11.794  18.452  0.00  0.00    +0.000 A 
ENDBRANCH  10  14
ENDBRANCH   9  10
ENDBRANCH   8   9
ENDBRANCH   1   8
BRANCH   1  17
ATOM     17  C   UNL     1       6.322   5.549  18.738  0.00  0.00    +0.000 C 
BRANCH  17  18
ATOM     18  S   UNL     1       4.618   5.981  18.218  0.00  0.00    +0.000 S 
BRANCH  18  19
ATOM     19  C   UNL     1       3.586   4.988  19.387  0.00  0.00    +0.000 C 
ATOM     20  C   UNL     1       2.080   4.960  19.094  0.00  0.00    +0.000 C 
ATOM     21  C   UNL     1       1.746   4.282  17.767  0.00  0.00    +0.000 C 
ATOM     22  C   UNL     1       2.324   2.870  17.691  0.00  0.00    +0.000 C 
ATOM     23  C   UNL     1       3.804   2.805  18.065  0.00  0.00    +0.000 C 
ATOM     24  C   UNL     1       4.114   3.543  19.373  0.00  0.00    +0.000 C 
ENDBRANCH  18  19
ENDBRANCH  17  18
ENDBRANCH   1  17
TORSDOF 8
ENDMDL
MODEL 2
REMARK VINA RESULT:      -8.1      0.803      1.631
REMARK  Name = 
REMARK  8 active torsions:
REMARK  status: ('A' for Active; 'I' for Inactive)
REMARK    1  A    between atoms: C_4  and  C_5
REMARK    2  A    between atoms: C_5  and  C_6
REMARK    3  A    between atoms: C_6  and  C_7
REMARK    4  A    between atoms: C_7  and  C_8
REMARK    5  A    between atoms: C_8  and  C_9
REMARK    6  A    between atoms: C_8  and  C_17
REMARK    7  A    between atoms: C_9  and  S_10
REMARK    8  A    between atoms: S_10  and  C_11
REMARK                            x       y       z     vdW  Elec       q    Type
REMARK                         _______ _______ _______ _____ _____    ______ ____
ROOT
ATOM      1  C   UNL     1       7.429   6.123  18.006  0.00  0.00    +0.000 C 
ENDROOT
BRANCH   1   2
ATOM      2  C   UNL     1       7.114   5.547  16.657  0.00  0.00    +0.000 A 
ATOM      3  N   UNL     1       7.468   4.379  16.162  0.00  0.00    +0.000 NA
ATOM      4  N   UNL     1       6.953   4.333  14.889  0.00  0.00    +0.000 NA
ATOM      5  N   UNL     1       6.292   5.446  14.603  0.00  0.00    +0.000 NA
ATOM      6  N   UNL     1       6.401   6.209  15.697  0.00  0.00    +0.000 N 
ATOM      7  H   UNL     1       5.988   7.131  15.711  0.00  0.00    +0.000 HD
ENDBRANCH   1   2
BRANCH   1   8
ATOM      8  C   UNL     1       7.208   7.653  17.955  0.00  0.00    +0.000 C 
BRANCH   8   9
ATOM      9  C   UNL     1       8.443   8.521  18.212  0.00  0.00    +0.000 C 
BRANCH   9  10
ATOM     10  C   UNL     1       8.220  10.019  17.977  0.00  0.00    +0.000 C 
BRANCH  10  14
ATOM     11  C   UNL     1      11.444  12.250  19.769  0.00  0.00    +0.000 A 
ATOM     12  C   UNL     1      11.381  12.103  18.385  0.00  0.00    +0.000 A 
ATOM     13  C   UNL     1      10.327  11.397  17.805  0.00  0.00    +0.000 A 
ATOM     14  C   UNL     1       9.326  10.829  18.606  0.00  0.00    +0.000 A 
ATOM     15  C   UNL     1       9.399  10.981  19.997  0.00  0.00    +0.000 A 
ATOM     16  C   UNL     1      10.453  11.691  20.574  0.00  0.00    +0.000 A 
ENDBRANCH  10  14
ENDBRANCH   9  10
ENDBRANCH   8   9
ENDBRANCH   1   8
BRANCH   1  17
ATOM     17  C   UNL     1       6.580   5.433  19.096  0.00  0.00    +0.000 C 
BRANCH  17  18
ATOM     18  S   UNL     1       4.797   5.602  18.704  0.00  0.00    +0.000 S 
BRANCH  18  19
ATOM     19  C   UNL     1       4.292   3.850  18.399  0.00  0.00    +0.000 C 
ATOM     20  C   UNL     1       3.767   3.081  19.619  0.00  0.00    +0.000 C 
ATOM     21  C   UNL     1       2.469   3.664  20.175  0.00  0.00    +0.000 C 
ATOM     22  C   UNL     1       1.385   3.755  19.102  0.00  0.00    +0.000 C 
ATOM     23  C   UNL     1       1.865   4.426  17.816  0.00  0.00    +0.000 C 
ATOM     24  C   UNL     1       3.198   3.856  17.317  0.00  0.00    +0.000 C 
ENDBRANCH  18  19
ENDBRANCH  17  18
ENDBRANCH   1  17
TORSDOF 8
ENDMDL
MODEL 3
REMARK VINA RESULT:      -8.1      4.147      5.662
REMARK  Name = 
REMARK  8 active torsions:
REMARK  status: ('A' for Active; 'I' for Inactive)
REMARK    1  A    between atoms: C_4  and  C_5
REMARK    2  A    between atoms: C_5  and  C_6
REMARK    3  A    between atoms: C_6  and  C_7
REMARK    4  A    between atoms: C_7  and  C_8
REMARK    5  A    between atoms: C_8  and  C_9
REMARK    6  A    between atoms: C_8  and  C_17
REMARK    7  A    between atoms: C_9  and  S_10
REMARK    8  A    between atoms: S_10  and  C_11
REMARK                            x       y       z     vdW  Elec       q    Type
REMARK                         _______ _______ _______ _____ _____    ______ ____
ROOT
ATOM      1  C   UNL     1       5.413   6.138  17.784  0.00  0.00    +0.000 C 
ENDROOT
BRANCH   1   2
ATOM      2  C   UNL     1       6.229   5.639  16.628  0.00  0.00    +0.000 A 
ATOM      3  N   UNL     1       7.329   4.916  16.653  0.00  0.00    +0.000 NA
ATOM      4  N   UNL     1       7.700   4.741  15.342  0.00  0.00    +0.000 NA
ATOM      5  N   UNL     1       6.848   5.340  14.523  0.00  0.00    +0.000 NA
ATOM      6  N   UNL     1       5.938   5.911  15.321  0.00  0.00    +0.000 N 
ATOM      7  H   UNL     1       5.185   6.453  14.919  0.00  0.00    +0.000 HD
ENDBRANCH   1   2
BRANCH   1   8
ATOM      8  C   UNL     1       4.193   6.912  17.232  0.00  0.00    +0.000 C 
BRANCH   8   9
ATOM      9  C   UNL     1       2.996   7.046  18.178  0.00  0.00    +0.000 C 
BRANCH   9  10
ATOM     10  C   UNL     1       2.138   8.292  17.934  0.00  0.00    +0.000 C 
BRANCH  10  14
ATOM     11  C   UNL     1       0.325   9.651  21.602  0.00  0.00    +0.000 A 
ATOM     12  C   UNL     1       0.118  10.355  20.418  0.00  0.00    +0.000 A 
ATOM     13  C   UNL     1       0.691   9.904  19.228  0.00  0.00    +0.000 A 
ATOM     14  C   UNL     1       1.476   8.743  19.213  0.00  0.00    +0.000 A 
ATOM     15  C   UNL     1       1.679   8.042  20.409  0.00  0.00    +0.000 A 
ATOM     16  C   UNL     1       1.103   8.494  21.597  0.00  0.00    +0.000 A 
ENDBRANCH  10  14
ENDBRANCH   9  10
ENDBRANCH   8   9
ENDBRANCH   1   8
BRANCH   1  17
ATOM     17  C   UNL     1       5.010   4.963  18.702  0.00  0.00    +0.000 C 
BRANCH  17  18
ATOM     18  S   UNL     1       4.028   3.737  17.758  0.00  0.00    +0.000 S 
BRANCH  18  19
ATOM     19  C   UNL     1       3.447   2.590  19.086  0.00  0.00    +0.000 C 
ATOM     20  C   UNL     1       3.295   3.205  20.484  0.00  0.00    +0.000 C 
ATOM     21  C   UNL     1       2.217   4.286  20.543  0.00  0.00    +0.000 C 
ATOM     22  C   UNL     1       0.869   3.768  20.045  0.00  0.00    +0.000 C 
ATOM     23  C   UNL     1       0.958   3.055  18.697  0.00  0.00    +0.000 C 
ATOM     24  C   UNL     1       2.085   2.017  18.653  0.00  0.00    +0.000 C 
ENDBRANCH  18  19
ENDBRANCH  17  18
ENDBRANCH   1  17
TORSDOF 8
ENDMDL
MODEL 4
REMARK VINA RESULT:      -8.1      4.438      5.931
REMARK  Name = 
REMARK  8 active torsions:
REMARK  status: ('A' for Active; 'I' for Inactive)
REMARK    1  A    between atoms: C_4  and  C_5
REMARK    2  A    between atoms: C_5  and  C_6
REMARK    3  A    between atoms: C_6  and  C_7
REMARK    4  A    between atoms: C_7  and  C_8
REMARK    5  A    between atoms: C_8  and  C_9
REMARK    6  A    between atoms: C_8  and  C_17
REMARK    7  A    between atoms: C_9  and  S_10
REMARK    8  A    between atoms: S_10  and  C_11
REMARK                            x       y       z     vdW  Elec       q    Type
REMARK                         _______ _______ _______ _____ _____    ______ ____
ROOT
ATOM      1  C   UNL     1       4.761   5.412  17.966  0.00  0.00    +0.000 C 
ENDROOT
BRANCH   1   2
ATOM      2  C   UNL     1       6.089   5.551  18.650  0.00  0.00    +0.000 A 
ATOM      3  N   UNL     1       6.491   5.001  19.776  0.00  0.00    +0.000 NA
ATOM      4  N   UNL     1       7.771   5.453  19.985  0.00  0.00    +0.000 NA
ATOM      5  N   UNL     1       8.155   6.264  19.008  0.00  0.00    +0.000 NA
ATOM      6  N   UNL     1       7.104   6.337  18.182  0.00  0.00    +0.000 N 
ATOM      7  H   UNL     1       7.151   6.922  17.359  0.00  0.00    +0.000 HD
ENDBRANCH   1   2
BRANCH   1   8
ATOM      8  C   UNL     1       4.569   6.611  17.007  0.00  0.00    +0.000 C 
BRANCH   8   9
ATOM      9  C   UNL     1       3.511   7.639  17.418  0.00  0.00    +0.000 C 
BRANCH   9  10
ATOM     10  C   UNL     1       2.546   7.149  18.504  0.00  0.00    +0.000 C 
BRANCH  10  14
ATOM     11  C   UNL     1       0.400  10.500  20.164  0.00  0.00    +0.000 A 
ATOM     12  C   UNL     1       0.710  10.472  18.806  0.00  0.00    +0.000 A 
ATOM     13  C   UNL     1       1.388   9.379  18.266  0.00  0.00    +0.000 A 
ATOM     14  C   UNL     1       1.764   8.302  19.082  0.00  0.00    +0.000 A 
ATOM     15  C   UNL     1       1.449   8.339  20.447  0.00  0.00    +0.000 A 
ATOM     16  C   UNL     1       0.768   9.433  20.983  0.00  0.00    +0.000 A 
ENDBRANCH  10  14
ENDBRANCH   9  10
ENDBRANCH   8   9
ENDBRANCH   1   8
BRANCH   1  17
ATOM     17  C   UNL     1       4.669   4.050  17.244  0.00  0.00    +0.000 C 
BRANCH  17  18
ATOM     18  S   UNL     1       2.940   3.439  17.273  0.00  0.00    +0.000 S 
BRANCH  18  19
ATOM     19  C   UNL     1       2.941   2.322  18.746  0.00  0.00    +0.000 C 
ATOM     20  C   UNL     1       3.503   2.921  20.042  0.00  0.00    +0.000 C 
ATOM     21  C   UNL     1       2.670   4.089  20.566  0.00  0.00    +0.000 C 
ATOM     22  C   UNL     1       1.205   3.699  20.757  0.00  0.00    +0.000 C 
ATOM     23  C   UNL     1       0.602   3.007  19.535  0.00  0.00    +0.000 C 
ATOM     24  C   UNL     1       1.490   1.877  19.001  0.00  0.00    +0.000 C 
ENDBRANCH  18  19
ENDBRANCH  17  18
ENDBRANCH   1  17
TORSDOF 8
ENDMDL
MODEL 5
REMARK VINA RESULT:      -8.0      4.102      5.931
REMARK  Name = 
REMARK  8 active torsions:
REMARK  status: ('A' for Active; 'I' for Inactive)
REMARK    1  A    between atoms: C_4  and  C_5
REMARK    2  A    between atoms: C_5  and  C_6
REMARK    3  A    between atoms: C_6  and  C_7
REMARK    4  A    between atoms: C_7  and  C_8
REMARK    5  A    between atoms: C_8  and  C_9
REMARK    6  A    between atoms: C_8  and  C_17
REMARK    7  A    between atoms: C_9  and  S_10
REMARK    8  A    between atoms: S_10  and  C_11
REMARK                            x       y       z     vdW  Elec       q    Type
REMARK                         _______ _______ _______ _____ _____    ______ ____
ROOT
ATOM      1  C   UNL     1       4.880   5.536  18.520  0.00  0.00    +0.000 C 
ENDROOT
BRANCH   1   2
ATOM      2  C   UNL     1       6.135   6.274  18.159  0.00  0.00    +0.000 A 
ATOM      3  N   UNL     1       7.303   6.250  18.767  0.00  0.00    +0.000 NA
ATOM      4  N   UNL     1       8.115   7.107  18.066  0.00  0.00    +0.000 NA
ATOM      5  N   UNL     1       7.466   7.649  17.044  0.00  0.00    +0.000 NA
ATOM      6  N   UNL     1       6.230   7.141  17.108  0.00  0.00    +0.000 N 
ATOM      7  H   UNL     1       5.533   7.427  16.432  0.00  0.00    +0.000 HD
ENDBRANCH   1   2
BRANCH   1   8
ATOM      8  C   UNL     1       3.804   5.834  17.449  0.00  0.00    +0.000 C 
BRANCH   8   9
ATOM      9  C   UNL     1       2.518   6.495  17.951  0.00  0.00    +0.000 C 
BRANCH   9  10
ATOM     10  C   UNL     1       2.565   8.027  17.972  0.00  0.00    +0.000 C 
BRANCH  10  14
ATOM     11  C   UNL     1       0.153   9.510  21.224  0.00  0.00    +0.000 A 
ATOM     12  C   UNL     1       0.937   8.370  21.397  0.00  0.00    +0.000 A 
ATOM     13  C   UNL     1       1.730   7.902  20.351  0.00  0.00    +0.000 A 
ATOM     14  C   UNL     1       1.747   8.570  19.118  0.00  0.00    +0.000 A 
ATOM     15  C   UNL     1       0.956   9.715  18.952  0.00  0.00    +0.000 A 
ATOM     16  C   UNL     1       0.165  10.182  20.002  0.00  0.00    +0.000 A 
ENDBRANCH  10  14
ENDBRANCH   9  10
ENDBRANCH   8   9
ENDBRANCH   1   8
BRANCH   1  17
ATOM     17  C   UNL     1       5.170   4.027  18.673  0.00  0.00    +0.000 C 
BRANCH  17  18
ATOM     18  S   UNL     1       3.828   3.048  17.895  0.00  0.00    +0.000 S 
BRANCH  18  19
ATOM     19  C   UNL     1       3.095   2.164  19.343  0.00  0.00    +0.000 C 
ATOM     20  C   UNL     1       3.176   2.898  20.689  0.00  0.00    +0.000 C 
ATOM     21  C   UNL     1       2.374   4.197  20.706  0.00  0.00    +0.000 C 
ATOM     22  C   UNL     1       0.914   3.966  20.319  0.00  0.00    +0.000 C 
ATOM     23  C   UNL     1       0.752   3.156  19.034  0.00  0.00    +0.000 C 
ATOM     24  C   UNL     1       1.614   1.887  19.026  0.00  0.00    +0.000 C 
ENDBRANCH  18  19
ENDBRANCH  17  18
ENDBRANCH   1  17
TORSDOF 8
ENDMDL
MODEL 6
REMARK VINA RESULT:      -8.0      4.054      5.609
REMARK  Name = 
REMARK  8 active torsions:
REMARK  status: ('A' for Active; 'I' for Inactive)
REMARK    1  A    between atoms: C_4  and  C_5
REMARK    2  A    between atoms: C_5  and  C_6
REMARK    3  A    between atoms: C_6  and  C_7
REMARK    4  A    between atoms: C_7  and  C_8
REMARK    5  A    between atoms: C_8  and  C_9
REMARK    6  A    between atoms: C_8  and  C_17
REMARK    7  A    between atoms: C_9  and  S_10
REMARK    8  A    between atoms: S_10  and  C_11
REMARK                            x       y       z     vdW  Elec       q    Type
REMARK                         _______ _______ _______ _____ _____    ______ ____
ROOT
ATOM      1  C   UNL     1       5.356   6.449  17.782  0.00  0.00    +0.000 C 
ENDROOT
BRANCH   1   2
ATOM      2  C   UNL     1       6.143   5.956  16.604  0.00  0.00    +0.000 A 
ATOM      3  N   UNL     1       7.338   5.403  16.591  0.00  0.00    +0.000 NA
ATOM      4  N   UNL     1       7.626   5.150  15.272  0.00  0.00    +0.000 NA
ATOM      5  N   UNL     1       6.630   5.534  14.485  0.00  0.00    +0.000 NA
ATOM      6  N   UNL     1       5.711   6.048  15.311  0.00  0.00    +0.000 N 
ATOM      7  H   UNL     1       4.855   6.432  14.934  0.00  0.00    +0.000 HD
ENDBRANCH   1   2
BRANCH   1   8
ATOM      8  C   UNL     1       4.033   7.067  17.271  0.00  0.00    +0.000 C 
BRANCH   8   9
ATOM      9  C   UNL     1       2.924   7.239  18.312  0.00  0.00    +0.000 C 
BRANCH   9  10
ATOM     10  C   UNL     1       1.965   8.400  18.024  0.00  0.00    +0.000 C 
BRANCH  10  14
ATOM     11  C   UNL     1       0.281   9.942  21.681  0.00  0.00    +0.000 A 
ATOM     12  C   UNL     1       0.954   8.723  21.681  0.00  0.00    +0.000 A 
ATOM     13  C   UNL     1       1.514   8.233  20.502  0.00  0.00    +0.000 A 
ATOM     14  C   UNL     1       1.406   8.961  19.308  0.00  0.00    +0.000 A 
ATOM     15  C   UNL     1       0.727  10.186  19.317  0.00  0.00    +0.000 A 
ATOM     16  C   UNL     1       0.169  10.675  20.499  0.00  0.00    +0.000 A 
ENDBRANCH  10  14
ENDBRANCH   9  10
ENDBRANCH   8   9
ENDBRANCH   1   8
BRANCH   1  17
ATOM     17  C   UNL     1       5.129   5.303  18.793  0.00  0.00    +0.000 C 
BRANCH  17  18
ATOM     18  S   UNL     1       4.188   3.944  18.000  0.00  0.00    +0.000 S 
BRANCH  18  19
ATOM     19  C   UNL     1       3.689   2.912  19.451  0.00  0.00    +0.000 C 
ATOM     20  C   UNL     1       3.009   3.661  20.604  0.00  0.00    +0.000 C 
ATOM     21  C   UNL     1       1.666   4.271  20.207  0.00  0.00    +0.000 C 
ATOM     22  C   UNL     1       0.718   3.223  19.628  0.00  0.00    +0.000 C 
ATOM     23  C   UNL     1       1.358   2.370  18.534  0.00  0.00    +0.000 C 
ATOM     24  C   UNL     1       2.730   1.820  18.945  0.00  0.00    +0.000 C 
ENDBRANCH  18  19
ENDBRANCH  17  18
ENDBRANCH   1  17
TORSDOF 8
ENDMDL
MODEL 7
REMARK VINA RESULT:      -8.0      4.448      5.590
REMARK  Name = 
REMARK  8 active torsions:
REMARK  status: ('A' for Active; 'I' for Inactive)
REMARK    1  A    between atoms: C_4  and  C_5
REMARK    2  A    between atoms: C_5  and  C_6
REMARK    3  A    between atoms: C_6  and  C_7
REMARK    4  A    between atoms: C_7  and  C_8
REMARK    5  A    between atoms: C_8  and  C_9
REMARK    6  A    between atoms: C_8  and  C_17
REMARK    7  A    between atoms: C_9  and  S_10
REMARK    8  A    between atoms: S_10  and  C_11
REMARK                            x       y       z     vdW  Elec       q    Type
REMARK                         _______ _______ _______ _____ _____    ______ ____
ROOT
ATOM      1  C   UNL     1       5.333   5.316  17.240  0.00  0.00    +0.000 C 
ENDROOT
BRANCH   1   2
ATOM      2  C   UNL     1       6.033   5.101  15.930  0.00  0.00    +0.000 A 
ATOM      3  N   UNL     1       5.677   4.325  14.929  0.00  0.00    +0.000 NA
ATOM      4  N   UNL     1       6.655   4.460  13.974  0.00  0.00    +0.000 NA
ATOM      5  N   UNL     1       7.596   5.304  14.374  0.00  0.00    +0.000 NA
ATOM      6  N   UNL     1       7.218   5.695  15.597  0.00  0.00    +0.000 N 
ATOM      7  H   UNL     1       7.798   6.335  16.123  0.00  0.00    +0.000 HD
ENDBRANCH   1   2
BRANCH   1   8
ATOM      8  C   UNL     1       4.506   6.620  17.152  0.00  0.00    +0.000 C 
BRANCH   8   9
ATOM      9  C   UNL     1       3.083   6.554  17.713  0.00  0.00    +0.000 C 
BRANCH   9  10
ATOM     10  C   UNL     1       2.956   7.030  19.164  0.00  0.00    +0.000 C 
BRANCH  10  14
ATOM     11  C   UNL     1       0.015  10.168  19.466  0.00  0.00    +0.000 A 
ATOM     12  C   UNL     1       0.352   9.416  20.589  0.00  0.00    +0.000 A 
ATOM     13  C   UNL     1       1.317   8.413  20.495  0.00  0.00    +0.000 A 
ATOM     14  C   UNL     1       1.954   8.153  19.273  0.00  0.00    +0.000 A 
ATOM     15  C   UNL     1       1.609   8.913  18.148  0.00  0.00    +0.000 A 
ATOM     16  C   UNL     1       0.644   9.918  18.247  0.00  0.00    +0.000 A 
ENDBRANCH  10  14
ENDBRANCH   9  10
ENDBRANCH   8   9
ENDBRANCH   1   8
BRANCH   1  17
ATOM     17  C   UNL     1       4.472   4.085  17.596  0.00  0.00    +0.000 C 
BRANCH  17  18
ATOM     18  S   UNL     1       4.637   3.698  19.380  0.00  0.00    +0.000 S 
BRANCH  18  19
ATOM     19  C   UNL     1       3.338   2.406  19.626  0.00  0.00    +0.000 C 
ATOM     20  C   UNL     1       2.667   2.382  21.005  0.00  0.00    +0.000 C 
ATOM     21  C   UNL     1       1.872   3.652  21.301  0.00  0.00    +0.000 C 
ATOM     22  C   UNL     1       0.835   3.935  20.216  0.00  0.00    +0.000 C 
ATOM     23  C   UNL     1       1.412   3.881  18.802  0.00  0.00    +0.000 C 
ATOM     24  C   UNL     1       2.251   2.621  18.557  0.00  0.00    +0.000 C 
ENDBRANCH  18  19
ENDBRANCH  17  18
ENDBRANCH   1  17
TORSDOF 8
ENDMDL
MODEL 8
REMARK VINA RESULT:      -7.9      4.556      5.752
REMARK  Name = 
REMARK  8 active torsions:
REMARK  status: ('A' for Active; 'I' for Inactive)
REMARK    1  A    between atoms: C_4  and  C_5
REMARK    2  A    between atoms: C_5  and  C_6
REMARK    3  A    between atoms: C_6  and  C_7
REMARK    4  A    between atoms: C_7  and  C_8
REMARK    5  A    between atoms: C_8  and  C_9
REMARK    6  A    between atoms: C_8  and  C_17
REMARK    7  A    between atoms: C_9  and  S_10
REMARK    8  A    between atoms: S_10  and  C_11
REMARK                            x       y       z     vdW  Elec       q    Type
REMARK                         _______ _______ _______ _____ _____    ______ ____
ROOT
ATOM      1  C   UNL     1       5.040   4.936  17.147  0.00  0.00    +0.000 C 
ENDROOT
BRANCH   1   2
ATOM      2  C   UNL     1       6.038   5.090  16.038  0.00  0.00    +0.000 A 
ATOM      3  N   UNL     1       7.216   5.678  16.072  0.00  0.00    +0.000 NA
ATOM      4  N   UNL     1       7.731   5.573  14.803  0.00  0.00    +0.000 NA
ATOM      5  N   UNL     1       6.892   4.931  14.001  0.00  0.00    +0.000 NA
ATOM      6  N   UNL     1       5.832   4.641  14.764  0.00  0.00    +0.000 N 
ATOM      7  H   UNL     1       5.038   4.161  14.362  0.00  0.00    +0.000 HD
ENDBRANCH   1   2
BRANCH   1   8
ATOM      8  C   UNL     1       3.930   5.998  16.967  0.00  0.00    +0.000 C 
BRANCH   8   9
ATOM      9  C   UNL     1       3.838   7.068  18.058  0.00  0.00    +0.000 C 
BRANCH   9  10
ATOM     10  C   UNL     1       2.924   6.694  19.230  0.00  0.00    +0.000 C 
BRANCH  10  14
ATOM     11  C   UNL     1       0.310   9.990  20.173  0.00  0.00    +0.000 A 
ATOM     12  C   UNL     1       0.881   9.892  18.906  0.00  0.00    +0.000 A 
ATOM     13  C   UNL     1       1.712   8.816  18.597  0.00  0.00    +0.000 A 
ATOM     14  C   UNL     1       1.980   7.826  19.553  0.00  0.00    +0.000 A 
ATOM     15  C   UNL     1       1.401   7.933  20.825  0.00  0.00    +0.000 A 
ATOM     16  C   UNL     1       0.568   9.011  21.131  0.00  0.00    +0.000 A 
ENDBRANCH  10  14
ENDBRANCH   9  10
ENDBRANCH   8   9
ENDBRANCH   1   8
BRANCH   1  17
ATOM     17  C   UNL     1       4.489   3.494  17.176  0.00  0.00    +0.000 C 
BRANCH  17  18
ATOM     18  S   UNL     1       2.656   3.523  17.225  0.00  0.00    +0.000 S 
BRANCH  18  19
ATOM     19  C   UNL     1       2.273   2.200  18.457  0.00  0.00    +0.000 C 
ATOM     20  C   UNL     1       3.262   2.061  19.622  0.00  0.00    +0.000 C 
ATOM     21  C   UNL     1       3.295   3.294  20.523  0.00  0.00    +0.000 C 
ATOM     22  C   UNL     1       1.904   3.647  21.050  0.00  0.00    +0.000 C 
ATOM     23  C   UNL     1       0.842   3.709  19.954  0.00  0.00    +0.000 C 
ATOM     24  C   UNL     1       0.874   2.482  19.034  0.00  0.00    +0.000 C 
ENDBRANCH  18  19
ENDBRANCH  17  18
ENDBRANCH   1  17
TORSDOF 8
ENDMDL
MODEL 9
REMARK VINA RESULT:      -7.9      4.098      5.558
REMARK  Name = 
REMARK  8 active torsions:
REMARK  status: ('A' for Active; 'I' for Inactive)
REMARK    1  A    between atoms: C_4  and  C_5
REMARK    2  A    between atoms: C_5  and  C_6
REMARK    3  A    between atoms: C_6  and  C_7
REMARK    4  A    between atoms: C_7  and  C_8
REMARK    5  A    between atoms: C_8  and  C_9
REMARK    6  A    between atoms: C_8  and  C_17
REMARK    7  A    between atoms: C_9  and  S_10
REMARK    8  A    between atoms: S_10  and  C_11
REMARK                            x       y       z     vdW  Elec       q    Type
REMARK                         _______ _______ _______ _____ _____    ______ ____
ROOT
ATOM      1  C   UNL     1       5.728   4.882  17.033  0.00  0.00    +0.000 C 
ENDROOT
BRANCH   1   2
ATOM      2  C   UNL     1       6.449   4.934  15.719  0.00  0.00    +0.000 A 
ATOM      3  N   UNL     1       7.445   5.717  15.362  0.00  0.00    +0.000 NA
ATOM      4  N   UNL     1       7.736   5.395  14.059  0.00  0.00    +0.000 NA
ATOM      5  N   UNL     1       6.938   4.432  13.618  0.00  0.00    +0.000 NA
ATOM      6  N   UNL     1       6.128   4.152  14.645  0.00  0.00    +0.000 N 
ATOM      7  H   UNL     1       5.407   3.450  14.542  0.00  0.00    +0.000 HD
ENDBRANCH   1   2
BRANCH   1   8
ATOM      8  C   UNL     1       5.480   6.328  17.521  0.00  0.00    +0.000 C 
BRANCH   8   9
ATOM      9  C   UNL     1       4.021   6.794  17.532  0.00  0.00    +0.000 C 
BRANCH   9  10
ATOM     10  C   UNL     1       3.375   6.805  18.922  0.00  0.00    +0.000 C 
BRANCH  10  14
ATOM     11  C   UNL     1       0.417   9.931  19.175  0.00  0.00    +0.000 A 
ATOM     12  C   UNL     1       1.007   9.624  17.951  0.00  0.00    +0.000 A 
ATOM     13  C   UNL     1       1.950   8.601  17.867  0.00  0.00    +0.000 A 
ATOM     14  C   UNL     1       2.313   7.873  19.009  0.00  0.00    +0.000 A 
ATOM     15  C   UNL     1       1.716   8.189  20.236  0.00  0.00    +0.000 A 
ATOM     16  C   UNL     1       0.770   9.212  20.317  0.00  0.00    +0.000 A 
ENDBRANCH  10  14
ENDBRANCH   9  10
ENDBRANCH   8   9
ENDBRANCH   1   8
BRANCH   1  17
ATOM     17  C   UNL     1       4.424   4.065  16.898  0.00  0.00    +0.000 C 
BRANCH  17  18
ATOM     18  S   UNL     1       4.141   3.079  18.417  0.00  0.00    +0.000 S 
BRANCH  18  19
ATOM     19  C   UNL     1       2.407   2.481  18.181  0.00  0.00    +0.000 C 
ATOM     20  C   UNL     1       1.814   1.668  19.340  0.00  0.00    +0.000 C 
ATOM     21  C   UNL     1       1.667   2.483  20.623  0.00  0.00    +0.000 C 
ATOM     22  C   UNL     1       0.847   3.753  20.396  0.00  0.00    +0.000 C 
ATOM     23  C   UNL     1       1.322   4.569  19.195  0.00  0.00    +0.000 C 
ATOM     24  C   UNL     1       1.513   3.710  17.939  0.00  0.00    +0.000 C 
ENDBRANCH  18  19
ENDBRANCH  17  18
ENDBRANCH   1  17
TORSDOF 8
ENDMDL
