MODEL 1
REMARK VINA RESULT:      -7.6      0.000      0.000
REMARK  Name = 
REMARK  4 active torsions:
REMARK  status: ('A' for Active; 'I' for Inactive)
REMARK    1  A    between atoms: C_1  and  C_2
REMARK    2  A    between atoms: C_6  and  C_7
REMARK    3  A    between atoms: N_9  and  N_10
REMARK    4  A    between atoms: N_10  and  C_11
REMARK                            x       y       z     vdW  Elec       q    Type
REMARK                         _______ _______ _______ _____ _____    ______ ____
ROOT
ATOM      1  C   UNL     1       5.657   3.952  17.884  0.00  0.00    +0.000 C 
ATOM      2  O   UNL     1       5.948   3.975  19.079  0.00  0.00    +0.000 OA
ATOM      3  N   UNL     1       4.580   3.208  17.395  0.00  0.00    +0.000 N 
ATOM      4  H   UNL     1       4.553   3.012  16.401  0.00  0.00    +0.000 HD
ENDROOT
BRANCH   1  10
ATOM      5  C   UNL     1       7.493   6.617  18.194  0.00  0.00    +0.000 C 
ATOM      6  C   UNL     1       7.163   5.844  16.973  0.00  0.00    +0.000 A 
ATOM      7  N   UNL     1       7.686   6.302  15.764  0.00  0.00    +0.000 NA
ATOM      8  N   UNL     1       7.327   5.544  14.745  0.00  0.00    +0.000 NA
ATOM      9  S   UNL     1       6.360   4.271  15.204  0.00  0.00    +0.000 S 
ATOM     10  C   UNL     1       6.380   4.700  16.868  0.00  0.00    +0.000 A 
ENDBRANCH   1  10
BRANCH   3  11
ATOM     11  N   UNL     1       3.991   2.230  18.222  0.00  0.00    +0.000 N 
ATOM     12  H   UNL     1       4.703   1.607  18.626  0.00  0.00    +0.000 HD
BRANCH  11  13
ATOM     13  C   UNL     1       3.127   2.754  19.238  0.00  0.00    +0.000 A 
ATOM     14  C   UNL     1       1.943   3.484  18.974  0.00  0.00    +0.000 A 
ATOM     15 CL   UNL     1       1.410   3.877  17.370  0.00  0.00    +0.000 Cl
ATOM     16  C   UNL     1       1.098   3.910  20.010  0.00  0.00    +0.000 A 
ATOM     17  C   UNL     1       1.384   3.589  21.334  0.00  0.00    +0.000 A 
ATOM     18  C   UNL     1       2.518   2.838  21.623  0.00  0.00    +0.000 A 
ATOM     19  C   UNL     1       3.371   2.421  20.591  0.00  0.00    +0.000 A 
ATOM     20 CL   UNL     1       4.763   1.490  21.035  0.00  0.00    +0.000 Cl
ENDBRANCH  11  13
ENDBRANCH   3  11
TORSDOF 3
ENDMDL
MODEL 2
REMARK VINA RESULT:      -7.5      1.064      1.483
REMARK  Name = 
REMARK  4 active torsions:
REMARK  status: ('A' for Active; 'I' for Inactive)
REMARK    1  A    between atoms: C_1  and  C_2
REMARK    2  A    between atoms: C_6  and  C_7
REMARK    3  A    between atoms: N_9  and  N_10
REMARK    4  A    between atoms: N_10  and  C_11
REMARK                            x       y       z     vdW  Elec       q    Type
REMARK                         _______ _______ _______ _____ _____    ______ ____
ROOT
ATOM      1  C   UNL     1       5.677   4.145  18.224  0.00  0.00    +0.000 C 
ATOM      2  O   UNL     1       5.903   4.030  19.429  0.00  0.00    +0.000 OA
ATOM      3  N   UNL     1       4.638   3.456  17.593  0.00  0.00    +0.000 N 
ATOM      4  H   UNL     1       4.668   3.378  16.583  0.00  0.00    +0.000 HD
ENDROOT
BRANCH   1  10
ATOM      5  C   UNL     1       6.303   3.837  15.049  0.00  0.00    +0.000 C 
ATOM      6  C   UNL     1       6.731   4.901  15.989  0.00  0.00    +0.000 A 
ATOM      7  N   UNL     1       7.528   5.926  15.479  0.00  0.00    +0.000 NA
ATOM      8  N   UNL     1       7.852   6.812  16.401  0.00  0.00    +0.000 NA
ATOM      9  S   UNL     1       7.217   6.446  17.893  0.00  0.00    +0.000 S 
ATOM     10  C   UNL     1       6.442   5.014  17.345  0.00  0.00    +0.000 A 
ENDBRANCH   1  10
BRANCH   3  11
ATOM     11  N   UNL     1       4.020   2.383  18.266  0.00  0.00    +0.000 N 
ATOM     12  H   UNL     1       4.717   1.715  18.621  0.00  0.00    +0.000 HD
BRANCH  11  13
ATOM     13  C   UNL     1       3.108   2.776  19.299  0.00  0.00    +0.000 A 
ATOM     14  C   UNL     1       1.887   3.453  19.065  0.00  0.00    +0.000 A 
ATOM     15 CL   UNL     1       1.359   3.936  17.483  0.00  0.00    +0.000 Cl
ATOM     16  C   UNL     1       1.000   3.749  20.111  0.00  0.00    +0.000 A 
ATOM     17  C   UNL     1       1.281   3.346  21.412  0.00  0.00    +0.000 A 
ATOM     18  C   UNL     1       2.453   2.642  21.669  0.00  0.00    +0.000 A 
ATOM     19  C   UNL     1       3.348   2.356  20.629  0.00  0.00    +0.000 A 
ATOM     20 CL   UNL     1       4.785   1.477  21.032  0.00  0.00    +0.000 Cl
ENDBRANCH  11  13
ENDBRANCH   3  11
TORSDOF 3
ENDMDL
MODEL 3
REMARK VINA RESULT:      -7.4      1.868      2.537
REMARK  Name = 
REMARK  4 active torsions:
REMARK  status: ('A' for Active; 'I' for Inactive)
REMARK    1  A    between atoms: C_1  and  C_2
REMARK    2  A    between atoms: C_6  and  C_7
REMARK    3  A    between atoms: N_9  and  N_10
REMARK    4  A    between atoms: N_10  and  C_11
REMARK                            x       y       z     vdW  Elec       q    Type
REMARK                         _______ _______ _______ _____ _____    ______ ____
ROOT
ATOM      1  C   UNL     1       6.160   5.396  18.969  0.00  0.00    +0.000 C 
ATOM      2  O   UNL     1       6.861   5.180  19.958  0.00  0.00    +0.000 OA
ATOM      3  N   UNL     1       4.773   5.538  19.058  0.00  0.00    +0.000 N 
ATOM      4  H   UNL     1       4.233   5.444  18.205  0.00  0.00    +0.000 HD
ENDROOT
BRANCH   1  10
ATOM      5  C   UNL     1       7.755   7.899  17.643  0.00  0.00    +0.000 C 
ATOM      6  C   UNL     1       7.371   6.604  17.032  0.00  0.00    +0.000 A 
ATOM      7  N   UNL     1       7.715   6.398  15.696  0.00  0.00    +0.000 NA
ATOM      8  N   UNL     1       7.322   5.217  15.256  0.00  0.00    +0.000 NA
ATOM      9  S   UNL     1       6.537   4.328  16.421  0.00  0.00    +0.000 S 
ATOM     10  C   UNL     1       6.694   5.544  17.625  0.00  0.00    +0.000 A 
ENDBRANCH   1  10
BRANCH   3  11
ATOM     11  N   UNL     1       4.117   5.136  20.238  0.00  0.00    +0.000 N 
ATOM     12  H   UNL     1       3.869   5.947  20.820  0.00  0.00    +0.000 HD
BRANCH  11  13
ATOM     13  C   UNL     1       2.982   4.287  20.028  0.00  0.00    +0.000 A 
ATOM     14  C   UNL     1       3.069   2.908  19.719  0.00  0.00    +0.000 A 
ATOM     15 CL   UNL     1       4.579   2.076  19.512  0.00  0.00    +0.000 Cl
ATOM     16  C   UNL     1       1.922   2.110  19.595  0.00  0.00    +0.000 A 
ATOM     17  C   UNL     1       0.658   2.650  19.811  0.00  0.00    +0.000 A 
ATOM     18  C   UNL     1       0.541   3.992  20.156  0.00  0.00    +0.000 A 
ATOM     19  C   UNL     1       1.684   4.795  20.270  0.00  0.00    +0.000 A 
ATOM     20 CL   UNL     1       1.452   6.456  20.701  0.00  0.00    +0.000 Cl
ENDBRANCH  11  13
ENDBRANCH   3  11
TORSDOF 3
ENDMDL
MODEL 4
REMARK VINA RESULT:      -7.3      1.635      1.840
REMARK  Name = 
REMARK  4 active torsions:
REMARK  status: ('A' for Active; 'I' for Inactive)
REMARK    1  A    between atoms: C_1  and  C_2
REMARK    2  A    between atoms: C_6  and  C_7
REMARK    3  A    between atoms: N_9  and  N_10
REMARK    4  A    between atoms: N_10  and  C_11
REMARK                            x       y       z     vdW  Elec       q    Type
REMARK                         _______ _______ _______ _____ _____    ______ ____
ROOT
ATOM      1  C   UNL     1       5.571   4.247  17.364  0.00  0.00    +0.000 C 
ATOM      2  O   UNL     1       5.154   3.779  16.305  0.00  0.00    +0.000 OA
ATOM      3  N   UNL     1       5.400   3.591  18.585  0.00  0.00    +0.000 N 
ATOM      4  H   UNL     1       5.516   4.133  19.434  0.00  0.00    +0.000 HD
ENDROOT
BRANCH   1  10
ATOM      5  C   UNL     1       5.115   7.013  15.718  0.00  0.00    +0.000 C 
ATOM      6  C   UNL     1       6.123   6.698  16.759  0.00  0.00    +0.000 A 
ATOM      7  N   UNL     1       7.031   7.701  17.097  0.00  0.00    +0.000 NA
ATOM      8  N   UNL     1       7.881   7.311  18.028  0.00  0.00    +0.000 NA
ATOM      9  S   UNL     1       7.621   5.745  18.518  0.00  0.00    +0.000 S 
ATOM     10  C   UNL     1       6.292   5.506  17.454  0.00  0.00    +0.000 A 
ENDBRANCH   1  10
BRANCH   3  11
ATOM     11  N   UNL     1       4.482   2.525  18.668  0.00  0.00    +0.000 N 
ATOM     12  H   UNL     1       4.955   1.645  18.915  0.00  0.00    +0.000 HD
BRANCH  11  13
ATOM     13  C   UNL     1       3.364   2.769  19.531  0.00  0.00    +0.000 A 
ATOM     14  C   UNL     1       2.152   3.368  19.109  0.00  0.00    +0.000 A 
ATOM     15 CL   UNL     1       1.885   3.925  17.487  0.00  0.00    +0.000 Cl
ATOM     16  C   UNL     1       1.065   3.516  19.983  0.00  0.00    +0.000 A 
ATOM     17  C   UNL     1       1.136   3.040  21.288  0.00  0.00    +0.000 A 
ATOM     18  C   UNL     1       2.298   2.410  21.721  0.00  0.00    +0.000 A 
ATOM     19  C   UNL     1       3.391   2.271  20.855  0.00  0.00    +0.000 A 
ATOM     20 CL   UNL     1       4.801   1.476  21.471  0.00  0.00    +0.000 Cl
ENDBRANCH  11  13
ENDBRANCH   3  11
TORSDOF 3
ENDMDL
MODEL 5
REMARK VINA RESULT:      -7.2      1.827      1.942
REMARK  Name = 
REMARK  4 active torsions:
REMARK  status: ('A' for Active; 'I' for Inactive)
REMARK    1  A    between atoms: C_1  and  C_2
REMARK    2  A    between atoms: C_6  and  C_7
REMARK    3  A    between atoms: N_9  and  N_10
REMARK    4  A    between atoms: N_10  and  C_11
REMARK                            x       y       z     vdW  Elec       q    Type
REMARK                         _______ _______ _______ _____ _____    ______ ____
ROOT
ATOM      1  C   UNL     1       6.249   5.358  18.995  0.00  0.00    +0.000 C 
ATOM      2  O   UNL     1       6.971   5.333  19.991  0.00  0.00    +0.000 OA
ATOM      3  N   UNL     1       4.860   5.228  19.080  0.00  0.00    +0.000 N 
ATOM      4  H   UNL     1       4.355   4.987  18.235  0.00  0.00    +0.000 HD
ENDROOT
BRANCH   1  10
ATOM      5  C   UNL     1       7.792   7.906  17.694  0.00  0.00    +0.000 C 
ATOM      6  C   UNL     1       7.408   6.621  17.062  0.00  0.00    +0.000 A 
ATOM      7  N   UNL     1       7.724   6.450  15.714  0.00  0.00    +0.000 NA
ATOM      8  N   UNL     1       7.333   5.276  15.255  0.00  0.00    +0.000 NA
ATOM      9  S   UNL     1       6.581   4.353  16.415  0.00  0.00    +0.000 S 
ATOM     10  C   UNL     1       6.753   5.542  17.644  0.00  0.00    +0.000 A 
ENDBRANCH   1  10
BRANCH   3  11
ATOM     11  N   UNL     1       4.287   4.763  20.281  0.00  0.00    +0.000 N 
ATOM     12  H   UNL     1       4.208   5.520  20.972  0.00  0.00    +0.000 HD
BRANCH  11  13
ATOM     13  C   UNL     1       3.038   4.080  20.118  0.00  0.00    +0.000 A 
ATOM     14  C   UNL     1       1.772   4.703  20.231  0.00  0.00    +0.000 A 
ATOM     15 CL   UNL     1       1.574   6.381  20.629  0.00  0.00    +0.000 Cl
ATOM     16  C   UNL     1       0.583   3.998  19.990  0.00  0.00    +0.000 A 
ATOM     17  C   UNL     1       0.620   2.665  19.592  0.00  0.00    +0.000 A 
ATOM     18  C   UNL     1       1.849   2.035  19.432  0.00  0.00    +0.000 A 
ATOM     19  C   UNL     1       3.039   2.733  19.684  0.00  0.00    +0.000 A 
ATOM     20 CL   UNL     1       4.528   1.877  19.463  0.00  0.00    +0.000 Cl
ENDBRANCH  11  13
ENDBRANCH   3  11
TORSDOF 3
ENDMDL
MODEL 6
REMARK VINA RESULT:      -7.2      0.253      2.167
REMARK  Name = 
REMARK  4 active torsions:
REMARK  status: ('A' for Active; 'I' for Inactive)
REMARK    1  A    between atoms: C_1  and  C_2
REMARK    2  A    between atoms: C_6  and  C_7
REMARK    3  A    between atoms: N_9  and  N_10
REMARK    4  A    between atoms: N_10  and  C_11
REMARK                            x       y       z     vdW  Elec       q    Type
REMARK                         _______ _______ _______ _____ _____    ______ ____
ROOT
ATOM      1  C   UNL     1       5.605   3.866  18.065  0.00  0.00    +0.000 C 
ATOM      2  O   UNL     1       5.849   3.881  19.271  0.00  0.00    +0.000 OA
ATOM      3  N   UNL     1       4.578   3.089  17.524  0.00  0.00    +0.000 N 
ATOM      4  H   UNL     1       4.597   2.909  16.526  0.00  0.00    +0.000 HD
ENDROOT
BRANCH   1  10
ATOM      5  C   UNL     1       7.607   6.385  18.531  0.00  0.00    +0.000 C 
ATOM      6  C   UNL     1       7.190   5.743  17.262  0.00  0.00    +0.000 A 
ATOM      7  N   UNL     1       7.697   6.276  16.077  0.00  0.00    +0.000 NA
ATOM      8  N   UNL     1       7.257   5.632  15.012  0.00  0.00    +0.000 NA
ATOM      9  S   UNL     1       6.233   4.381  15.397  0.00  0.00    +0.000 S 
ATOM     10  C   UNL     1       6.336   4.659  17.090  0.00  0.00    +0.000 A 
ENDBRANCH   1  10
BRANCH   3  11
ATOM     11  N   UNL     1       3.997   2.075  18.312  0.00  0.00    +0.000 N 
ATOM     12  H   UNL     1       4.717   1.465  18.721  0.00  0.00    +0.000 HD
BRANCH  11  13
ATOM     13  C   UNL     1       3.091   2.549  19.316  0.00  0.00    +0.000 A 
ATOM     14  C   UNL     1       3.290   2.380  20.708  0.00  0.00    +0.000 A 
ATOM     15 CL   UNL     1       4.648   1.529  21.375  0.00  0.00    +0.000 Cl
ATOM     16  C   UNL     1       2.404   2.929  21.647  0.00  0.00    +0.000 A 
ATOM     17  C   UNL     1       1.318   3.694  21.233  0.00  0.00    +0.000 A 
ATOM     18  C   UNL     1       1.119   3.914  19.874  0.00  0.00    +0.000 A 
ATOM     19  C   UNL     1       1.995   3.356  18.932  0.00  0.00    +0.000 A 
ATOM     20 CL   UNL     1       1.676   3.676  17.260  0.00  0.00    +0.000 Cl
ENDBRANCH  11  13
ENDBRANCH   3  11
TORSDOF 3
ENDMDL
MODEL 7
REMARK VINA RESULT:      -7.2      1.491      1.766
REMARK  Name = 
REMARK  4 active torsions:
REMARK  status: ('A' for Active; 'I' for Inactive)
REMARK    1  A    between atoms: C_1  and  C_2
REMARK    2  A    between atoms: C_6  and  C_7
REMARK    3  A    between atoms: N_9  and  N_10
REMARK    4  A    between atoms: N_10  and  C_11
REMARK                            x       y       z     vdW  Elec       q    Type
REMARK                         _______ _______ _______ _____ _____    ______ ____
ROOT
ATOM      1  C   UNL     1       4.908   4.108  16.878  0.00  0.00    +0.000 C 
ATOM      2  O   UNL     1       4.032   4.038  16.016  0.00  0.00    +0.000 OA
ATOM      3  N   UNL     1       4.998   3.186  17.923  0.00  0.00    +0.000 N 
ATOM      4  H   UNL     1       5.553   3.441  18.733  0.00  0.00    +0.000 HD
ENDROOT
BRANCH   1  10
ATOM      5  C   UNL     1       7.048   4.911  14.566  0.00  0.00    +0.000 C 
ATOM      6  C   UNL     1       6.871   5.489  15.920  0.00  0.00    +0.000 A 
ATOM      7  N   UNL     1       7.736   6.516  16.297  0.00  0.00    +0.000 NA
ATOM      8  N   UNL     1       7.492   6.951  17.518  0.00  0.00    +0.000 NA
ATOM      9  S   UNL     1       6.231   6.148  18.244  0.00  0.00    +0.000 S 
ATOM     10  C   UNL     1       5.941   5.131  16.889  0.00  0.00    +0.000 A 
ENDBRANCH   1  10
BRANCH   3  11
ATOM     11  N   UNL     1       3.906   2.334  18.182  0.00  0.00    +0.000 N 
ATOM     12  H   UNL     1       4.216   1.363  18.318  0.00  0.00    +0.000 HD
BRANCH  11  13
ATOM     13  C   UNL     1       3.061   2.761  19.259  0.00  0.00    +0.000 A 
ATOM     14  C   UNL     1       1.830   3.436  19.081  0.00  0.00    +0.000 A 
ATOM     15 CL   UNL     1       1.205   3.874  17.522  0.00  0.00    +0.000 Cl
ATOM     16  C   UNL     1       1.011   3.766  20.172  0.00  0.00    +0.000 A 
ATOM     17  C   UNL     1       1.372   3.400  21.464  0.00  0.00    +0.000 A 
ATOM     18  C   UNL     1       2.557   2.699  21.668  0.00  0.00    +0.000 A 
ATOM     19  C   UNL     1       3.384   2.379  20.582  0.00  0.00    +0.000 A 
ATOM     20 CL   UNL     1       4.841   1.507  20.920  0.00  0.00    +0.000 Cl
ENDBRANCH  11  13
ENDBRANCH   3  11
TORSDOF 3
ENDMDL
MODEL 8
REMARK VINA RESULT:      -7.2      1.608      2.815
REMARK  Name = 
REMARK  4 active torsions:
REMARK  status: ('A' for Active; 'I' for Inactive)
REMARK    1  A    between atoms: C_1  and  C_2
REMARK    2  A    between atoms: C_6  and  C_7
REMARK    3  A    between atoms: N_9  and  N_10
REMARK    4  A    between atoms: N_10  and  C_11
REMARK                            x       y       z     vdW  Elec       q    Type
REMARK                         _______ _______ _______ _____ _____    ______ ____
ROOT
ATOM      1  C   UNL     1       5.428   4.219  17.186  0.00  0.00    +0.000 C 
ATOM      2  O   UNL     1       5.012   3.813  16.101  0.00  0.00    +0.000 OA
ATOM      3  N   UNL     1       5.217   3.515  18.374  0.00  0.00    +0.000 N 
ATOM      4  H   UNL     1       5.339   4.014  19.248  0.00  0.00    +0.000 HD
ENDROOT
BRANCH   1  10
ATOM      5  C   UNL     1       5.036   7.097  15.725  0.00  0.00    +0.000 C 
ATOM      6  C   UNL     1       6.049   6.685  16.727  0.00  0.00    +0.000 A 
ATOM      7  N   UNL     1       6.993   7.637  17.112  0.00  0.00    +0.000 NA
ATOM      8  N   UNL     1       7.845   7.163  18.001  0.00  0.00    +0.000 NA
ATOM      9  S   UNL     1       7.542   5.577  18.397  0.00  0.00    +0.000 S 
ATOM     10  C   UNL     1       6.191   5.447  17.343  0.00  0.00    +0.000 A 
ENDBRANCH   1  10
BRANCH   3  11
ATOM     11  N   UNL     1       4.262   2.479  18.396  0.00  0.00    +0.000 N 
ATOM     12  H   UNL     1       4.715   1.558  18.468  0.00  0.00    +0.000 HD
BRANCH  11  13
ATOM     13  C   UNL     1       3.242   2.632  19.391  0.00  0.00    +0.000 A 
ATOM     14  C   UNL     1       3.392   2.251  20.746  0.00  0.00    +0.000 A 
ATOM     15 CL   UNL     1       4.830   1.504  21.368  0.00  0.00    +0.000 Cl
ATOM     16  C   UNL     1       2.383   2.492  21.691  0.00  0.00    +0.000 A 
ATOM     17  C   UNL     1       1.215   3.152  21.326  0.00  0.00    +0.000 A 
ATOM     18  C   UNL     1       1.054   3.576  20.011  0.00  0.00    +0.000 A 
ATOM     19  C   UNL     1       2.054   3.326  19.061  0.00  0.00    +0.000 A 
ATOM     20 CL   UNL     1       1.777   3.884  17.445  0.00  0.00    +0.000 Cl
ENDBRANCH  11  13
ENDBRANCH   3  11
TORSDOF 3
ENDMDL
MODEL 9
REMARK VINA RESULT:      -7.2      2.694      5.896
REMARK  Name = 
REMARK  4 active torsions:
REMARK  status: ('A' for Active; 'I' for Inactive)
REMARK    1  A    between atoms: C_1  and  C_2
REMARK    2  A    between atoms: C_6  and  C_7
REMARK    3  A    between atoms: N_9  and  N_10
REMARK    4  A    between atoms: N_10  and  C_11
REMARK                            x       y       z     vdW  Elec       q    Type
REMARK                         _______ _______ _______ _____ _____    ______ ____
ROOT
ATOM      1  C   UNL     1       4.425   2.805  19.426  0.00  0.00    +0.000 C 
ATOM      2  O   UNL     1       5.038   2.143  20.263  0.00  0.00    +0.000 OA
ATOM      3  N   UNL     1       5.079   3.608  18.488  0.00  0.00    +0.000 N 
ATOM      4  H   UNL     1       4.536   4.322  18.016  0.00  0.00    +0.000 HD
ENDROOT
BRANCH   1  10
ATOM      5  C   UNL     1       2.171   3.252  21.726  0.00  0.00    +0.000 C 
ATOM      6  C   UNL     1       1.992   2.989  20.278  0.00  0.00    +0.000 A 
ATOM      7  N   UNL     1       0.685   2.901  19.799  0.00  0.00    +0.000 NA
ATOM      8  N   UNL     1       0.644   2.661  18.502  0.00  0.00    +0.000 NA
ATOM      9  S   UNL     1       2.157   2.535  17.825  0.00  0.00    +0.000 S 
ATOM     10  C   UNL     1       2.975   2.809  19.311  0.00  0.00    +0.000 A 
ENDBRANCH   1  10
BRANCH   3  11
ATOM     11  N   UNL     1       6.443   3.910  18.677  0.00  0.00    +0.000 N 
ATOM     12  H   UNL     1       7.044   3.165  18.300  0.00  0.00    +0.000 HD
BRANCH  11  13
ATOM     13  C   UNL     1       6.841   5.194  18.183  0.00  0.00    +0.000 A 
ATOM     14  C   UNL     1       6.291   5.807  17.031  0.00  0.00    +0.000 A 
ATOM     15 CL   UNL     1       5.084   5.050  16.040  0.00  0.00    +0.000 Cl
ATOM     16  C   UNL     1       6.670   7.099  16.636  0.00  0.00    +0.000 A 
ATOM     17  C   UNL     1       7.576   7.833  17.394  0.00  0.00    +0.000 A 
ATOM     18  C   UNL     1       8.103   7.276  18.554  0.00  0.00    +0.000 A 
ATOM     19  C   UNL     1       7.736   5.981  18.945  0.00  0.00    +0.000 A 
ATOM     20 CL   UNL     1       8.440   5.358  20.401  0.00  0.00    +0.000 Cl
ENDBRANCH  11  13
ENDBRANCH   3  11
TORSDOF 3
ENDMDL
