MODEL 1
REMARK VINA RESULT:      -8.7      0.000      0.000
REMARK  Name = 
REMARK  2 active torsions:
REMARK  status: ('A' for Active; 'I' for Inactive)
REMARK    1  A    between atoms: N_4  and  C_5
REMARK    2  A    between atoms: C_5  and  C_7
REMARK                            x       y       z     vdW  Elec       q    Type
REMARK                         _______ _______ _______ _____ _____    ______ ____
ROOT
ATOM      1  C   UNL     1       5.655   5.079  15.672  0.00  0.00    +0.000 A 
ATOM      2  C   UNL     1       5.581   6.365  16.231  0.00  0.00    +0.000 A 
ATOM      3  C   UNL     1       4.683   6.636  17.270  0.00  0.00    +0.000 A 
ATOM      4  C   UNL     1       3.862   5.623  17.767  0.00  0.00    +0.000 A 
ATOM      5  C   UNL     1       3.960   4.332  17.217  0.00  0.00    +0.000 A 
ATOM      6  C   UNL     1       4.821   4.066  16.158  0.00  0.00    +0.000 A 
ATOM      7  O   UNL     1       3.242   3.261  17.717  0.00  0.00    +0.000 OA
ATOM      8  C   UNL     1       2.647   3.430  18.954  0.00  0.00    +0.000 A 
ATOM      9  C   UNL     1       2.222   2.278  19.611  0.00  0.00    +0.000 A 
ATOM     10  C   UNL     1       1.690   2.379  20.895  0.00  0.00    +0.000 A 
ATOM     11  C   UNL     1       1.560   3.630  21.502  0.00  0.00    +0.000 A 
ATOM     12  C   UNL     1       1.960   4.788  20.825  0.00  0.00    +0.000 A 
ATOM     13  C   UNL     1       2.505   4.698  19.547  0.00  0.00    +0.000 A 
ATOM     14  N   UNL     1       3.084   5.803  18.916  0.00  0.00    +0.000 N 
ATOM     15  H   UNL     1       2.782   6.731  19.170  0.00  0.00    +0.000 HD
ENDROOT
BRANCH   1  16
ATOM     16  C   UNL     1       6.619   4.750  14.582  0.00  0.00    +0.000 C 
ATOM     17  O   UNL     1       7.602   5.476  14.428  0.00  0.00    +0.000 OA
BRANCH  16  21
ATOM     18  N   UNL     1       6.416   2.524  11.825  0.00  0.00    +0.000 N 
ATOM     19  C   UNL     1       6.656   3.614  12.588  0.00  0.00    +0.000 C 
ATOM     20  N   UNL     1       7.227   4.579  11.826  0.00  0.00    +0.000 N 
ATOM     21  N   UNL     1       6.334   3.632  13.833  0.00  0.00    +0.000 NA
ATOM     22  H   UNL     1       6.102   2.767  10.893  0.00  0.00    +0.000 HD
ATOM     23  H   UNL     1       5.773   1.887  12.280  0.00  0.00    +0.000 HD
ATOM     24  H   UNL     1       8.005   4.232  11.279  0.00  0.00    +0.000 HD
ATOM     25  H   UNL     1       7.527   5.374  12.399  0.00  0.00    +0.000 HD
ENDBRANCH  16  21
ENDBRANCH   1  16
TORSDOF 2
ENDMDL
MODEL 2
REMARK VINA RESULT:      -8.1      1.101      1.413
REMARK  Name = 
REMARK  2 active torsions:
REMARK  status: ('A' for Active; 'I' for Inactive)
REMARK    1  A    between atoms: N_4  and  C_5
REMARK    2  A    between atoms: C_5  and  C_7
REMARK                            x       y       z     vdW  Elec       q    Type
REMARK                         _______ _______ _______ _____ _____    ______ ____
ROOT
ATOM      1  C   UNL     1       5.487   4.857  15.524  0.00  0.00    +0.000 A 
ATOM      2  C   UNL     1       5.446   6.169  16.026  0.00  0.00    +0.000 A 
ATOM      3  C   UNL     1       4.586   6.497  17.080  0.00  0.00    +0.000 A 
ATOM      4  C   UNL     1       3.771   5.518  17.651  0.00  0.00    +0.000 A 
ATOM      5  C   UNL     1       3.838   4.202  17.158  0.00  0.00    +0.000 A 
ATOM      6  C   UNL     1       4.660   3.878  16.084  0.00  0.00    +0.000 A 
ATOM      7  O   UNL     1       3.126   3.164  17.731  0.00  0.00    +0.000 OA
ATOM      8  C   UNL     1       2.575   3.396  18.977  0.00  0.00    +0.000 A 
ATOM      9  C   UNL     1       2.161   2.281  19.701  0.00  0.00    +0.000 A 
ATOM     10  C   UNL     1       1.674   2.447  20.996  0.00  0.00    +0.000 A 
ATOM     11  C   UNL     1       1.578   3.727  21.549  0.00  0.00    +0.000 A 
ATOM     12  C   UNL     1       1.966   4.848  20.806  0.00  0.00    +0.000 A 
ATOM     13  C   UNL     1       2.467   4.692  19.515  0.00  0.00    +0.000 A 
ATOM     14  N   UNL     1       3.035   5.760  18.815  0.00  0.00    +0.000 N 
ATOM     15  H   UNL     1       2.751   6.702  19.036  0.00  0.00    +0.000 HD
ENDROOT
BRANCH   1  16
ATOM     16  C   UNL     1       6.410   4.468  14.419  0.00  0.00    +0.000 C 
ATOM     17  O   UNL     1       6.074   3.553  13.667  0.00  0.00    +0.000 OA
BRANCH  16  21
ATOM     18  N   UNL     1       9.184   6.179  13.012  0.00  0.00    +0.000 N 
ATOM     19  C   UNL     1       8.052   5.452  13.153  0.00  0.00    +0.000 C 
ATOM     20  N   UNL     1       7.597   5.089  11.929  0.00  0.00    +0.000 N 
ATOM     21  N   UNL     1       7.578   5.188  14.319  0.00  0.00    +0.000 NA
ATOM     22  H   UNL     1       9.778   5.829  12.270  0.00  0.00    +0.000 HD
ATOM     23  H   UNL     1       9.689   6.253  13.889  0.00  0.00    +0.000 HD
ATOM     24  H   UNL     1       7.555   5.869  11.284  0.00  0.00    +0.000 HD
ATOM     25  H   UNL     1       6.679   4.638  11.994  0.00  0.00    +0.000 HD
ENDBRANCH  16  21
ENDBRANCH   1  16
TORSDOF 2
ENDMDL
MODEL 3
REMARK VINA RESULT:      -8.1      1.285      1.447
REMARK  Name = 
REMARK  2 active torsions:
REMARK  status: ('A' for Active; 'I' for Inactive)
REMARK    1  A    between atoms: N_4  and  C_5
REMARK    2  A    between atoms: C_5  and  C_7
REMARK                            x       y       z     vdW  Elec       q    Type
REMARK                         _______ _______ _______ _____ _____    ______ ____
ROOT
ATOM      1  C   UNL     1       5.928   4.561  15.579  0.00  0.00    +0.000 A 
ATOM      2  C   UNL     1       6.882   4.552  16.610  0.00  0.00    +0.000 A 
ATOM      3  C   UNL     1       6.478   4.518  17.949  0.00  0.00    +0.000 A 
ATOM      4  C   UNL     1       5.120   4.478  18.270  0.00  0.00    +0.000 A 
ATOM      5  C   UNL     1       4.173   4.462  17.231  0.00  0.00    +0.000 A 
ATOM      6  C   UNL     1       4.566   4.537  15.899  0.00  0.00    +0.000 A 
ATOM      7  O   UNL     1       2.817   4.335  17.471  0.00  0.00    +0.000 OA
ATOM      8  C   UNL     1       2.442   3.932  18.740  0.00  0.00    +0.000 A 
ATOM      9  C   UNL     1       1.134   3.478  18.895  0.00  0.00    +0.000 A 
ATOM     10  C   UNL     1       0.725   2.982  20.131  0.00  0.00    +0.000 A 
ATOM     11  C   UNL     1       1.613   2.970  21.210  0.00  0.00    +0.000 A 
ATOM     12  C   UNL     1       2.916   3.456  21.057  0.00  0.00    +0.000 A 
ATOM     13  C   UNL     1       3.341   3.942  19.822  0.00  0.00    +0.000 A 
ATOM     14  N   UNL     1       4.680   4.263  19.580  0.00  0.00    +0.000 N 
ATOM     15  H   UNL     1       5.271   4.528  20.353  0.00  0.00    +0.000 HD
ENDROOT
BRANCH   1  16
ATOM     16  C   UNL     1       6.325   4.571  14.142  0.00  0.00    +0.000 C 
ATOM     17  O   UNL     1       7.416   5.053  13.836  0.00  0.00    +0.000 OA
BRANCH  16  21
ATOM     18  N   UNL     1       5.014   2.667  11.448  0.00  0.00    +0.000 N 
ATOM     19  C   UNL     1       5.866   3.252  12.321  0.00  0.00    +0.000 C 
ATOM     20  N   UNL     1       7.138   2.906  12.005  0.00  0.00    +0.000 N 
ATOM     21  N   UNL     1       5.429   4.016  13.258  0.00  0.00    +0.000 NA
ATOM     22  H   UNL     1       5.378   2.654  10.503  0.00  0.00    +0.000 HD
ATOM     23  H   UNL     1       4.094   3.092  11.486  0.00  0.00    +0.000 HD
ATOM     24  H   UNL     1       7.247   1.908  11.869  0.00  0.00    +0.000 HD
ATOM     25  H   UNL     1       7.798   3.237  12.716  0.00  0.00    +0.000 HD
ENDBRANCH  16  21
ENDBRANCH   1  16
TORSDOF 2
ENDMDL
MODEL 4
REMARK VINA RESULT:      -7.9      3.967      5.681
REMARK  Name = 
REMARK  2 active torsions:
REMARK  status: ('A' for Active; 'I' for Inactive)
REMARK    1  A    between atoms: N_4  and  C_5
REMARK    2  A    between atoms: C_5  and  C_7
REMARK                            x       y       z     vdW  Elec       q    Type
REMARK                         _______ _______ _______ _____ _____    ______ ____
ROOT
ATOM      1  C   UNL     1       3.851   5.718  18.745  0.00  0.00    +0.000 A 
ATOM      2  C   UNL     1       3.923   6.645  17.693  0.00  0.00    +0.000 A 
ATOM      3  C   UNL     1       3.099   7.777  17.688  0.00  0.00    +0.000 A 
ATOM      4  C   UNL     1       2.209   7.999  18.739  0.00  0.00    +0.000 A 
ATOM      5  C   UNL     1       2.162   7.078  19.801  0.00  0.00    +0.000 A 
ATOM      6  C   UNL     1       2.948   5.931  19.792  0.00  0.00    +0.000 A 
ATOM      7  O   UNL     1       1.369   7.278  20.916  0.00  0.00    +0.000 OA
ATOM      8  C   UNL     1       0.846   8.546  21.092  0.00  0.00    +0.000 A 
ATOM      9  C   UNL     1       0.343   8.849  22.355  0.00  0.00    +0.000 A 
ATOM     10  C   UNL     1      -0.121  10.137  22.615  0.00  0.00    +0.000 A 
ATOM     11  C   UNL     1      -0.107  11.104  21.606  0.00  0.00    +0.000 A 
ATOM     12  C   UNL     1       0.371  10.785  20.330  0.00  0.00    +0.000 A 
ATOM     13  C   UNL     1       0.849   9.504  20.062  0.00  0.00    +0.000 A 
ATOM     14  N   UNL     1       1.502   9.200  18.863  0.00  0.00    +0.000 N 
ATOM     15  H   UNL     1       1.299   9.744  18.039  0.00  0.00    +0.000 HD
ENDROOT
BRANCH   1  16
ATOM     16  C   UNL     1       4.732   4.516  18.794  0.00  0.00    +0.000 C 
ATOM     17  O   UNL     1       5.844   4.621  19.313  0.00  0.00    +0.000 OA
BRANCH  16  21
ATOM     18  N   UNL     1       3.781   1.113  18.445  0.00  0.00    +0.000 N 
ATOM     19  C   UNL     1       4.300   2.265  18.928  0.00  0.00    +0.000 C 
ATOM     20  N   UNL     1       4.880   2.027  20.129  0.00  0.00    +0.000 N 
ATOM     21  N   UNL     1       4.215   3.359  18.257  0.00  0.00    +0.000 NA
ATOM     22  H   UNL     1       4.371   0.313  18.639  0.00  0.00    +0.000 HD
ATOM     23  H   UNL     1       3.567   1.188  17.457  0.00  0.00    +0.000 HD
ATOM     24  H   UNL     1       4.277   1.508  20.756  0.00  0.00    +0.000 HD
ATOM     25  H   UNL     1       5.179   2.901  20.575  0.00  0.00    +0.000 HD
ENDBRANCH  16  21
ENDBRANCH   1  16
TORSDOF 2
ENDMDL
MODEL 5
REMARK VINA RESULT:      -7.9      2.030      7.151
REMARK  Name = 
REMARK  2 active torsions:
REMARK  status: ('A' for Active; 'I' for Inactive)
REMARK    1  A    between atoms: N_4  and  C_5
REMARK    2  A    between atoms: C_5  and  C_7
REMARK                            x       y       z     vdW  Elec       q    Type
REMARK                         _______ _______ _______ _____ _____    ______ ____
ROOT
ATOM      1  C   UNL     1       3.845   4.851  18.178  0.00  0.00    +0.000 A 
ATOM      2  C   UNL     1       4.731   5.898  18.481  0.00  0.00    +0.000 A 
ATOM      3  C   UNL     1       5.851   6.134  17.675  0.00  0.00    +0.000 A 
ATOM      4  C   UNL     1       6.088   5.336  16.555  0.00  0.00    +0.000 A 
ATOM      5  C   UNL     1       5.182   4.306  16.246  0.00  0.00    +0.000 A 
ATOM      6  C   UNL     1       4.090   4.040  17.064  0.00  0.00    +0.000 A 
ATOM      7  O   UNL     1       5.304   3.534  15.105  0.00  0.00    +0.000 OA
ATOM      8  C   UNL     1       6.172   3.992  14.130  0.00  0.00    +0.000 A 
ATOM      9  C   UNL     1       6.052   3.425  12.864  0.00  0.00    +0.000 A 
ATOM     10  C   UNL     1       6.843   3.904  11.822  0.00  0.00    +0.000 A 
ATOM     11  C   UNL     1       7.767   4.926  12.057  0.00  0.00    +0.000 A 
ATOM     12  C   UNL     1       7.906   5.471  13.339  0.00  0.00    +0.000 A 
ATOM     13  C   UNL     1       7.112   5.008  14.385  0.00  0.00    +0.000 A 
ATOM     14  N   UNL     1       7.088   5.648  15.628  0.00  0.00    +0.000 N 
ATOM     15  H   UNL     1       7.893   6.178  15.925  0.00  0.00    +0.000 HD
ENDROOT
BRANCH   1  16
ATOM     16  C   UNL     1       2.629   4.589  19.001  0.00  0.00    +0.000 C 
ATOM     17  O   UNL     1       1.523   4.728  18.477  0.00  0.00    +0.000 OA
BRANCH  16  21
ATOM     18  N   UNL     1       2.138   3.054  22.164  0.00  0.00    +0.000 N 
ATOM     19  C   UNL     1       1.951   3.486  20.896  0.00  0.00    +0.000 C 
ATOM     20  N   UNL     1       0.736   3.075  20.458  0.00  0.00    +0.000 N 
ATOM     21  N   UNL     1       2.846   4.190  20.300  0.00  0.00    +0.000 NA
ATOM     22  H   UNL     1       1.291   3.102  22.717  0.00  0.00    +0.000 HD
ATOM     23  H   UNL     1       2.905   3.543  22.613  0.00  0.00    +0.000 HD
ATOM     24  H   UNL     1       0.576   2.089  20.625  0.00  0.00    +0.000 HD
ATOM     25  H   UNL     1       0.612   3.285  19.462  0.00  0.00    +0.000 HD
ENDBRANCH  16  21
ENDBRANCH   1  16
TORSDOF 2
ENDMDL
MODEL 6
REMARK VINA RESULT:      -7.8      3.878      5.300
REMARK  Name = 
REMARK  2 active torsions:
REMARK  status: ('A' for Active; 'I' for Inactive)
REMARK    1  A    between atoms: N_4  and  C_5
REMARK    2  A    between atoms: C_5  and  C_7
REMARK                            x       y       z     vdW  Elec       q    Type
REMARK                         _______ _______ _______ _____ _____    ______ ____
ROOT
ATOM      1  C   UNL     1       3.925   5.792  18.621  0.00  0.00    +0.000 A 
ATOM      2  C   UNL     1       3.959   6.739  17.584  0.00  0.00    +0.000 A 
ATOM      3  C   UNL     1       3.109   7.851  17.611  0.00  0.00    +0.000 A 
ATOM      4  C   UNL     1       2.230   8.034  18.680  0.00  0.00    +0.000 A 
ATOM      5  C   UNL     1       2.222   7.094  19.726  0.00  0.00    +0.000 A 
ATOM      6  C   UNL     1       3.033   5.966  19.685  0.00  0.00    +0.000 A 
ATOM      7  O   UNL     1       1.442   7.256  20.857  0.00  0.00    +0.000 OA
ATOM      8  C   UNL     1       0.893   8.509  21.063  0.00  0.00    +0.000 A 
ATOM      9  C   UNL     1       0.403   8.779  22.338  0.00  0.00    +0.000 A 
ATOM     10  C   UNL     1      -0.087  10.051  22.628  0.00  0.00    +0.000 A 
ATOM     11  C   UNL     1      -0.110  11.035  21.635  0.00  0.00    +0.000 A 
ATOM     12  C   UNL     1       0.354  10.749  20.346  0.00  0.00    +0.000 A 
ATOM     13  C   UNL     1       0.858   9.484  20.049  0.00  0.00    +0.000 A 
ATOM     14  N   UNL     1       1.498   9.216  18.836  0.00  0.00    +0.000 N 
ATOM     15  H   UNL     1       1.270   9.769  18.025  0.00  0.00    +0.000 HD
ENDROOT
BRANCH   1  16
ATOM     16  C   UNL     1       4.834   4.610  18.635  0.00  0.00    +0.000 C 
ATOM     17  O   UNL     1       4.767   3.827  19.582  0.00  0.00    +0.000 OA
BRANCH  16  21
ATOM     18  N   UNL     1       7.813   4.468  16.709  0.00  0.00    +0.000 N 
ATOM     19  C   UNL     1       6.947   4.614  17.737  0.00  0.00    +0.000 C 
ATOM     20  N   UNL     1       7.636   4.920  18.863  0.00  0.00    +0.000 N 
ATOM     21  N   UNL     1       5.681   4.480  17.558  0.00  0.00    +0.000 NA
ATOM     22  H   UNL     1       8.570   5.141  16.743  0.00  0.00    +0.000 HD
ATOM     23  H   UNL     1       7.335   4.491  15.815  0.00  0.00    +0.000 HD
ATOM     24  H   UNL     1       8.420   4.299  19.020  0.00  0.00    +0.000 HD
ATOM     25  H   UNL     1       7.021   4.923  19.684  0.00  0.00    +0.000 HD
ENDBRANCH  16  21
ENDBRANCH   1  16
TORSDOF 2
ENDMDL
MODEL 7
REMARK VINA RESULT:      -7.8      1.493      1.739
REMARK  Name = 
REMARK  2 active torsions:
REMARK  status: ('A' for Active; 'I' for Inactive)
REMARK    1  A    between atoms: N_4  and  C_5
REMARK    2  A    between atoms: C_5  and  C_7
REMARK                            x       y       z     vdW  Elec       q    Type
REMARK                         _______ _______ _______ _____ _____    ______ ____
ROOT
ATOM      1  C   UNL     1       6.089   4.548  15.915  0.00  0.00    +0.000 A 
ATOM      2  C   UNL     1       6.857   4.948  17.021  0.00  0.00    +0.000 A 
ATOM      3  C   UNL     1       6.262   5.105  18.278  0.00  0.00    +0.000 A 
ATOM      4  C   UNL     1       4.900   4.851  18.444  0.00  0.00    +0.000 A 
ATOM      5  C   UNL     1       4.144   4.427  17.337  0.00  0.00    +0.000 A 
ATOM      6  C   UNL     1       4.720   4.308  16.077  0.00  0.00    +0.000 A 
ATOM      7  O   UNL     1       2.811   4.073  17.445  0.00  0.00    +0.000 OA
ATOM      8  C   UNL     1       2.321   3.869  18.722  0.00  0.00    +0.000 A 
ATOM      9  C   UNL     1       1.107   3.195  18.830  0.00  0.00    +0.000 A 
ATOM     10  C   UNL     1       0.604   2.889  20.093  0.00  0.00    +0.000 A 
ATOM     11  C   UNL     1       1.301   3.281  21.238  0.00  0.00    +0.000 A 
ATOM     12  C   UNL     1       2.505   3.986  21.125  0.00  0.00    +0.000 A 
ATOM     13  C   UNL     1       3.024   4.287  19.868  0.00  0.00    +0.000 A 
ATOM     14  N   UNL     1       4.306   4.821  19.711  0.00  0.00    +0.000 N 
ATOM     15  H   UNL     1       4.713   5.356  20.463  0.00  0.00    +0.000 HD
ENDROOT
BRANCH   1  16
ATOM     16  C   UNL     1       6.697   4.346  14.568  0.00  0.00    +0.000 C 
ATOM     17  O   UNL     1       6.304   3.404  13.881  0.00  0.00    +0.000 OA
BRANCH  16  21
ATOM     18  N   UNL     1       8.851   6.295  12.528  0.00  0.00    +0.000 N 
ATOM     19  C   UNL     1       7.933   5.392  12.942  0.00  0.00    +0.000 C 
ATOM     20  N   UNL     1       7.446   4.724  11.868  0.00  0.00    +0.000 N 
ATOM     21  N   UNL     1       7.656   5.257  14.190  0.00  0.00    +0.000 NA
ATOM     22  H   UNL     1       9.427   5.941  11.774  0.00  0.00    +0.000 HD
ATOM     23  H   UNL     1       9.415   6.631  13.301  0.00  0.00    +0.000 HD
ATOM     24  H   UNL     1       7.162   5.345  11.120  0.00  0.00    +0.000 HD
ATOM     25  H   UNL     1       6.666   4.115  12.134  0.00  0.00    +0.000 HD
ENDBRANCH  16  21
ENDBRANCH   1  16
TORSDOF 2
ENDMDL
MODEL 8
REMARK VINA RESULT:      -7.8      4.070      5.687
REMARK  Name = 
REMARK  2 active torsions:
REMARK  status: ('A' for Active; 'I' for Inactive)
REMARK    1  A    between atoms: N_4  and  C_5
REMARK    2  A    between atoms: C_5  and  C_7
REMARK                            x       y       z     vdW  Elec       q    Type
REMARK                         _______ _______ _______ _____ _____    ______ ____
ROOT
ATOM      1  C   UNL     1       3.900   6.016  18.681  0.00  0.00    +0.000 A 
ATOM      2  C   UNL     1       3.862   6.935  17.619  0.00  0.00    +0.000 A 
ATOM      3  C   UNL     1       2.954   8.000  17.635  0.00  0.00    +0.000 A 
ATOM      4  C   UNL     1       2.088   8.165  18.717  0.00  0.00    +0.000 A 
ATOM      5  C   UNL     1       2.150   7.255  19.787  0.00  0.00    +0.000 A 
ATOM      6  C   UNL     1       3.021   6.171  19.759  0.00  0.00    +0.000 A 
ATOM      7  O   UNL     1       1.385   7.406  20.929  0.00  0.00    +0.000 OA
ATOM      8  C   UNL     1       0.773   8.632  21.114  0.00  0.00    +0.000 A 
ATOM      9  C   UNL     1       0.294   8.911  22.392  0.00  0.00    +0.000 A 
ATOM     10  C   UNL     1      -0.258  10.162  22.658  0.00  0.00    +0.000 A 
ATOM     11  C   UNL     1      -0.354  11.116  21.641  0.00  0.00    +0.000 A 
ATOM     12  C   UNL     1       0.100  10.820  20.350  0.00  0.00    +0.000 A 
ATOM     13  C   UNL     1       0.666   9.577  20.076  0.00  0.00    +0.000 A 
ATOM     14  N   UNL     1       1.296   9.309  18.857  0.00  0.00    +0.000 N 
ATOM     15  H   UNL     1       1.022   9.828  18.036  0.00  0.00    +0.000 HD
ENDROOT
BRANCH   1  16
ATOM     16  C   UNL     1       4.872   4.886  18.707  0.00  0.00    +0.000 C 
ATOM     17  O   UNL     1       4.691   3.937  17.944  0.00  0.00    +0.000 OA
BRANCH  16  21
ATOM     18  N   UNL     1       8.108   5.573  19.996  0.00  0.00    +0.000 N 
ATOM     19  C   UNL     1       7.059   5.419  19.156  0.00  0.00    +0.000 C 
ATOM     20  N   UNL     1       7.443   5.742  17.897  0.00  0.00    +0.000 N 
ATOM     21  N   UNL     1       5.922   5.004  19.589  0.00  0.00    +0.000 NA
ATOM     22  H   UNL     1       8.983   5.280  19.579  0.00  0.00    +0.000 HD
ATOM     23  H   UNL     1       7.944   5.109  20.883  0.00  0.00    +0.000 HD
ATOM     24  H   UNL     1       7.927   6.631  17.854  0.00  0.00    +0.000 HD
ATOM     25  H   UNL     1       6.642   5.748  17.256  0.00  0.00    +0.000 HD
ENDBRANCH  16  21
ENDBRANCH   1  16
TORSDOF 2
ENDMDL
MODEL 9
REMARK VINA RESULT:      -7.7      3.117      3.774
REMARK  Name = 
REMARK  2 active torsions:
REMARK  status: ('A' for Active; 'I' for Inactive)
REMARK    1  A    between atoms: N_4  and  C_5
REMARK    2  A    between atoms: C_5  and  C_7
REMARK                            x       y       z     vdW  Elec       q    Type
REMARK                         _______ _______ _______ _____ _____    ______ ____
ROOT
ATOM      1  C   UNL     1       5.746   6.399  17.177  0.00  0.00    +0.000 A 
ATOM      2  C   UNL     1       4.607   7.207  17.022  0.00  0.00    +0.000 A 
ATOM      3  C   UNL     1       3.366   6.785  17.513  0.00  0.00    +0.000 A 
ATOM      4  C   UNL     1       3.255   5.561  18.175  0.00  0.00    +0.000 A 
ATOM      5  C   UNL     1       4.405   4.770  18.347  0.00  0.00    +0.000 A 
ATOM      6  C   UNL     1       5.633   5.165  17.825  0.00  0.00    +0.000 A 
ATOM      7  O   UNL     1       4.387   3.590  19.066  0.00  0.00    +0.000 OA
ATOM      8  C   UNL     1       3.277   3.356  19.857  0.00  0.00    +0.000 A 
ATOM      9  C   UNL     1       3.393   2.365  20.828  0.00  0.00    +0.000 A 
ATOM     10  C   UNL     1       2.335   2.141  21.707  0.00  0.00    +0.000 A 
ATOM     11  C   UNL     1       1.160   2.889  21.593  0.00  0.00    +0.000 A 
ATOM     12  C   UNL     1       1.037   3.863  20.596  0.00  0.00    +0.000 A 
ATOM     13  C   UNL     1       2.092   4.104  19.719  0.00  0.00    +0.000 A 
ATOM     14  N   UNL     1       2.080   5.186  18.835  0.00  0.00    +0.000 N 
ATOM     15  H   UNL     1       1.196   5.563  18.528  0.00  0.00    +0.000 HD
ENDROOT
BRANCH   1  16
ATOM     16  C   UNL     1       7.087   6.830  16.688  0.00  0.00    +0.000 C 
ATOM     17  O   UNL     1       7.735   6.053  15.987  0.00  0.00    +0.000 OA
BRANCH  16  21
ATOM     18  N   UNL     1       8.615   9.464  18.513  0.00  0.00    +0.000 N 
ATOM     19  C   UNL     1       8.177   8.242  18.132  0.00  0.00    +0.000 C 
ATOM     20  N   UNL     1       8.561   7.322  19.051  0.00  0.00    +0.000 N 
ATOM     21  N   UNL     1       7.492   8.093  17.054  0.00  0.00    +0.000 NA
ATOM     22  H   UNL     1       8.549   9.603  19.514  0.00  0.00    +0.000 HD
ATOM     23  H   UNL     1       8.145  10.202  18.002  0.00  0.00    +0.000 HD
ATOM     24  H   UNL     1       9.543   7.395  19.287  0.00  0.00    +0.000 HD
ATOM     25  H   UNL     1       8.346   6.371  18.734  0.00  0.00    +0.000 HD
ENDBRANCH  16  21
ENDBRANCH   1  16
TORSDOF 2
ENDMDL
