MODEL 1
REMARK VINA RESULT:      -7.1      0.000      0.000
REMARK  Name = 
REMARK  7 active torsions:
REMARK  status: ('A' for Active; 'I' for Inactive)
REMARK    1  A    between atoms: C_1  and  C_2
REMARK    2  A    between atoms: C_5  and  S_6
REMARK    3  A    between atoms: S_6  and  N_9
REMARK    4  A    between atoms: N_9  and  C_10
REMARK    5  A    between atoms: C_17  and  N_18
REMARK    6  A    between atoms: N_18  and  C_19
REMARK    7  A    between atoms: N_18  and  C_20
REMARK                            x       y       z     vdW  Elec       q    Type
REMARK                         _______ _______ _______ _____ _____    ______ ____
ROOT
ATOM      1  S   UNL     1       5.751   6.497  16.315  0.00  0.00    +0.000 S 
ATOM      2  O   UNL     1       5.107   6.939  15.102  0.00  0.00    +0.000 OA
ATOM      3  O   UNL     1       6.591   7.394  17.086  0.00  0.00    +0.000 OA
ENDROOT
BRANCH   1   8
ATOM      4  C   UNL     1       1.476   4.503  20.148  0.00  0.00    +0.000 C 
ATOM      5  C   UNL     1       2.560   4.872  19.164  0.00  0.00    +0.000 A 
ATOM      6  C   UNL     1       2.561   6.226  18.750  0.00  0.00    +0.000 A 
ATOM      7  C   UNL     1       3.534   6.726  17.896  0.00  0.00    +0.000 A 
ATOM      8  C   UNL     1       4.510   5.863  17.423  0.00  0.00    +0.000 A 
ATOM      9  C   UNL     1       4.500   4.507  17.784  0.00  0.00    +0.000 A 
ATOM     10  C   UNL     1       3.549   3.969  18.686  0.00  0.00    +0.000 A 
BRANCH  10  11
ATOM     11  N   UNL     1       3.656   2.645  19.104  0.00  0.00    +0.000 N 
ATOM     12  C   UNL     1       4.438   2.276  20.286  0.00  0.00    +0.000 C 
ATOM     13  C   UNL     1       3.344   1.511  18.236  0.00  0.00    +0.000 C 
ENDBRANCH  10  11
ENDBRANCH   1   8
BRANCH   1  14
ATOM     14  N   UNL     1       6.706   5.134  15.990  0.00  0.00    +0.000 N 
ATOM     15  H   UNL     1       6.608   4.421  16.710  0.00  0.00    +0.000 HD
BRANCH  14  16
ATOM     16  C   UNL     1       6.767   4.692  14.636  0.00  0.00    +0.000 A 
ATOM     17  C   UNL     1       5.841   3.777  14.149  0.00  0.00    +0.000 A 
ATOM     18  C   UNL     1       5.860   3.438  12.799  0.00  0.00    +0.000 A 
ATOM     19  C   UNL     1       6.822   4.025  11.987  0.00  0.00    +0.000 A 
ATOM     20  N   UNL     1       7.740   4.915  12.429  0.00  0.00    +0.000 NA
ATOM     21  C   UNL     1       7.685   5.235  13.743  0.00  0.00    +0.000 A 
ENDBRANCH  14  16
ENDBRANCH   1  14
TORSDOF 4
ENDMDL
MODEL 2
REMARK VINA RESULT:      -6.9      0.618      1.077
REMARK  Name = 
REMARK  7 active torsions:
REMARK  status: ('A' for Active; 'I' for Inactive)
REMARK    1  A    between atoms: C_1  and  C_2
REMARK    2  A    between atoms: C_5  and  S_6
REMARK    3  A    between atoms: S_6  and  N_9
REMARK    4  A    between atoms: N_9  and  C_10
REMARK    5  A    between atoms: C_17  and  N_18
REMARK    6  A    between atoms: N_18  and  C_19
REMARK    7  A    between atoms: N_18  and  C_20
REMARK                            x       y       z     vdW  Elec       q    Type
REMARK                         _______ _______ _______ _____ _____    ______ ____
ROOT
ATOM      1  S   UNL     1       5.698   6.495  16.350  0.00  0.00    +0.000 S 
ATOM      2  O   UNL     1       5.035   7.009  15.175  0.00  0.00    +0.000 OA
ATOM      3  O   UNL     1       6.596   7.328  17.126  0.00  0.00    +0.000 OA
ENDROOT
BRANCH   1   8
ATOM      4  C   UNL     1       1.460   4.518  20.231  0.00  0.00    +0.000 C 
ATOM      5  C   UNL     1       2.534   4.882  19.236  0.00  0.00    +0.000 A 
ATOM      6  C   UNL     1       2.534   6.236  18.820  0.00  0.00    +0.000 A 
ATOM      7  C   UNL     1       3.499   6.732  17.954  0.00  0.00    +0.000 A 
ATOM      8  C   UNL     1       4.468   5.866  17.472  0.00  0.00    +0.000 A 
ATOM      9  C   UNL     1       4.458   4.511  17.835  0.00  0.00    +0.000 A 
ATOM     10  C   UNL     1       3.515   3.976  18.748  0.00  0.00    +0.000 A 
BRANCH  10  11
ATOM     11  N   UNL     1       3.624   2.653  19.167  0.00  0.00    +0.000 N 
ATOM     12  C   UNL     1       4.405   2.285  20.350  0.00  0.00    +0.000 C 
ATOM     13  C   UNL     1       3.314   1.518  18.300  0.00  0.00    +0.000 C 
ENDBRANCH  10  11
ENDBRANCH   1   8
BRANCH   1  14
ATOM     14  N   UNL     1       6.588   5.111  15.942  0.00  0.00    +0.000 N 
ATOM     15  H   UNL     1       6.424   4.348  16.596  0.00  0.00    +0.000 HD
BRANCH  14  16
ATOM     16  C   UNL     1       6.674   4.778  14.558  0.00  0.00    +0.000 A 
ATOM     17  C   UNL     1       7.624   5.381  13.744  0.00  0.00    +0.000 A 
ATOM     18  C   UNL     1       7.754   4.967  12.421  0.00  0.00    +0.000 A 
ATOM     19  C   UNL     1       6.913   3.962  11.961  0.00  0.00    +0.000 A 
ATOM     20  N   UNL     1       5.975   3.356  12.726  0.00  0.00    +0.000 NA
ATOM     21  C   UNL     1       5.884   3.772  14.011  0.00  0.00    +0.000 A 
ENDBRANCH  14  16
ENDBRANCH   1  14
TORSDOF 4
ENDMDL
MODEL 3
REMARK VINA RESULT:      -6.5      1.156      1.372
REMARK  Name = 
REMARK  7 active torsions:
REMARK  status: ('A' for Active; 'I' for Inactive)
REMARK    1  A    between atoms: C_1  and  C_2
REMARK    2  A    between atoms: C_5  and  S_6
REMARK    3  A    between atoms: S_6  and  N_9
REMARK    4  A    between atoms: N_9  and  C_10
REMARK    5  A    between atoms: C_17  and  N_18
REMARK    6  A    between atoms: N_18  and  C_19
REMARK    7  A    between atoms: N_18  and  C_20
REMARK                            x       y       z     vdW  Elec       q    Type
REMARK                         _______ _______ _______ _____ _____    ______ ____
ROOT
ATOM      1  S   UNL     1       7.130   5.607  16.767  0.00  0.00    +0.000 S 
ATOM      2  O   UNL     1       7.824   6.681  17.438  0.00  0.00    +0.000 OA
ATOM      3  O   UNL     1       7.757   4.312  16.582  0.00  0.00    +0.000 OA
ENDROOT
BRANCH   1   8
ATOM      4  C   UNL     1       1.821   4.816  19.617  0.00  0.00    +0.000 C 
ATOM      5  C   UNL     1       3.145   4.881  18.894  0.00  0.00    +0.000 A 
ATOM      6  C   UNL     1       3.489   6.156  18.384  0.00  0.00    +0.000 A 
ATOM      7  C   UNL     1       4.702   6.384  17.749  0.00  0.00    +0.000 A 
ATOM      8  C   UNL     1       5.581   5.323  17.595  0.00  0.00    +0.000 A 
ATOM      9  C   UNL     1       5.239   4.041  18.052  0.00  0.00    +0.000 A 
ATOM     10  C   UNL     1       4.029   3.778  18.740  0.00  0.00    +0.000 A 
BRANCH  10  11
ATOM     11  N   UNL     1       3.793   2.516  19.278  0.00  0.00    +0.000 N 
ATOM     12  C   UNL     1       4.465   2.065  20.500  0.00  0.00    +0.000 C 
ATOM     13  C   UNL     1       3.189   1.428  18.513  0.00  0.00    +0.000 C 
ENDBRANCH  10  11
ENDBRANCH   1   8
BRANCH   1  14
ATOM     14  N   UNL     1       6.652   6.115  15.222  0.00  0.00    +0.000 N 
ATOM     15  H   UNL     1       7.080   7.002  14.965  0.00  0.00    +0.000 HD
BRANCH  14  16
ATOM     16  C   UNL     1       6.561   5.116  14.209  0.00  0.00    +0.000 A 
ATOM     17  C   UNL     1       5.465   4.264  14.153  0.00  0.00    +0.000 A 
ATOM     18  C   UNL     1       5.351   3.365  13.096  0.00  0.00    +0.000 A 
ATOM     19  C   UNL     1       6.354   3.348  12.136  0.00  0.00    +0.000 A 
ATOM     20  N   UNL     1       7.436   4.160  12.162  0.00  0.00    +0.000 NA
ATOM     21  C   UNL     1       7.510   5.033  13.194  0.00  0.00    +0.000 A 
ENDBRANCH  14  16
ENDBRANCH   1  14
TORSDOF 4
ENDMDL
MODEL 4
REMARK VINA RESULT:      -6.5      3.485      6.580
REMARK  Name = 
REMARK  7 active torsions:
REMARK  status: ('A' for Active; 'I' for Inactive)
REMARK    1  A    between atoms: C_1  and  C_2
REMARK    2  A    between atoms: C_5  and  S_6
REMARK    3  A    between atoms: S_6  and  N_9
REMARK    4  A    between atoms: N_9  and  C_10
REMARK    5  A    between atoms: C_17  and  N_18
REMARK    6  A    between atoms: N_18  and  C_19
REMARK    7  A    between atoms: N_18  and  C_20
REMARK                            x       y       z     vdW  Elec       q    Type
REMARK                         _______ _______ _______ _____ _____    ______ ____
ROOT
ATOM      1  S   UNL     1       2.579   4.569  19.562  0.00  0.00    +0.000 S 
ATOM      2  O   UNL     1       1.322   4.641  18.857  0.00  0.00    +0.000 OA
ATOM      3  O   UNL     1       2.870   3.469  20.462  0.00  0.00    +0.000 OA
ENDROOT
BRANCH   1   8
ATOM      4  C   UNL     1       7.038   4.652  15.433  0.00  0.00    +0.000 C 
ATOM      5  C   UNL     1       5.984   4.740  16.510  0.00  0.00    +0.000 A 
ATOM      6  C   UNL     1       4.811   3.986  16.267  0.00  0.00    +0.000 A 
ATOM      7  C   UNL     1       3.781   3.921  17.196  0.00  0.00    +0.000 A 
ATOM      8  C   UNL     1       3.904   4.637  18.376  0.00  0.00    +0.000 A 
ATOM      9  C   UNL     1       5.038   5.428  18.616  0.00  0.00    +0.000 A 
ATOM     10  C   UNL     1       6.128   5.487  17.712  0.00  0.00    +0.000 A 
BRANCH  10  11
ATOM     11  N   UNL     1       7.279   6.191  18.053  0.00  0.00    +0.000 N 
ATOM     12  C   UNL     1       8.090   5.818  19.214  0.00  0.00    +0.000 C 
ATOM     13  C   UNL     1       7.565   7.534  17.552  0.00  0.00    +0.000 C 
ENDBRANCH  10  11
ENDBRANCH   1   8
BRANCH   1  14
ATOM     14  N   UNL     1       2.806   5.982  20.471  0.00  0.00    +0.000 N 
ATOM     15  H   UNL     1       3.767   6.077  20.792  0.00  0.00    +0.000 HD
BRANCH  14  16
ATOM     16  C   UNL     1       2.151   7.162  20.012  0.00  0.00    +0.000 A 
ATOM     17  C   UNL     1       1.347   7.903  20.869  0.00  0.00    +0.000 A 
ATOM     18  C   UNL     1       0.800   9.104  20.426  0.00  0.00    +0.000 A 
ATOM     19  C   UNL     1       1.075   9.513  19.127  0.00  0.00    +0.000 A 
ATOM     20  N   UNL     1       1.849   8.813  18.266  0.00  0.00    +0.000 NA
ATOM     21  C   UNL     1       2.377   7.658  18.731  0.00  0.00    +0.000 A 
ENDBRANCH  14  16
ENDBRANCH   1  14
TORSDOF 4
ENDMDL
MODEL 5
REMARK VINA RESULT:      -6.5      1.353      2.046
REMARK  Name = 
REMARK  7 active torsions:
REMARK  status: ('A' for Active; 'I' for Inactive)
REMARK    1  A    between atoms: C_1  and  C_2
REMARK    2  A    between atoms: C_5  and  S_6
REMARK    3  A    between atoms: S_6  and  N_9
REMARK    4  A    between atoms: N_9  and  C_10
REMARK    5  A    between atoms: C_17  and  N_18
REMARK    6  A    between atoms: N_18  and  C_19
REMARK    7  A    between atoms: N_18  and  C_20
REMARK                            x       y       z     vdW  Elec       q    Type
REMARK                         _______ _______ _______ _____ _____    ______ ____
ROOT
ATOM      1  S   UNL     1       5.669   5.870  16.699  0.00  0.00    +0.000 S 
ATOM      2  O   UNL     1       5.185   6.643  15.580  0.00  0.00    +0.000 OA
ATOM      3  O   UNL     1       6.345   6.509  17.812  0.00  0.00    +0.000 OA
ENDROOT
BRANCH   1   8
ATOM      4  C   UNL     1       0.999   2.630  18.849  0.00  0.00    +0.000 C 
ATOM      5  C   UNL     1       2.186   3.467  18.440  0.00  0.00    +0.000 A 
ATOM      6  C   UNL     1       2.670   3.225  17.132  0.00  0.00    +0.000 A 
ATOM      7  C   UNL     1       3.719   3.960  16.595  0.00  0.00    +0.000 A 
ATOM      8  C   UNL     1       4.315   4.936  17.378  0.00  0.00    +0.000 A 
ATOM      9  C   UNL     1       3.880   5.160  18.694  0.00  0.00    +0.000 A 
ATOM     10  C   UNL     1       2.788   4.459  19.262  0.00  0.00    +0.000 A 
BRANCH  10  11
ATOM     11  N   UNL     1       2.322   4.803  20.527  0.00  0.00    +0.000 N 
ATOM     12  C   UNL     1       2.279   3.828  21.620  0.00  0.00    +0.000 C 
ATOM     13  C   UNL     1       1.509   5.992  20.777  0.00  0.00    +0.000 C 
ENDBRANCH  10  11
ENDBRANCH   1   8
BRANCH   1  14
ATOM     14  N   UNL     1       6.726   4.666  16.146  0.00  0.00    +0.000 N 
ATOM     15  H   UNL     1       6.625   3.800  16.672  0.00  0.00    +0.000 HD
BRANCH  14  16
ATOM     16  C   UNL     1       6.904   4.555  14.735  0.00  0.00    +0.000 A 
ATOM     17  C   UNL     1       6.127   3.675  13.992  0.00  0.00    +0.000 A 
ATOM     18  C   UNL     1       6.250   3.658  12.606  0.00  0.00    +0.000 A 
ATOM     19  C   UNL     1       7.161   4.524  12.015  0.00  0.00    +0.000 A 
ATOM     20  N   UNL     1       7.935   5.390  12.709  0.00  0.00    +0.000 NA
ATOM     21  C   UNL     1       7.782   5.392  14.054  0.00  0.00    +0.000 A 
ENDBRANCH  14  16
ENDBRANCH   1  14
TORSDOF 4
ENDMDL
MODEL 6
REMARK VINA RESULT:      -6.5      2.315      3.418
REMARK  Name = 
REMARK  7 active torsions:
REMARK  status: ('A' for Active; 'I' for Inactive)
REMARK    1  A    between atoms: C_1  and  C_2
REMARK    2  A    between atoms: C_5  and  S_6
REMARK    3  A    between atoms: S_6  and  N_9
REMARK    4  A    between atoms: N_9  and  C_10
REMARK    5  A    between atoms: C_17  and  N_18
REMARK    6  A    between atoms: N_18  and  C_19
REMARK    7  A    between atoms: N_18  and  C_20
REMARK                            x       y       z     vdW  Elec       q    Type
REMARK                         _______ _______ _______ _____ _____    ______ ____
ROOT
ATOM      1  S   UNL     1       5.383   5.206  15.311  0.00  0.00    +0.000 S 
ATOM      2  O   UNL     1       4.852   4.189  14.436  0.00  0.00    +0.000 OA
ATOM      3  O   UNL     1       5.505   6.583  14.870  0.00  0.00    +0.000 OA
ENDROOT
BRANCH   1   8
ATOM      4  C   UNL     1       2.163   5.438  20.460  0.00  0.00    +0.000 C 
ATOM      5  C   UNL     1       2.934   5.251  19.176  0.00  0.00    +0.000 A 
ATOM      6  C   UNL     1       3.219   6.444  18.467  0.00  0.00    +0.000 A 
ATOM      7  C   UNL     1       3.972   6.436  17.301  0.00  0.00    +0.000 A 
ATOM      8  C   UNL     1       4.430   5.222  16.814  0.00  0.00    +0.000 A 
ATOM      9  C   UNL     1       4.119   4.024  17.476  0.00  0.00    +0.000 A 
ATOM     10  C   UNL     1       3.389   3.995  18.689  0.00  0.00    +0.000 A 
BRANCH  10  11
ATOM     11  N   UNL     1       3.212   2.792  19.367  0.00  0.00    +0.000 N 
ATOM     12  C   UNL     1       4.325   2.121  20.042  0.00  0.00    +0.000 C 
ATOM     13  C   UNL     1       2.053   1.927  19.157  0.00  0.00    +0.000 C 
ENDBRANCH  10  11
ENDBRANCH   1   8
BRANCH   1  14
ATOM     14  N   UNL     1       6.928   4.753  15.841  0.00  0.00    +0.000 N 
ATOM     15  H   UNL     1       7.584   4.663  15.067  0.00  0.00    +0.000 HD
BRANCH  14  16
ATOM     16  C   UNL     1       7.409   5.360  17.038  0.00  0.00    +0.000 A 
ATOM     17  C   UNL     1       7.565   6.738  17.118  0.00  0.00    +0.000 A 
ATOM     18  C   UNL     1       7.940   7.315  18.328  0.00  0.00    +0.000 A 
ATOM     19  C   UNL     1       8.155   6.479  19.416  0.00  0.00    +0.000 A 
ATOM     20  N   UNL     1       8.015   5.134  19.372  0.00  0.00    +0.000 NA
ATOM     21  C   UNL     1       7.636   4.606  18.185  0.00  0.00    +0.000 A 
ENDBRANCH  14  16
ENDBRANCH   1  14
TORSDOF 4
ENDMDL
MODEL 7
REMARK VINA RESULT:      -6.4      1.757      2.900
REMARK  Name = 
REMARK  7 active torsions:
REMARK  status: ('A' for Active; 'I' for Inactive)
REMARK    1  A    between atoms: C_1  and  C_2
REMARK    2  A    between atoms: C_5  and  S_6
REMARK    3  A    between atoms: S_6  and  N_9
REMARK    4  A    between atoms: N_9  and  C_10
REMARK    5  A    between atoms: C_17  and  N_18
REMARK    6  A    between atoms: N_18  and  C_19
REMARK    7  A    between atoms: N_18  and  C_20
REMARK                            x       y       z     vdW  Elec       q    Type
REMARK                         _______ _______ _______ _____ _____    ______ ____
ROOT
ATOM      1  S   UNL     1       7.116   5.395  17.148  0.00  0.00    +0.000 S 
ATOM      2  O   UNL     1       7.713   6.379  18.019  0.00  0.00    +0.000 OA
ATOM      3  O   UNL     1       7.756   4.114  16.916  0.00  0.00    +0.000 OA
ENDROOT
BRANCH   1   8
ATOM      4  C   UNL     1       1.483   4.077  19.010  0.00  0.00    +0.000 C 
ATOM      5  C   UNL     1       2.867   4.523  18.604  0.00  0.00    +0.000 A 
ATOM      6  C   UNL     1       3.749   3.480  18.231  0.00  0.00    +0.000 A 
ATOM      7  C   UNL     1       5.035   3.741  17.778  0.00  0.00    +0.000 A 
ATOM      8  C   UNL     1       5.463   5.057  17.715  0.00  0.00    +0.000 A 
ATOM      9  C   UNL     1       4.620   6.102  18.124  0.00  0.00    +0.000 A 
ATOM     10  C   UNL     1       3.289   5.880  18.554  0.00  0.00    +0.000 A 
BRANCH  10  11
ATOM     11  N   UNL     1       2.457   6.960  18.833  0.00  0.00    +0.000 N 
ATOM     12  C   UNL     1       2.251   8.040  17.865  0.00  0.00    +0.000 C 
ATOM     13  C   UNL     1       2.037   7.308  20.189  0.00  0.00    +0.000 C 
ENDBRANCH  10  11
ENDBRANCH   1   8
BRANCH   1  14
ATOM     14  N   UNL     1       6.864   6.070  15.613  0.00  0.00    +0.000 N 
ATOM     15  H   UNL     1       7.439   6.897  15.463  0.00  0.00    +0.000 HD
BRANCH  14  16
ATOM     16  C   UNL     1       6.724   5.165  14.520  0.00  0.00    +0.000 A 
ATOM     17  C   UNL     1       5.599   4.356  14.413  0.00  0.00    +0.000 A 
ATOM     18  C   UNL     1       5.439   3.555  13.286  0.00  0.00    +0.000 A 
ATOM     19  C   UNL     1       6.424   3.590  12.308  0.00  0.00    +0.000 A 
ATOM     20  N   UNL     1       7.532   4.363  12.382  0.00  0.00    +0.000 NA
ATOM     21  C   UNL     1       7.652   5.141  13.484  0.00  0.00    +0.000 A 
ENDBRANCH  14  16
ENDBRANCH   1  14
TORSDOF 4
ENDMDL
MODEL 8
REMARK VINA RESULT:      -6.4      1.453      2.373
REMARK  Name = 
REMARK  7 active torsions:
REMARK  status: ('A' for Active; 'I' for Inactive)
REMARK    1  A    between atoms: C_1  and  C_2
REMARK    2  A    between atoms: C_5  and  S_6
REMARK    3  A    between atoms: S_6  and  N_9
REMARK    4  A    between atoms: N_9  and  C_10
REMARK    5  A    between atoms: C_17  and  N_18
REMARK    6  A    between atoms: N_18  and  C_19
REMARK    7  A    between atoms: N_18  and  C_20
REMARK                            x       y       z     vdW  Elec       q    Type
REMARK                         _______ _______ _______ _____ _____    ______ ____
ROOT
ATOM      1  S   UNL     1       5.704   5.788  16.763  0.00  0.00    +0.000 S 
ATOM      2  O   UNL     1       5.228   6.666  15.720  0.00  0.00    +0.000 OA
ATOM      3  O   UNL     1       6.421   6.310  17.910  0.00  0.00    +0.000 OA
ENDROOT
BRANCH   1   8
ATOM      4  C   UNL     1       0.978   2.515  18.735  0.00  0.00    +0.000 C 
ATOM      5  C   UNL     1       2.171   3.366  18.371  0.00  0.00    +0.000 A 
ATOM      6  C   UNL     1       2.746   3.085  17.108  0.00  0.00    +0.000 A 
ATOM      7  C   UNL     1       3.810   3.825  16.611  0.00  0.00    +0.000 A 
ATOM      8  C   UNL     1       4.330   4.847  17.390  0.00  0.00    +0.000 A 
ATOM      9  C   UNL     1       3.804   5.111  18.664  0.00  0.00    +0.000 A 
ATOM     10  C   UNL     1       2.693   4.405  19.188  0.00  0.00    +0.000 A 
BRANCH  10  11
ATOM     11  N   UNL     1       2.137   4.788  20.405  0.00  0.00    +0.000 N 
ATOM     12  C   UNL     1       1.695   6.163  20.648  0.00  0.00    +0.000 C 
ATOM     13  C   UNL     1       2.286   4.002  21.628  0.00  0.00    +0.000 C 
ENDBRANCH  10  11
ENDBRANCH   1   8
BRANCH   1  14
ATOM     14  N   UNL     1       6.709   4.599  16.092  0.00  0.00    +0.000 N 
ATOM     15  H   UNL     1       6.617   3.707  16.575  0.00  0.00    +0.000 HD
BRANCH  14  16
ATOM     16  C   UNL     1       6.815   4.564  14.670  0.00  0.00    +0.000 A 
ATOM     17  C   UNL     1       7.740   5.363  14.011  0.00  0.00    +0.000 A 
ATOM     18  C   UNL     1       7.894   5.238  12.633  0.00  0.00    +0.000 A 
ATOM     19  C   UNL     1       7.100   4.315  11.965  0.00  0.00    +0.000 A 
ATOM     20  N   UNL     1       6.188   3.523  12.575  0.00  0.00    +0.000 NA
ATOM     21  C   UNL     1       6.073   3.660  13.916  0.00  0.00    +0.000 A 
ENDBRANCH  14  16
ENDBRANCH   1  14
TORSDOF 4
ENDMDL
MODEL 9
REMARK VINA RESULT:      -6.2      3.884      5.435
REMARK  Name = 
REMARK  7 active torsions:
REMARK  status: ('A' for Active; 'I' for Inactive)
REMARK    1  A    between atoms: C_1  and  C_2
REMARK    2  A    between atoms: C_5  and  S_6
REMARK    3  A    between atoms: S_6  and  N_9
REMARK    4  A    between atoms: N_9  and  C_10
REMARK    5  A    between atoms: C_17  and  N_18
REMARK    6  A    between atoms: N_18  and  C_19
REMARK    7  A    between atoms: N_18  and  C_20
REMARK                            x       y       z     vdW  Elec       q    Type
REMARK                         _______ _______ _______ _____ _____    ______ ____
ROOT
ATOM      1  S   UNL     1       3.004   5.993  18.670  0.00  0.00    +0.000 S 
ATOM      2  O   UNL     1       3.875   5.352  19.625  0.00  0.00    +0.000 OA
ATOM      3  O   UNL     1       2.025   5.228  17.919  0.00  0.00    +0.000 OA
ENDROOT
BRANCH   1   8
ATOM      4  C   UNL     1      -0.053  10.356  21.594  0.00  0.00    +0.000 C 
ATOM      5  C   UNL     1       0.740   9.364  20.779  0.00  0.00    +0.000 A 
ATOM      6  C   UNL     1       1.079   8.166  21.453  0.00  0.00    +0.000 A 
ATOM      7  C   UNL     1       1.756   7.136  20.814  0.00  0.00    +0.000 A 
ATOM      8  C   UNL     1       2.124   7.305  19.489  0.00  0.00    +0.000 A 
ATOM      9  C   UNL     1       1.838   8.503  18.816  0.00  0.00    +0.000 A 
ATOM     10  C   UNL     1       1.115   9.560  19.421  0.00  0.00    +0.000 A 
BRANCH  10  11
ATOM     11  N   UNL     1       0.754  10.676  18.672  0.00  0.00    +0.000 N 
ATOM     12  C   UNL     1       1.587  11.881  18.642  0.00  0.00    +0.000 C 
ATOM     13  C   UNL     1      -0.604  10.896  18.180  0.00  0.00    +0.000 C 
ENDBRANCH  10  11
ENDBRANCH   1   8
BRANCH   1  14
ATOM     14  N   UNL     1       3.932   6.816  17.514  0.00  0.00    +0.000 N 
ATOM     15  H   UNL     1       4.100   7.784  17.782  0.00  0.00    +0.000 HD
BRANCH  14  16
ATOM     16  C   UNL     1       5.016   6.103  16.923  0.00  0.00    +0.000 A 
ATOM     17  C   UNL     1       4.796   4.897  16.270  0.00  0.00    +0.000 A 
ATOM     18  C   UNL     1       5.853   4.271  15.616  0.00  0.00    +0.000 A 
ATOM     19  C   UNL     1       7.101   4.880  15.651  0.00  0.00    +0.000 A 
ATOM     20  N   UNL     1       7.351   6.052  16.281  0.00  0.00    +0.000 NA
ATOM     21  C   UNL     1       6.299   6.641  16.895  0.00  0.00    +0.000 A 
ENDBRANCH  14  16
ENDBRANCH   1  14
TORSDOF 4
ENDMDL
