MODEL 1
REMARK VINA RESULT:      -8.1      0.000      0.000
REMARK  Name = 
REMARK  8 active torsions:
REMARK  status: ('A' for Active; 'I' for Inactive)
REMARK    1  A    between atoms: C_1  and  C_2
REMARK    2  A    between atoms: C_2  and  C_3
REMARK    3  A    between atoms: C_2  and  C_4
REMARK    4  A    between atoms: N_15  and  C_16
REMARK    5  A    between atoms: C_16  and  C_17
REMARK    6  A    between atoms: C_16  and  C_18
REMARK    7  A    between atoms: C_21  and  C_22
REMARK    8  A    between atoms: N_25  and  C_26
REMARK                            x       y       z     vdW  Elec       q    Type
REMARK                         _______ _______ _______ _____ _____    ______ ____
ROOT
ATOM      1  C   UNL     1       3.913  15.739  18.611  0.00  0.00    +0.000 C 
ATOM      2  C   UNL     1       5.049  16.702  18.933  0.00  0.00    +0.000 C 
ATOM      3  O   UNL     1       5.665  16.176  20.118  0.00  0.00    +0.000 OA
ATOM      4  C   UNL     1       4.759  15.350  20.729  0.00  0.00    +0.000 C 
ATOM      5  O   UNL     1       4.934  14.889  21.847  0.00  0.00    +0.000 OA
ATOM      6  N   UNL     1       3.696  15.129  19.888  0.00  0.00    +0.000 N 
ATOM      7  C   UNL     1       2.669  14.216  20.144  0.00  0.00    +0.000 A 
ATOM      8  C   UNL     1       1.924  14.400  21.290  0.00  0.00    +0.000 A 
ATOM      9  C   UNL     1       0.808  13.618  21.397  0.00  0.00    +0.000 A 
ATOM     10  N   UNL     1       0.487  12.666  20.507  0.00  0.00    +0.000 NA
ATOM     11  C   UNL     1       1.299  12.509  19.453  0.00  0.00    +0.000 A 
ATOM     12  N   UNL     1       1.051  11.509  18.528  0.00  0.00    +0.000 N 
ATOM     13  N   UNL     1       2.350  13.302  19.205  0.00  0.00    +0.000 NA
ATOM     14  H   UNL     1       1.904  11.349  18.008  0.00  0.00    +0.000 HD
ENDROOT
BRANCH   1  16
ATOM     15  C   UNL     1       1.981  17.426  18.958  0.00  0.00    +0.000 C 
ATOM     16  C   UNL     1       2.650  16.412  18.015  0.00  0.00    +0.000 C 
ATOM     17  C   UNL     1       2.944  17.081  16.674  0.00  0.00    +0.000 C 
ENDBRANCH   1  16
BRANCH  12  18
ATOM     18  C   UNL     1       0.323  10.326  18.977  0.00  0.00    +0.000 C 
ATOM     19  C   UNL     1      -0.852  10.104  18.016  0.00  0.00    +0.000 C 
BRANCH  18  20
ATOM     20  C   UNL     1       1.217   9.098  19.022  0.00  0.00    +0.000 A 
ATOM     21  C   UNL     1       1.992   8.695  17.923  0.00  0.00    +0.000 A 
ATOM     22  C   UNL     1       2.787   7.543  17.990  0.00  0.00    +0.000 A 
ATOM     23  C   UNL     1       2.838   6.765  19.156  0.00  0.00    +0.000 A 
ATOM     24  C   UNL     1       2.058   7.157  20.248  0.00  0.00    +0.000 A 
ATOM     25  C   UNL     1       1.262   8.304  20.173  0.00  0.00    +0.000 A 
ATOM     26  F   UNL     1       0.511   8.621  21.237  0.00  0.00    +0.000 F 
BRANCH  23  27
ATOM     27  C   UNL     1       3.692   5.590  19.212  0.00  0.00    +0.000 A 
ATOM     28  C   UNL     1       5.081   5.443  18.978  0.00  0.00    +0.000 A 
ATOM     29  N   UNL     1       5.512   4.194  19.179  0.00  0.00    +0.000 NA
ATOM     30  N   UNL     1       4.403   3.537  19.559  0.00  0.00    +0.000 N 
ATOM     31  C   UNL     1       4.476   2.145  19.933  0.00  0.00    +0.000 C 
ATOM     32  C   UNL     1       3.286   4.324  19.580  0.00  0.00    +0.000 A 
ENDBRANCH  23  27
ENDBRANCH  18  20
ENDBRANCH  12  18
TORSDOF 4
ENDMDL
MODEL 2
REMARK VINA RESULT:      -7.6      4.692      9.883
REMARK  Name = 
REMARK  8 active torsions:
REMARK  status: ('A' for Active; 'I' for Inactive)
REMARK    1  A    between atoms: C_1  and  C_2
REMARK    2  A    between atoms: C_2  and  C_3
REMARK    3  A    between atoms: C_2  and  C_4
REMARK    4  A    between atoms: N_15  and  C_16
REMARK    5  A    between atoms: C_16  and  C_17
REMARK    6  A    between atoms: C_16  and  C_18
REMARK    7  A    between atoms: C_21  and  C_22
REMARK    8  A    between atoms: N_25  and  C_26
REMARK                            x       y       z     vdW  Elec       q    Type
REMARK                         _______ _______ _______ _____ _____    ______ ____
ROOT
ATOM      1  C   UNL     1       2.894   3.574  19.635  0.00  0.00    +0.000 C 
ATOM      2  C   UNL     1       3.734   2.326  19.876  0.00  0.00    +0.000 C 
ATOM      3  O   UNL     1       5.071   2.806  20.082  0.00  0.00    +0.000 OA
ATOM      4  C   UNL     1       5.154   4.060  19.540  0.00  0.00    +0.000 C 
ATOM      5  O   UNL     1       6.213   4.657  19.411  0.00  0.00    +0.000 OA
ATOM      6  N   UNL     1       3.896   4.506  19.214  0.00  0.00    +0.000 N 
ATOM      7  C   UNL     1       3.612   5.804  18.778  0.00  0.00    +0.000 A 
ATOM      8  C   UNL     1       4.234   6.239  17.627  0.00  0.00    +0.000 A 
ATOM      9  C   UNL     1       3.774   7.425  17.125  0.00  0.00    +0.000 A 
ATOM     10  N   UNL     1       2.849   8.177  17.739  0.00  0.00    +0.000 NA
ATOM     11  C   UNL     1       2.340   7.711  18.888  0.00  0.00    +0.000 A 
ATOM     12  N   UNL     1       1.420   8.465  19.597  0.00  0.00    +0.000 N 
ATOM     13  N   UNL     1       2.644   6.510  19.397  0.00  0.00    +0.000 NA
ATOM     14  H   UNL     1       1.394   8.112  20.544  0.00  0.00    +0.000 HD
ENDROOT
BRANCH   1  16
ATOM     15  C   UNL     1       2.222   2.989  17.204  0.00  0.00    +0.000 C 
ATOM     16  C   UNL     1       1.745   3.387  18.611  0.00  0.00    +0.000 C 
ATOM     17  C   UNL     1       0.709   2.378  19.102  0.00  0.00    +0.000 C 
ENDBRANCH   1  16
BRANCH  12  18
ATOM     18  C   UNL     1       1.452   9.915  19.435  0.00  0.00    +0.000 C 
ATOM     19  C   UNL     1       1.134  10.233  17.968  0.00  0.00    +0.000 C 
BRANCH  18  20
ATOM     20  C   UNL     1       0.464  10.607  20.359  0.00  0.00    +0.000 A 
ATOM     21  C   UNL     1      -0.419  11.598  19.903  0.00  0.00    +0.000 A 
ATOM     22  C   UNL     1      -1.301  12.234  20.787  0.00  0.00    +0.000 A 
ATOM     23  C   UNL     1      -1.333  11.894  22.147  0.00  0.00    +0.000 A 
ATOM     24  C   UNL     1      -0.446  10.917  22.607  0.00  0.00    +0.000 A 
ATOM     25  C   UNL     1       0.436  10.291  21.721  0.00  0.00    +0.000 A 
ATOM     26  F   UNL     1       1.285   9.380  22.217  0.00  0.00    +0.000 F 
BRANCH  23  27
ATOM     27  C   UNL     1      -2.277  12.548  23.040  0.00  0.00    +0.000 A 
ATOM     28  C   UNL     1      -3.345  12.020  23.806  0.00  0.00    +0.000 A 
ATOM     29  N   UNL     1      -3.958  12.946  24.549  0.00  0.00    +0.000 NA
ATOM     30  N   UNL     1      -3.275  14.070  24.275  0.00  0.00    +0.000 N 
ATOM     31  C   UNL     1      -3.606  15.303  24.949  0.00  0.00    +0.000 C 
ATOM     32  C   UNL     1      -2.270  13.888  23.367  0.00  0.00    +0.000 A 
ENDBRANCH  23  27
ENDBRANCH  18  20
ENDBRANCH  12  18
TORSDOF 4
ENDMDL
MODEL 3
REMARK VINA RESULT:      -7.6      3.566      5.343
REMARK  Name = 
REMARK  8 active torsions:
REMARK  status: ('A' for Active; 'I' for Inactive)
REMARK    1  A    between atoms: C_1  and  C_2
REMARK    2  A    between atoms: C_2  and  C_3
REMARK    3  A    between atoms: C_2  and  C_4
REMARK    4  A    between atoms: N_15  and  C_16
REMARK    5  A    between atoms: C_16  and  C_17
REMARK    6  A    between atoms: C_16  and  C_18
REMARK    7  A    between atoms: C_21  and  C_22
REMARK    8  A    between atoms: N_25  and  C_26
REMARK                            x       y       z     vdW  Elec       q    Type
REMARK                         _______ _______ _______ _____ _____    ______ ____
ROOT
ATOM      1  C   UNL     1      -0.541  12.219  19.150  0.00  0.00    +0.000 C 
ATOM      2  C   UNL     1      -0.766  13.719  19.296  0.00  0.00    +0.000 C 
ATOM      3  O   UNL     1       0.380  14.205  20.011  0.00  0.00    +0.000 OA
ATOM      4  C   UNL     1       0.948  13.142  20.661  0.00  0.00    +0.000 C 
ATOM      5  O   UNL     1       1.840  13.272  21.487  0.00  0.00    +0.000 OA
ATOM      6  N   UNL     1       0.382  11.973  20.217  0.00  0.00    +0.000 N 
ATOM      7  C   UNL     1       0.836  10.697  20.568  0.00  0.00    +0.000 A 
ATOM      8  C   UNL     1       0.839  10.369  21.907  0.00  0.00    +0.000 A 
ATOM      9  C   UNL     1       1.090   9.055  22.188  0.00  0.00    +0.000 A 
ATOM     10  N   UNL     1       1.405   8.148  21.251  0.00  0.00    +0.000 NA
ATOM     11  C   UNL     1       1.442   8.564  19.978  0.00  0.00    +0.000 A 
ATOM     12  N   UNL     1       1.810   7.688  18.971  0.00  0.00    +0.000 N 
ATOM     13  N   UNL     1       1.100   9.801  19.595  0.00  0.00    +0.000 NA
ATOM     14  H   UNL     1       2.075   8.238  18.165  0.00  0.00    +0.000 HD
ENDROOT
BRANCH   1  16
ATOM     15  C   UNL     1      -3.095  12.175  19.567  0.00  0.00    +0.000 C 
ATOM     16  C   UNL     1      -1.833  11.365  19.230  0.00  0.00    +0.000 C 
ATOM     17  C   UNL     1      -2.065  10.570  17.947  0.00  0.00    +0.000 C 
ENDBRANCH   1  16
BRANCH  12  18
ATOM     18  C   UNL     1       2.682   6.570  19.321  0.00  0.00    +0.000 C 
ATOM     19  C   UNL     1       1.802   5.442  19.875  0.00  0.00    +0.000 C 
BRANCH  18  20
ATOM     20  C   UNL     1       3.483   6.085  18.124  0.00  0.00    +0.000 A 
ATOM     21  C   UNL     1       3.538   4.731  17.759  0.00  0.00    +0.000 A 
ATOM     22  C   UNL     1       4.307   4.314  16.664  0.00  0.00    +0.000 A 
ATOM     23  C   UNL     1       5.034   5.236  15.897  0.00  0.00    +0.000 A 
ATOM     24  C   UNL     1       4.991   6.584  16.266  0.00  0.00    +0.000 A 
ATOM     25  C   UNL     1       4.228   6.992  17.363  0.00  0.00    +0.000 A 
ATOM     26  F   UNL     1       4.242   8.292  17.691  0.00  0.00    +0.000 F 
BRANCH  23  27
ATOM     27  C   UNL     1       5.802   4.783  14.748  0.00  0.00    +0.000 A 
ATOM     28  C   UNL     1       7.124   5.085  14.341  0.00  0.00    +0.000 A 
ATOM     29  N   UNL     1       7.492   4.424  13.239  0.00  0.00    +0.000 NA
ATOM     30  N   UNL     1       6.411   3.682  12.944  0.00  0.00    +0.000 N 
ATOM     31  C   UNL     1       6.443   2.765  11.830  0.00  0.00    +0.000 C 
ATOM     32  C   UNL     1       5.369   3.872  13.807  0.00  0.00    +0.000 A 
ENDBRANCH  23  27
ENDBRANCH  18  20
ENDBRANCH  12  18
TORSDOF 4
ENDMDL
MODEL 4
REMARK VINA RESULT:      -7.6      1.145      1.463
REMARK  Name = 
REMARK  8 active torsions:
REMARK  status: ('A' for Active; 'I' for Inactive)
REMARK    1  A    between atoms: C_1  and  C_2
REMARK    2  A    between atoms: C_2  and  C_3
REMARK    3  A    between atoms: C_2  and  C_4
REMARK    4  A    between atoms: N_15  and  C_16
REMARK    5  A    between atoms: C_16  and  C_17
REMARK    6  A    between atoms: C_16  and  C_18
REMARK    7  A    between atoms: C_21  and  C_22
REMARK    8  A    between atoms: N_25  and  C_26
REMARK                            x       y       z     vdW  Elec       q    Type
REMARK                         _______ _______ _______ _____ _____    ______ ____
ROOT
ATOM      1  C   UNL     1       3.511  15.856  19.803  0.00  0.00    +0.000 C 
ATOM      2  C   UNL     1       4.470  16.892  20.378  0.00  0.00    +0.000 C 
ATOM      3  O   UNL     1       4.762  16.438  21.707  0.00  0.00    +0.000 OA
ATOM      4  C   UNL     1       3.764  15.581  22.086  0.00  0.00    +0.000 C 
ATOM      5  O   UNL     1       3.648  15.164  23.229  0.00  0.00    +0.000 OA
ATOM      6  N   UNL     1       2.982  15.274  20.999  0.00  0.00    +0.000 N 
ATOM      7  C   UNL     1       1.968  14.311  21.008  0.00  0.00    +0.000 A 
ATOM      8  C   UNL     1       0.931  14.488  21.900  0.00  0.00    +0.000 A 
ATOM      9  C   UNL     1      -0.134  13.646  21.735  0.00  0.00    +0.000 A 
ATOM     10  N   UNL     1      -0.155  12.651  20.835  0.00  0.00    +0.000 NA
ATOM     11  C   UNL     1       0.921  12.508  20.049  0.00  0.00    +0.000 A 
ATOM     12  N   UNL     1       0.982  11.469  19.137  0.00  0.00    +0.000 N 
ATOM     13  N   UNL     1       1.961  13.353  20.060  0.00  0.00    +0.000 NA
ATOM     14  H   UNL     1       1.950  11.342  18.876  0.00  0.00    +0.000 HD
ENDROOT
BRANCH   1  16
ATOM     15  C   UNL     1       1.715  17.679  19.417  0.00  0.00    +0.000 C 
ATOM     16  C   UNL     1       2.428  16.437  18.858  0.00  0.00    +0.000 C 
ATOM     17  C   UNL     1       2.996  16.755  17.476  0.00  0.00    +0.000 C 
ENDBRANCH   1  16
BRANCH  12  18
ATOM     18  C   UNL     1       0.215  10.260  19.424  0.00  0.00    +0.000 C 
ATOM     19  C   UNL     1      -0.891  10.142  18.367  0.00  0.00    +0.000 C 
BRANCH  18  20
ATOM     20  C   UNL     1       1.094   9.020  19.419  0.00  0.00    +0.000 A 
ATOM     21  C   UNL     1       1.179   8.159  20.523  0.00  0.00    +0.000 A 
ATOM     22  C   UNL     1       2.019   7.037  20.495  0.00  0.00    +0.000 A 
ATOM     23  C   UNL     1       2.790   6.739  19.363  0.00  0.00    +0.000 A 
ATOM     24  C   UNL     1       2.718   7.602  18.266  0.00  0.00    +0.000 A 
ATOM     25  C   UNL     1       1.883   8.723  18.303  0.00  0.00    +0.000 A 
ATOM     26  F   UNL     1       1.870   9.534  17.236  0.00  0.00    +0.000 F 
BRANCH  23  27
ATOM     27  C   UNL     1       3.633   5.554  19.346  0.00  0.00    +0.000 A 
ATOM     28  C   UNL     1       5.021   5.408  19.104  0.00  0.00    +0.000 A 
ATOM     29  N   UNL     1       5.439   4.145  19.228  0.00  0.00    +0.000 NA
ATOM     30  N   UNL     1       4.324   3.477  19.566  0.00  0.00    +0.000 N 
ATOM     31  C   UNL     1       4.384   2.064  19.854  0.00  0.00    +0.000 C 
ATOM     32  C   UNL     1       3.214   4.272  19.635  0.00  0.00    +0.000 A 
ENDBRANCH  23  27
ENDBRANCH  18  20
ENDBRANCH  12  18
TORSDOF 4
ENDMDL
MODEL 5
REMARK VINA RESULT:      -7.5      4.565      9.924
REMARK  Name = 
REMARK  8 active torsions:
REMARK  status: ('A' for Active; 'I' for Inactive)
REMARK    1  A    between atoms: C_1  and  C_2
REMARK    2  A    between atoms: C_2  and  C_3
REMARK    3  A    between atoms: C_2  and  C_4
REMARK    4  A    between atoms: N_15  and  C_16
REMARK    5  A    between atoms: C_16  and  C_17
REMARK    6  A    between atoms: C_16  and  C_18
REMARK    7  A    between atoms: C_21  and  C_22
REMARK    8  A    between atoms: N_25  and  C_26
REMARK                            x       y       z     vdW  Elec       q    Type
REMARK                         _______ _______ _______ _____ _____    ______ ____
ROOT
ATOM      1  C   UNL     1       3.009   3.587  19.686  0.00  0.00    +0.000 C 
ATOM      2  C   UNL     1       3.877   2.359  19.930  0.00  0.00    +0.000 C 
ATOM      3  O   UNL     1       5.212   2.863  20.079  0.00  0.00    +0.000 OA
ATOM      4  C   UNL     1       5.256   4.105  19.504  0.00  0.00    +0.000 C 
ATOM      5  O   UNL     1       6.301   4.714  19.325  0.00  0.00    +0.000 OA
ATOM      6  N   UNL     1       3.982   4.523  19.210  0.00  0.00    +0.000 N 
ATOM      7  C   UNL     1       3.662   5.805  18.751  0.00  0.00    +0.000 A 
ATOM      8  C   UNL     1       4.238   6.220  17.569  0.00  0.00    +0.000 A 
ATOM      9  C   UNL     1       3.744   7.386  17.054  0.00  0.00    +0.000 A 
ATOM     10  N   UNL     1       2.827   8.139  17.680  0.00  0.00    +0.000 NA
ATOM     11  C   UNL     1       2.364   7.695  18.856  0.00  0.00    +0.000 A 
ATOM     12  N   UNL     1       1.456   8.452  19.576  0.00  0.00    +0.000 N 
ATOM     13  N   UNL     1       2.704   6.512  19.385  0.00  0.00    +0.000 NA
ATOM     14  H   UNL     1       1.468   8.123  20.533  0.00  0.00    +0.000 HD
ENDROOT
BRANCH   1  16
ATOM     15  C   UNL     1       2.240   2.690  17.383  0.00  0.00    +0.000 C 
ATOM     16  C   UNL     1       1.830   3.356  18.707  0.00  0.00    +0.000 C 
ATOM     17  C   UNL     1       0.705   2.551  19.356  0.00  0.00    +0.000 C 
ENDBRANCH   1  16
BRANCH  12  18
ATOM     18  C   UNL     1       1.460   9.898  19.378  0.00  0.00    +0.000 C 
ATOM     19  C   UNL     1       1.021  10.177  17.934  0.00  0.00    +0.000 C 
BRANCH  18  20
ATOM     20  C   UNL     1       0.542  10.605  20.362  0.00  0.00    +0.000 A 
ATOM     21  C   UNL     1       0.063   9.977  21.522  0.00  0.00    +0.000 A 
ATOM     22  C   UNL     1      -0.802  10.649  22.396  0.00  0.00    +0.000 A 
ATOM     23  C   UNL     1      -1.207  11.967  22.143  0.00  0.00    +0.000 A 
ATOM     24  C   UNL     1      -0.742  12.591  20.981  0.00  0.00    +0.000 A 
ATOM     25  C   UNL     1       0.116  11.913  20.110  0.00  0.00    +0.000 A 
ATOM     26  F   UNL     1       0.512  12.546  18.996  0.00  0.00    +0.000 F 
BRANCH  23  27
ATOM     27  C   UNL     1      -2.082  12.653  23.079  0.00  0.00    +0.000 A 
ATOM     28  C   UNL     1      -3.319  12.262  23.648  0.00  0.00    +0.000 A 
ATOM     29  N   UNL     1      -3.798  13.158  24.515  0.00  0.00    +0.000 NA
ATOM     30  N   UNL     1      -2.863  14.123  24.517  0.00  0.00    +0.000 N 
ATOM     31  C   UNL     1      -2.996  15.259  25.397  0.00  0.00    +0.000 C 
ATOM     32  C   UNL     1      -1.824  13.875  23.664  0.00  0.00    +0.000 A 
ENDBRANCH  23  27
ENDBRANCH  18  20
ENDBRANCH  12  18
TORSDOF 4
ENDMDL
MODEL 6
REMARK VINA RESULT:      -7.3      4.630      9.846
REMARK  Name = 
REMARK  8 active torsions:
REMARK  status: ('A' for Active; 'I' for Inactive)
REMARK    1  A    between atoms: C_1  and  C_2
REMARK    2  A    between atoms: C_2  and  C_3
REMARK    3  A    between atoms: C_2  and  C_4
REMARK    4  A    between atoms: N_15  and  C_16
REMARK    5  A    between atoms: C_16  and  C_17
REMARK    6  A    between atoms: C_16  and  C_18
REMARK    7  A    between atoms: C_21  and  C_22
REMARK    8  A    between atoms: N_25  and  C_26
REMARK                            x       y       z     vdW  Elec       q    Type
REMARK                         _______ _______ _______ _____ _____    ______ ____
ROOT
ATOM      1  C   UNL     1       3.064   3.779  19.619  0.00  0.00    +0.000 C 
ATOM      2  C   UNL     1       3.996   2.603  19.880  0.00  0.00    +0.000 C 
ATOM      3  O   UNL     1       5.296   3.183  20.056  0.00  0.00    +0.000 OA
ATOM      4  C   UNL     1       5.281   4.426  19.481  0.00  0.00    +0.000 C 
ATOM      5  O   UNL     1       6.292   5.094  19.323  0.00  0.00    +0.000 OA
ATOM      6  N   UNL     1       3.991   4.770  19.162  0.00  0.00    +0.000 N 
ATOM      7  C   UNL     1       3.607   6.032  18.697  0.00  0.00    +0.000 A 
ATOM      8  C   UNL     1       4.182   6.481  17.526  0.00  0.00    +0.000 A 
ATOM      9  C   UNL     1       3.632   7.616  17.001  0.00  0.00    +0.000 A 
ATOM     10  N   UNL     1       2.661   8.315  17.609  0.00  0.00    +0.000 NA
ATOM     11  C   UNL     1       2.201   7.844  18.776  0.00  0.00    +0.000 A 
ATOM     12  N   UNL     1       1.237   8.547  19.477  0.00  0.00    +0.000 N 
ATOM     13  N   UNL     1       2.598   6.682  19.311  0.00  0.00    +0.000 NA
ATOM     14  H   UNL     1       1.248   8.219  20.433  0.00  0.00    +0.000 HD
ENDROOT
BRANCH   1  16
ATOM     15  C   UNL     1       2.361   2.664  17.391  0.00  0.00    +0.000 C 
ATOM     16  C   UNL     1       1.920   3.482  18.616  0.00  0.00    +0.000 C 
ATOM     17  C   UNL     1       0.740   2.788  19.294  0.00  0.00    +0.000 C 
ENDBRANCH   1  16
BRANCH  12  18
ATOM     18  C   UNL     1       1.161   9.991  19.278  0.00  0.00    +0.000 C 
ATOM     19  C   UNL     1       2.101  10.358  18.122  0.00  0.00    +0.000 C 
BRANCH  18  20
ATOM     20  C   UNL     1      -0.258  10.445  18.978  0.00  0.00    +0.000 A 
ATOM     21  C   UNL     1      -1.000   9.924  17.907  0.00  0.00    +0.000 A 
ATOM     22  C   UNL     1      -2.297  10.383  17.643  0.00  0.00    +0.000 A 
ATOM     23  C   UNL     1      -2.895  11.366  18.444  0.00  0.00    +0.000 A 
ATOM     24  C   UNL     1      -2.154  11.896  19.504  0.00  0.00    +0.000 A 
ATOM     25  C   UNL     1      -0.857  11.440  19.759  0.00  0.00    +0.000 A 
ATOM     26  F   UNL     1      -0.179  11.999  20.770  0.00  0.00    +0.000 F 
BRANCH  23  27
ATOM     27  C   UNL     1      -4.253  11.806  18.168  0.00  0.00    +0.000 A 
ATOM     28  C   UNL     1      -4.970  11.887  16.950  0.00  0.00    +0.000 A 
ATOM     29  N   UNL     1      -6.230  12.300  17.116  0.00  0.00    +0.000 NA
ATOM     30  N   UNL     1      -6.332  12.470  18.444  0.00  0.00    +0.000 N 
ATOM     31  C   UNL     1      -7.591  12.860  19.032  0.00  0.00    +0.000 C 
ATOM     32  C   UNL     1      -5.172  12.202  19.117  0.00  0.00    +0.000 A 
ENDBRANCH  23  27
ENDBRANCH  18  20
ENDBRANCH  12  18
TORSDOF 4
ENDMDL
MODEL 7
REMARK VINA RESULT:      -7.3      4.175      6.096
REMARK  Name = 
REMARK  8 active torsions:
REMARK  status: ('A' for Active; 'I' for Inactive)
REMARK    1  A    between atoms: C_1  and  C_2
REMARK    2  A    between atoms: C_2  and  C_3
REMARK    3  A    between atoms: C_2  and  C_4
REMARK    4  A    between atoms: N_15  and  C_16
REMARK    5  A    between atoms: C_16  and  C_17
REMARK    6  A    between atoms: C_16  and  C_18
REMARK    7  A    between atoms: C_21  and  C_22
REMARK    8  A    between atoms: N_25  and  C_26
REMARK                            x       y       z     vdW  Elec       q    Type
REMARK                         _______ _______ _______ _____ _____    ______ ____
ROOT
ATOM      1  C   UNL     1      -4.645  11.325  18.347  0.00  0.00    +0.000 C 
ATOM      2  C   UNL     1      -5.641  11.484  17.204  0.00  0.00    +0.000 C 
ATOM      3  O   UNL     1      -4.905  11.165  16.015  0.00  0.00    +0.000 OA
ATOM      4  C   UNL     1      -3.572  11.305  16.297  0.00  0.00    +0.000 C 
ATOM      5  O   UNL     1      -2.706  11.266  15.436  0.00  0.00    +0.000 OA
ATOM      6  N   UNL     1      -3.401  11.462  17.651  0.00  0.00    +0.000 N 
ATOM      7  C   UNL     1      -2.156  11.482  18.288  0.00  0.00    +0.000 A 
ATOM      8  C   UNL     1      -1.262  12.460  17.905  0.00  0.00    +0.000 A 
ATOM      9  C   UNL     1      -0.148  12.574  18.689  0.00  0.00    +0.000 A 
ATOM     10  N   UNL     1       0.124  11.747  19.710  0.00  0.00    +0.000 NA
ATOM     11  C   UNL     1      -0.768  10.783  19.977  0.00  0.00    +0.000 A 
ATOM     12  N   UNL     1      -0.520   9.866  20.983  0.00  0.00    +0.000 N 
ATOM     13  N   UNL     1      -1.939  10.664  19.337  0.00  0.00    +0.000 NA
ATOM     14  H   UNL     1      -1.122   9.069  20.831  0.00  0.00    +0.000 HD
ENDROOT
BRANCH   1  16
ATOM     15  C   UNL     1      -5.425  13.686  19.066  0.00  0.00    +0.000 C 
ATOM     16  C   UNL     1      -4.828  12.339  19.505  0.00  0.00    +0.000 C 
ATOM     17  C   UNL     1      -5.669  11.755  20.639  0.00  0.00    +0.000 C 
ENDBRANCH   1  16
BRANCH  12  18
ATOM     18  C   UNL     1       0.871   9.585  21.327  0.00  0.00    +0.000 C 
ATOM     19  C   UNL     1       0.954   9.409  22.848  0.00  0.00    +0.000 C 
BRANCH  18  20
ATOM     20  C   UNL     1       1.387   8.345  20.616  0.00  0.00    +0.000 A 
ATOM     21  C   UNL     1       1.355   7.074  21.209  0.00  0.00    +0.000 A 
ATOM     22  C   UNL     1       1.862   5.955  20.535  0.00  0.00    +0.000 A 
ATOM     23  C   UNL     1       2.406   6.069  19.248  0.00  0.00    +0.000 A 
ATOM     24  C   UNL     1       2.450   7.336  18.659  0.00  0.00    +0.000 A 
ATOM     25  C   UNL     1       1.949   8.450  19.339  0.00  0.00    +0.000 A 
ATOM     26  F   UNL     1       2.040   9.647  18.742  0.00  0.00    +0.000 F 
BRANCH  23  27
ATOM     27  C   UNL     1       2.900   4.889  18.557  0.00  0.00    +0.000 A 
ATOM     28  C   UNL     1       3.645   4.761  17.360  0.00  0.00    +0.000 A 
ATOM     29  N   UNL     1       3.954   3.493  17.074  0.00  0.00    +0.000 NA
ATOM     30  N   UNL     1       3.422   2.803  18.096  0.00  0.00    +0.000 N 
ATOM     31  C   UNL     1       3.603   1.373  18.178  0.00  0.00    +0.000 C 
ATOM     32  C   UNL     1       2.768   3.590  19.002  0.00  0.00    +0.000 A 
ENDBRANCH  23  27
ENDBRANCH  18  20
ENDBRANCH  12  18
TORSDOF 4
ENDMDL
MODEL 8
REMARK VINA RESULT:      -7.2      3.673      5.447
REMARK  Name = 
REMARK  8 active torsions:
REMARK  status: ('A' for Active; 'I' for Inactive)
REMARK    1  A    between atoms: C_1  and  C_2
REMARK    2  A    between atoms: C_2  and  C_3
REMARK    3  A    between atoms: C_2  and  C_4
REMARK    4  A    between atoms: N_15  and  C_16
REMARK    5  A    between atoms: C_16  and  C_17
REMARK    6  A    between atoms: C_16  and  C_18
REMARK    7  A    between atoms: C_21  and  C_22
REMARK    8  A    between atoms: N_25  and  C_26
REMARK                            x       y       z     vdW  Elec       q    Type
REMARK                         _______ _______ _______ _____ _____    ______ ____
ROOT
ATOM      1  C   UNL     1      -0.559  12.131  19.095  0.00  0.00    +0.000 C 
ATOM      2  C   UNL     1      -0.828  13.621  19.267  0.00  0.00    +0.000 C 
ATOM      3  O   UNL     1       0.295  14.125  20.004  0.00  0.00    +0.000 OA
ATOM      4  C   UNL     1       0.886  13.066  20.641  0.00  0.00    +0.000 C 
ATOM      5  O   UNL     1       1.764  13.205  21.480  0.00  0.00    +0.000 OA
ATOM      6  N   UNL     1       0.358  11.890  20.167  0.00  0.00    +0.000 N 
ATOM      7  C   UNL     1       0.844  10.621  20.499  0.00  0.00    +0.000 A 
ATOM      8  C   UNL     1       0.841  10.267  21.832  0.00  0.00    +0.000 A 
ATOM      9  C   UNL     1       1.127   8.955  22.090  0.00  0.00    +0.000 A 
ATOM     10  N   UNL     1       1.477   8.076  21.140  0.00  0.00    +0.000 NA
ATOM     11  C   UNL     1       1.517   8.518  19.875  0.00  0.00    +0.000 A 
ATOM     12  N   UNL     1       1.922   7.673  18.857  0.00  0.00    +0.000 N 
ATOM     13  N   UNL     1       1.145   9.752  19.513  0.00  0.00    +0.000 NA
ATOM     14  H   UNL     1       2.180   8.245  18.064  0.00  0.00    +0.000 HD
ENDROOT
BRANCH   1  16
ATOM     15  C   UNL     1      -3.130  12.021  19.376  0.00  0.00    +0.000 C 
ATOM     16  C   UNL     1      -1.827  11.240  19.142  0.00  0.00    +0.000 C 
ATOM     17  C   UNL     1      -1.964  10.385  17.884  0.00  0.00    +0.000 C 
ENDBRANCH   1  16
BRANCH  12  18
ATOM     18  C   UNL     1       2.821   6.573  19.195  0.00  0.00    +0.000 C 
ATOM     19  C   UNL     1       1.969   5.415  19.729  0.00  0.00    +0.000 C 
BRANCH  18  20
ATOM     20  C   UNL     1       3.640   6.126  17.995  0.00  0.00    +0.000 A 
ATOM     21  C   UNL     1       4.313   7.037  17.166  0.00  0.00    +0.000 A 
ATOM     22  C   UNL     1       5.039   6.593  16.053  0.00  0.00    +0.000 A 
ATOM     23  C   UNL     1       5.122   5.228  15.741  0.00  0.00    +0.000 A 
ATOM     24  C   UNL     1       4.443   4.319  16.557  0.00  0.00    +0.000 A 
ATOM     25  C   UNL     1       3.715   4.769  17.662  0.00  0.00    +0.000 A 
ATOM     26  F   UNL     1       3.059   3.860  18.397  0.00  0.00    +0.000 F 
BRANCH  23  27
ATOM     27  C   UNL     1       5.905   4.789  14.597  0.00  0.00    +0.000 A 
ATOM     28  C   UNL     1       7.208   5.148  14.173  0.00  0.00    +0.000 A 
ATOM     29  N   UNL     1       7.603   4.480  13.085  0.00  0.00    +0.000 NA
ATOM     30  N   UNL     1       6.560   3.678  12.815  0.00  0.00    +0.000 N 
ATOM     31  C   UNL     1       6.632   2.738  11.722  0.00  0.00    +0.000 C 
ATOM     32  C   UNL     1       5.514   3.835  13.681  0.00  0.00    +0.000 A 
ENDBRANCH  23  27
ENDBRANCH  18  20
ENDBRANCH  12  18
TORSDOF 4
ENDMDL
MODEL 9
REMARK VINA RESULT:      -7.2      1.590      1.824
REMARK  Name = 
REMARK  8 active torsions:
REMARK  status: ('A' for Active; 'I' for Inactive)
REMARK    1  A    between atoms: C_1  and  C_2
REMARK    2  A    between atoms: C_2  and  C_3
REMARK    3  A    between atoms: C_2  and  C_4
REMARK    4  A    between atoms: N_15  and  C_16
REMARK    5  A    between atoms: C_16  and  C_17
REMARK    6  A    between atoms: C_16  and  C_18
REMARK    7  A    between atoms: C_21  and  C_22
REMARK    8  A    between atoms: N_25  and  C_26
REMARK                            x       y       z     vdW  Elec       q    Type
REMARK                         _______ _______ _______ _____ _____    ______ ____
ROOT
ATOM      1  C   UNL     1       2.886  16.595  19.995  0.00  0.00    +0.000 C 
ATOM      2  C   UNL     1       3.766  17.724  20.517  0.00  0.00    +0.000 C 
ATOM      3  O   UNL     1       4.210  17.289  21.810  0.00  0.00    +0.000 OA
ATOM      4  C   UNL     1       3.344  16.322  22.246  0.00  0.00    +0.000 C 
ATOM      5  O   UNL     1       3.363  15.880  23.386  0.00  0.00    +0.000 OA
ATOM      6  N   UNL     1       2.518  15.943  21.215  0.00  0.00    +0.000 N 
ATOM      7  C   UNL     1       1.619  14.874  21.281  0.00  0.00    +0.000 A 
ATOM      8  C   UNL     1       0.642  14.923  22.253  0.00  0.00    +0.000 A 
ATOM      9  C   UNL     1      -0.333  13.971  22.151  0.00  0.00    +0.000 A 
ATOM     10  N   UNL     1      -0.315  12.991  21.236  0.00  0.00    +0.000 NA
ATOM     11  C   UNL     1       0.705  12.978  20.367  0.00  0.00    +0.000 A 
ATOM     12  N   UNL     1       0.809  11.963  19.432  0.00  0.00    +0.000 N 
ATOM     13  N   UNL     1       1.644  13.932  20.317  0.00  0.00    +0.000 NA
ATOM     14  H   UNL     1       1.762  11.948  19.095  0.00  0.00    +0.000 HD
ENDROOT
BRANCH   1  16
ATOM     15  C   UNL     1       1.095  18.420  19.585  0.00  0.00    +0.000 C 
ATOM     16  C   UNL     1       1.675  17.065  19.147  0.00  0.00    +0.000 C 
ATOM     17  C   UNL     1       2.012  17.112  17.658  0.00  0.00    +0.000 C 
ENDBRANCH   1  16
BRANCH  12  18
ATOM     18  C   UNL     1       0.203  10.673  19.751  0.00  0.00    +0.000 C 
ATOM     19  C   UNL     1      -1.169  10.615  19.067  0.00  0.00    +0.000 C 
BRANCH  18  20
ATOM     20  C   UNL     1       1.076   9.514  19.298  0.00  0.00    +0.000 A 
ATOM     21  C   UNL     1       1.608   9.439  18.002  0.00  0.00    +0.000 A 
ATOM     22  C   UNL     1       2.389   8.344  17.609  0.00  0.00    +0.000 A 
ATOM     23  C   UNL     1       2.669   7.298  18.500  0.00  0.00    +0.000 A 
ATOM     24  C   UNL     1       2.130   7.363  19.788  0.00  0.00    +0.000 A 
ATOM     25  C   UNL     1       1.346   8.455  20.172  0.00  0.00    +0.000 A 
ATOM     26  F   UNL     1       0.830   8.457  21.409  0.00  0.00    +0.000 F 
BRANCH  23  27
ATOM     27  C   UNL     1       3.505   6.186  18.078  0.00  0.00    +0.000 A 
ATOM     28  C   UNL     1       3.169   4.857  17.721  0.00  0.00    +0.000 A 
ATOM     29  N   UNL     1       4.228   4.138  17.339  0.00  0.00    +0.000 NA
ATOM     30  N   UNL     1       5.248   5.007  17.434  0.00  0.00    +0.000 N 
ATOM     31  C   UNL     1       6.578   4.612  17.038  0.00  0.00    +0.000 C 
ATOM     32  C   UNL     1       4.870   6.241  17.886  0.00  0.00    +0.000 A 
ENDBRANCH  23  27
ENDBRANCH  18  20
ENDBRANCH  12  18
TORSDOF 4
ENDMDL
