MODEL 1
REMARK VINA RESULT:      -7.3      0.000      0.000
REMARK  Name = 
REMARK  10 active torsions:
REMARK  status: ('A' for Active; 'I' for Inactive)
REMARK    1  A    between atoms: O_1  and  C_2
REMARK    2  A    between atoms: C_6  and  C_7
REMARK    3  A    between atoms: C_7  and  O_8
REMARK    4  A    between atoms: C_7  and  C_9
REMARK    5  A    between atoms: C_9  and  N_10
REMARK    6  A    between atoms: N_10  and  C_11
REMARK    7  A    between atoms: C_11  and  C_12
REMARK    8  A    between atoms: C_15  and  O_16
REMARK    9  A    between atoms: O_16  and  C_17
REMARK   10  A    between atoms: C_17  and  C_18
REMARK                            x       y       z     vdW  Elec       q    Type
REMARK                         _______ _______ _______ _____ _____    ______ ____
ROOT
ATOM      1  C   UNL     1       3.631   6.250  19.104  0.00  0.00    +0.000 A 
ATOM      2  C   UNL     1       3.776   6.787  17.823  0.00  0.00    +0.000 A 
ATOM      3  C   UNL     1       4.842   6.416  17.031  0.00  0.00    +0.000 A 
ATOM      4  C   UNL     1       5.800   5.489  17.498  0.00  0.00    +0.000 A 
ATOM      5  C   UNL     1       5.643   4.927  18.775  0.00  0.00    +0.000 A 
ATOM      6  C   UNL     1       4.565   5.312  19.579  0.00  0.00    +0.000 A 
ENDROOT
BRANCH   1   7
ATOM      7  C   UNL     1       2.450   6.644  19.940  0.00  0.00    +0.000 C 
BRANCH   7   8
ATOM      8  N   UNL     1       2.051   5.535  20.817  0.00  0.00    +0.000 NA
ATOM      9  H   UNL     1       2.775   4.784  20.729  0.00  0.00    +0.000 HD
BRANCH   8  10
ATOM     10  C   UNL     1       0.752   4.997  20.400  0.00  0.00    +0.000 C 
BRANCH  10  11
ATOM     11  C   UNL     1       0.797   3.457  20.308  0.00  0.00    +0.000 C 
BRANCH  11  16
ATOM     12  C   UNL     1       3.572   1.598  18.430  0.00  0.00    +0.000 A 
ATOM     13  C   UNL     1       3.542   2.248  17.188  0.00  0.00    +0.000 A 
ATOM     14  C   UNL     1       2.627   3.281  16.962  0.00  0.00    +0.000 A 
ATOM     15  C   UNL     1       1.744   3.672  17.972  0.00  0.00    +0.000 A 
ATOM     16  C   UNL     1       1.768   3.027  19.219  0.00  0.00    +0.000 A 
ATOM     17  C   UNL     1       2.682   1.979  19.434  0.00  0.00    +0.000 A 
BRANCH  12  18
ATOM     18  O   UNL     1       4.451   0.607  18.681  0.00  0.00    +0.000 OA
ATOM     19  H   UNL     1       4.317  -0.042  19.384  0.00  0.00    +0.000 HD
ENDBRANCH  12  18
ENDBRANCH  11  16
BRANCH  11  20
ATOM     20  O   UNL     1       1.129   2.871  21.536  0.00  0.00    +0.000 OA
ATOM     21  H   UNL     1       1.075   3.572  22.234  0.00  0.00    +0.000 HD
ENDBRANCH  11  20
ENDBRANCH  10  11
ENDBRANCH   8  10
ENDBRANCH   7   8
ENDBRANCH   1   7
BRANCH   4  22
ATOM     22  O   UNL     1       6.867   5.148  16.741  0.00  0.00    +0.000 OA
BRANCH  22  23
ATOM     23  C   UNL     1       7.115   5.748  15.520  0.00  0.00    +0.000 C 
BRANCH  23  24
ATOM     24  C   UNL     1       6.667   4.879  14.396  0.00  0.00    +0.000 A 
ATOM     25  C   UNL     1       5.507   4.090  14.533  0.00  0.00    +0.000 A 
ATOM     26  C   UNL     1       5.086   3.287  13.476  0.00  0.00    +0.000 A 
ATOM     27  C   UNL     1       5.818   3.258  12.286  0.00  0.00    +0.000 A 
ATOM     28 CL   UNL     1       5.300   2.233  10.962  0.00  0.00    +0.000 Cl
ATOM     29  C   UNL     1       6.965   4.046  12.144  0.00  0.00    +0.000 A 
ATOM     30  C   UNL     1       7.396   4.858  13.189  0.00  0.00    +0.000 A 
ATOM     31 CL   UNL     1       8.839   5.842  12.962  0.00  0.00    +0.000 Cl
ENDBRANCH  23  24
ENDBRANCH  22  23
ENDBRANCH   4  22
TORSDOF 10
ENDMDL
MODEL 2
REMARK VINA RESULT:      -7.3      4.770      7.754
REMARK  Name = 
REMARK  10 active torsions:
REMARK  status: ('A' for Active; 'I' for Inactive)
REMARK    1  A    between atoms: O_1  and  C_2
REMARK    2  A    between atoms: C_6  and  C_7
REMARK    3  A    between atoms: C_7  and  O_8
REMARK    4  A    between atoms: C_7  and  C_9
REMARK    5  A    between atoms: C_9  and  N_10
REMARK    6  A    between atoms: N_10  and  C_11
REMARK    7  A    between atoms: C_11  and  C_12
REMARK    8  A    between atoms: C_15  and  O_16
REMARK    9  A    between atoms: O_16  and  C_17
REMARK   10  A    between atoms: C_17  and  C_18
REMARK                            x       y       z     vdW  Elec       q    Type
REMARK                         _______ _______ _______ _____ _____    ______ ____
ROOT
ATOM      1  C   UNL     1       1.352   3.797  18.913  0.00  0.00    +0.000 A 
ATOM      2  C   UNL     1       1.629   4.760  17.940  0.00  0.00    +0.000 A 
ATOM      3  C   UNL     1       1.915   6.058  18.309  0.00  0.00    +0.000 A 
ATOM      4  C   UNL     1       1.934   6.434  19.670  0.00  0.00    +0.000 A 
ATOM      5  C   UNL     1       1.682   5.463  20.652  0.00  0.00    +0.000 A 
ATOM      6  C   UNL     1       1.385   4.150  20.274  0.00  0.00    +0.000 A 
ENDROOT
BRANCH   1   7
ATOM      7  C   UNL     1       1.073   2.385  18.495  0.00  0.00    +0.000 C 
BRANCH   7   8
ATOM      8  N   UNL     1       2.137   1.490  18.970  0.00  0.00    +0.000 NA
ATOM      9  H   UNL     1       2.371   1.768  19.951  0.00  0.00    +0.000 HD
BRANCH   8  10
ATOM     10  C   UNL     1       3.334   1.634  18.135  0.00  0.00    +0.000 C 
BRANCH  10  11
ATOM     11  C   UNL     1       4.510   2.208  18.953  0.00  0.00    +0.000 C 
BRANCH  11  16
ATOM     12  C   UNL     1       5.278   5.102  16.562  0.00  0.00    +0.000 A 
ATOM     13  C   UNL     1       5.610   6.121  17.466  0.00  0.00    +0.000 A 
ATOM     14  C   UNL     1       5.584   5.870  18.841  0.00  0.00    +0.000 A 
ATOM     15  C   UNL     1       5.232   4.605  19.319  0.00  0.00    +0.000 A 
ATOM     16  C   UNL     1       4.898   3.578  18.420  0.00  0.00    +0.000 A 
ATOM     17  C   UNL     1       4.914   3.843  17.039  0.00  0.00    +0.000 A 
BRANCH  12  18
ATOM     18  O   UNL     1       5.306   5.311  15.230  0.00  0.00    +0.000 OA
ATOM     19  H   UNL     1       5.323   6.196  14.842  0.00  0.00    +0.000 HD
ENDBRANCH  12  18
ENDBRANCH  11  16
BRANCH  11  20
ATOM     20  O   UNL     1       4.214   2.268  20.321  0.00  0.00    +0.000 OA
ATOM     21  H   UNL     1       3.729   1.439  20.565  0.00  0.00    +0.000 HD
ENDBRANCH  11  20
ENDBRANCH  10  11
ENDBRANCH   8  10
ENDBRANCH   7   8
ENDBRANCH   1   7
BRANCH   4  22
ATOM     22  O   UNL     1       2.177   7.712  20.036  0.00  0.00    +0.000 OA
BRANCH  22  23
ATOM     23  C   UNL     1       1.589   8.274  21.154  0.00  0.00    +0.000 C 
BRANCH  23  24
ATOM     24  C   UNL     1       0.705   9.413  20.778  0.00  0.00    +0.000 A 
ATOM     25  C   UNL     1       0.629   9.834  19.435  0.00  0.00    +0.000 A 
ATOM     26  C   UNL     1      -0.207  10.892  19.086  0.00  0.00    +0.000 A 
ATOM     27  C   UNL     1      -0.962  11.539  20.069  0.00  0.00    +0.000 A 
ATOM     28 CL   UNL     1      -1.999  12.883  19.634  0.00  0.00    +0.000 Cl
ATOM     29  C   UNL     1      -0.895  11.119  21.401  0.00  0.00    +0.000 A 
ATOM     30  C   UNL     1      -0.068  10.059  21.765  0.00  0.00    +0.000 A 
ATOM     31 CL   UNL     1      -0.025   9.556  23.452  0.00  0.00    +0.000 Cl
ENDBRANCH  23  24
ENDBRANCH  22  23
ENDBRANCH   4  22
TORSDOF 10
ENDMDL
MODEL 3
REMARK VINA RESULT:      -7.2      4.597      7.772
REMARK  Name = 
REMARK  10 active torsions:
REMARK  status: ('A' for Active; 'I' for Inactive)
REMARK    1  A    between atoms: O_1  and  C_2
REMARK    2  A    between atoms: C_6  and  C_7
REMARK    3  A    between atoms: C_7  and  O_8
REMARK    4  A    between atoms: C_7  and  C_9
REMARK    5  A    between atoms: C_9  and  N_10
REMARK    6  A    between atoms: N_10  and  C_11
REMARK    7  A    between atoms: C_11  and  C_12
REMARK    8  A    between atoms: C_15  and  O_16
REMARK    9  A    between atoms: O_16  and  C_17
REMARK   10  A    between atoms: C_17  and  C_18
REMARK                            x       y       z     vdW  Elec       q    Type
REMARK                         _______ _______ _______ _____ _____    ______ ____
ROOT
ATOM      1  C   UNL     1       1.254   3.753  19.011  0.00  0.00    +0.000 A 
ATOM      2  C   UNL     1       1.396   4.206  20.325  0.00  0.00    +0.000 A 
ATOM      3  C   UNL     1       1.781   5.507  20.573  0.00  0.00    +0.000 A 
ATOM      4  C   UNL     1       2.035   6.399  19.509  0.00  0.00    +0.000 A 
ATOM      5  C   UNL     1       1.868   5.955  18.187  0.00  0.00    +0.000 A 
ATOM      6  C   UNL     1       1.486   4.634  17.940  0.00  0.00    +0.000 A 
ENDROOT
BRANCH   1   7
ATOM      7  C   UNL     1       0.808   2.344  18.761  0.00  0.00    +0.000 C 
BRANCH   7   8
ATOM      8  N   UNL     1       1.969   1.461  18.591  0.00  0.00    +0.000 NA
ATOM      9  H   UNL     1       2.509   1.469  19.487  0.00  0.00    +0.000 HD
BRANCH   8  10
ATOM     10  C   UNL     1       2.831   1.954  17.511  0.00  0.00    +0.000 C 
BRANCH  10  11
ATOM     11  C   UNL     1       4.293   2.083  17.988  0.00  0.00    +0.000 C 
BRANCH  11  16
ATOM     12  C   UNL     1       5.274   5.487  16.530  0.00  0.00    +0.000 A 
ATOM     13  C   UNL     1       5.605   6.196  17.694  0.00  0.00    +0.000 A 
ATOM     14  C   UNL     1       5.509   5.573  18.942  0.00  0.00    +0.000 A 
ATOM     15  C   UNL     1       5.089   4.244  19.035  0.00  0.00    +0.000 A 
ATOM     16  C   UNL     1       4.756   3.526  17.874  0.00  0.00    +0.000 A 
ATOM     17  C   UNL     1       4.841   4.164  16.623  0.00  0.00    +0.000 A 
BRANCH  12  18
ATOM     18  O   UNL     1       5.367   6.058  15.312  0.00  0.00    +0.000 OA
ATOM     19  H   UNL     1       4.636   6.543  14.907  0.00  0.00    +0.000 HD
ENDBRANCH  12  18
ENDBRANCH  11  16
BRANCH  11  20
ATOM     20  O   UNL     1       4.458   1.605  19.295  0.00  0.00    +0.000 OA
ATOM     21  H   UNL     1       4.387   0.617  19.272  0.00  0.00    +0.000 HD
ENDBRANCH  11  20
ENDBRANCH  10  11
ENDBRANCH   8  10
ENDBRANCH   7   8
ENDBRANCH   1   7
BRANCH   4  22
ATOM     22  O   UNL     1       2.448   7.666  19.745  0.00  0.00    +0.000 OA
BRANCH  22  23
ATOM     23  C   UNL     1       1.783   8.758  19.219  0.00  0.00    +0.000 C 
BRANCH  23  24
ATOM     24  C   UNL     1       0.901   9.390  20.241  0.00  0.00    +0.000 A 
ATOM     25  C   UNL     1       1.101   9.120  21.609  0.00  0.00    +0.000 A 
ATOM     26  C   UNL     1       0.282   9.721  22.562  0.00  0.00    +0.000 A 
ATOM     27  C   UNL     1      -0.742  10.583  22.158  0.00  0.00    +0.000 A 
ATOM     28 CL   UNL     1      -1.786  11.325  23.355  0.00  0.00    +0.000 Cl
ATOM     29  C   UNL     1      -0.938  10.859  20.802  0.00  0.00    +0.000 A 
ATOM     30  C   UNL     1      -0.124  10.271  19.837  0.00  0.00    +0.000 A 
ATOM     31 CL   UNL     1      -0.400  10.656  18.142  0.00  0.00    +0.000 Cl
ENDBRANCH  23  24
ENDBRANCH  22  23
ENDBRANCH   4  22
TORSDOF 10
ENDMDL
MODEL 4
REMARK VINA RESULT:      -7.1      5.386      8.389
REMARK  Name = 
REMARK  10 active torsions:
REMARK  status: ('A' for Active; 'I' for Inactive)
REMARK    1  A    between atoms: O_1  and  C_2
REMARK    2  A    between atoms: C_6  and  C_7
REMARK    3  A    between atoms: C_7  and  O_8
REMARK    4  A    between atoms: C_7  and  C_9
REMARK    5  A    between atoms: C_9  and  N_10
REMARK    6  A    between atoms: N_10  and  C_11
REMARK    7  A    between atoms: C_11  and  C_12
REMARK    8  A    between atoms: C_15  and  O_16
REMARK    9  A    between atoms: O_16  and  C_17
REMARK   10  A    between atoms: C_17  and  C_18
REMARK                            x       y       z     vdW  Elec       q    Type
REMARK                         _______ _______ _______ _____ _____    ______ ____
ROOT
ATOM      1  C   UNL     1       2.361   5.415  19.261  0.00  0.00    +0.000 A 
ATOM      2  C   UNL     1       2.571   6.250  18.161  0.00  0.00    +0.000 A 
ATOM      3  C   UNL     1       2.289   7.596  18.247  0.00  0.00    +0.000 A 
ATOM      4  C   UNL     1       1.787   8.154  19.444  0.00  0.00    +0.000 A 
ATOM      5  C   UNL     1       1.600   7.323  20.560  0.00  0.00    +0.000 A 
ATOM      6  C   UNL     1       1.880   5.957  20.467  0.00  0.00    +0.000 A 
ENDROOT
BRANCH   1   7
ATOM      7  C   UNL     1       2.700   3.959  19.159  0.00  0.00    +0.000 C 
BRANCH   7   8
ATOM      8  N   UNL     1       3.097   3.621  17.785  0.00  0.00    +0.000 NA
ATOM      9  H   UNL     1       2.539   2.787  17.489  0.00  0.00    +0.000 HD
BRANCH   8  10
ATOM     10  C   UNL     1       4.523   3.282  17.735  0.00  0.00    +0.000 C 
BRANCH  10  11
ATOM     11  C   UNL     1       5.258   4.144  16.687  0.00  0.00    +0.000 C 
BRANCH  11  16
ATOM     12  C   UNL     1       7.577   5.735  19.289  0.00  0.00    +0.000 A 
ATOM     13  C   UNL     1       7.974   6.902  18.622  0.00  0.00    +0.000 A 
ATOM     14  C   UNL     1       7.492   7.170  17.337  0.00  0.00    +0.000 A 
ATOM     15  C   UNL     1       6.614   6.279  16.715  0.00  0.00    +0.000 A 
ATOM     16  C   UNL     1       6.210   5.108  17.377  0.00  0.00    +0.000 A 
ATOM     17  C   UNL     1       6.710   4.839  18.664  0.00  0.00    +0.000 A 
BRANCH  12  18
ATOM     18  O   UNL     1       8.014   5.456  20.534  0.00  0.00    +0.000 OA
ATOM     19  H   UNL     1       8.689   5.987  20.979  0.00  0.00    +0.000 HD
ENDBRANCH  12  18
ENDBRANCH  11  16
BRANCH  11  20
ATOM     20  O   UNL     1       5.936   3.355  15.748  0.00  0.00    +0.000 OA
ATOM     21  H   UNL     1       6.692   3.886  15.391  0.00  0.00    +0.000 HD
ENDBRANCH  11  20
ENDBRANCH  10  11
ENDBRANCH   8  10
ENDBRANCH   7   8
ENDBRANCH   1   7
BRANCH   4  22
ATOM     22  O   UNL     1       1.475   9.467  19.523  0.00  0.00    +0.000 OA
BRANCH  22  23
ATOM     23  C   UNL     1       0.823  10.124  18.496  0.00  0.00    +0.000 C 
BRANCH  23  24
ATOM     24  C   UNL     1      -0.339  10.902  19.012  0.00  0.00    +0.000 A 
ATOM     25  C   UNL     1      -0.195  11.707  20.160  0.00  0.00    +0.000 A 
ATOM     26  C   UNL     1      -1.280  12.441  20.632  0.00  0.00    +0.000 A 
ATOM     27  C   UNL     1      -2.511  12.371  19.973  0.00  0.00    +0.000 A 
ATOM     28 CL   UNL     1      -3.882  13.279  20.578  0.00  0.00    +0.000 Cl
ATOM     29  C   UNL     1      -2.654  11.580  18.829  0.00  0.00    +0.000 A 
ATOM     30  C   UNL     1      -1.577  10.844  18.341  0.00  0.00    +0.000 A 
ATOM     31 CL   UNL     1      -1.801   9.871  16.891  0.00  0.00    +0.000 Cl
ENDBRANCH  23  24
ENDBRANCH  22  23
ENDBRANCH   4  22
TORSDOF 10
ENDMDL
MODEL 5
REMARK VINA RESULT:      -6.8      5.825      9.171
REMARK  Name = 
REMARK  10 active torsions:
REMARK  status: ('A' for Active; 'I' for Inactive)
REMARK    1  A    between atoms: O_1  and  C_2
REMARK    2  A    between atoms: C_6  and  C_7
REMARK    3  A    between atoms: C_7  and  O_8
REMARK    4  A    between atoms: C_7  and  C_9
REMARK    5  A    between atoms: C_9  and  N_10
REMARK    6  A    between atoms: N_10  and  C_11
REMARK    7  A    between atoms: C_11  and  C_12
REMARK    8  A    between atoms: C_15  and  O_16
REMARK    9  A    between atoms: O_16  and  C_17
REMARK   10  A    between atoms: C_17  and  C_18
REMARK                            x       y       z     vdW  Elec       q    Type
REMARK                         _______ _______ _______ _____ _____    ______ ____
ROOT
ATOM      1  C   UNL     1       2.422   6.482  18.630  0.00  0.00    +0.000 A 
ATOM      2  C   UNL     1       2.105   6.288  19.977  0.00  0.00    +0.000 A 
ATOM      3  C   UNL     1       1.639   7.337  20.739  0.00  0.00    +0.000 A 
ATOM      4  C   UNL     1       1.474   8.622  20.175  0.00  0.00    +0.000 A 
ATOM      5  C   UNL     1       1.766   8.815  18.815  0.00  0.00    +0.000 A 
ATOM      6  C   UNL     1       2.246   7.750  18.047  0.00  0.00    +0.000 A 
ENDROOT
BRANCH   1   7
ATOM      7  C   UNL     1       2.900   5.323  17.810  0.00  0.00    +0.000 C 
BRANCH   7   8
ATOM      8  N   UNL     1       3.218   4.179  18.675  0.00  0.00    +0.000 NA
ATOM      9  H   UNL     1       3.454   4.554  19.623  0.00  0.00    +0.000 HD
BRANCH   8  10
ATOM     10  C   UNL     1       4.376   3.448  18.150  0.00  0.00    +0.000 C 
BRANCH  10  11
ATOM     11  C   UNL     1       5.071   4.249  17.029  0.00  0.00    +0.000 C 
BRANCH  11  16
ATOM     12  C   UNL     1       7.668   5.759  19.407  0.00  0.00    +0.000 A 
ATOM     13  C   UNL     1       8.071   6.891  18.685  0.00  0.00    +0.000 A 
ATOM     14  C   UNL     1       7.505   7.162  17.436  0.00  0.00    +0.000 A 
ATOM     15  C   UNL     1       6.535   6.309  16.904  0.00  0.00    +0.000 A 
ATOM     16  C   UNL     1       6.124   5.173  17.621  0.00  0.00    +0.000 A 
ATOM     17  C   UNL     1       6.708   4.901  18.871  0.00  0.00    +0.000 A 
BRANCH  12  18
ATOM     18  O   UNL     1       8.187   5.480  20.620  0.00  0.00    +0.000 OA
ATOM     19  H   UNL     1       8.393   6.166  21.268  0.00  0.00    +0.000 HD
ENDBRANCH  12  18
ENDBRANCH  11  16
BRANCH  11  20
ATOM     20  O   UNL     1       5.631   3.408  16.058  0.00  0.00    +0.000 OA
ATOM     21  H   UNL     1       5.726   3.928  15.220  0.00  0.00    +0.000 HD
ENDBRANCH  11  20
ENDBRANCH  10  11
ENDBRANCH   8  10
ENDBRANCH   7   8
ENDBRANCH   1   7
BRANCH   4  22
ATOM     22  O   UNL     1       1.052   9.664  20.926  0.00  0.00    +0.000 OA
BRANCH  22  23
ATOM     23  C   UNL     1       0.650  10.857  20.356  0.00  0.00    +0.000 C 
BRANCH  23  24
ATOM     24  C   UNL     1      -0.561  11.395  21.039  0.00  0.00    +0.000 A 
ATOM     25  C   UNL     1      -0.735  11.200  22.424  0.00  0.00    +0.000 A 
ATOM     26  C   UNL     1      -1.862  11.714  23.060  0.00  0.00    +0.000 A 
ATOM     27  C   UNL     1      -2.824  12.411  22.323  0.00  0.00    +0.000 A 
ATOM     28 CL   UNL     1      -4.252  13.041  23.118  0.00  0.00    +0.000 Cl
ATOM     29  C   UNL     1      -2.650  12.612  20.950  0.00  0.00    +0.000 A 
ATOM     30  C   UNL     1      -1.525  12.111  20.300  0.00  0.00    +0.000 A 
ATOM     31 CL   UNL     1      -1.343  12.398  18.572  0.00  0.00    +0.000 Cl
ENDBRANCH  23  24
ENDBRANCH  22  23
ENDBRANCH   4  22
TORSDOF 10
ENDMDL
MODEL 6
REMARK VINA RESULT:      -6.8      6.195      9.052
REMARK  Name = 
REMARK  10 active torsions:
REMARK  status: ('A' for Active; 'I' for Inactive)
REMARK    1  A    between atoms: O_1  and  C_2
REMARK    2  A    between atoms: C_6  and  C_7
REMARK    3  A    between atoms: C_7  and  O_8
REMARK    4  A    between atoms: C_7  and  C_9
REMARK    5  A    between atoms: C_9  and  N_10
REMARK    6  A    between atoms: N_10  and  C_11
REMARK    7  A    between atoms: C_11  and  C_12
REMARK    8  A    between atoms: C_15  and  O_16
REMARK    9  A    between atoms: O_16  and  C_17
REMARK   10  A    between atoms: C_17  and  C_18
REMARK                            x       y       z     vdW  Elec       q    Type
REMARK                         _______ _______ _______ _____ _____    ______ ____
ROOT
ATOM      1  C   UNL     1       1.970   7.581  19.759  0.00  0.00    +0.000 A 
ATOM      2  C   UNL     1       1.253   8.036  20.868  0.00  0.00    +0.000 A 
ATOM      3  C   UNL     1       0.614   9.257  20.829  0.00  0.00    +0.000 A 
ATOM      4  C   UNL     1       0.673  10.065  19.672  0.00  0.00    +0.000 A 
ATOM      5  C   UNL     1       1.371   9.600  18.546  0.00  0.00    +0.000 A 
ATOM      6  C   UNL     1       2.024   8.365  18.592  0.00  0.00    +0.000 A 
ENDROOT
BRANCH   1   7
ATOM      7  C   UNL     1       2.634   6.238  19.810  0.00  0.00    +0.000 C 
BRANCH   7   8
ATOM      8  N   UNL     1       2.693   5.645  18.467  0.00  0.00    +0.000 NA
ATOM      9  H   UNL     1       1.727   5.333  18.215  0.00  0.00    +0.000 HD
BRANCH   8  10
ATOM     10  C   UNL     1       3.588   4.483  18.461  0.00  0.00    +0.000 C 
BRANCH  10  11
ATOM     11  C   UNL     1       4.604   4.575  17.303  0.00  0.00    +0.000 C 
BRANCH  11  16
ATOM     12  C   UNL     1       7.703   5.801  19.193  0.00  0.00    +0.000 A 
ATOM     13  C   UNL     1       8.017   6.964  18.474  0.00  0.00    +0.000 A 
ATOM     14  C   UNL     1       7.229   7.345  17.384  0.00  0.00    +0.000 A 
ATOM     15  C   UNL     1       6.125   6.574  17.009  0.00  0.00    +0.000 A 
ATOM     16  C   UNL     1       5.803   5.408  17.724  0.00  0.00    +0.000 A 
ATOM     17  C   UNL     1       6.609   5.024  18.811  0.00  0.00    +0.000 A 
BRANCH  12  18
ATOM     18  O   UNL     1       8.437   5.415  20.255  0.00  0.00    +0.000 OA
ATOM     19  H   UNL     1       8.581   5.985  21.023  0.00  0.00    +0.000 HD
ENDBRANCH  12  18
ENDBRANCH  11  16
BRANCH  11  20
ATOM     20  O   UNL     1       5.004   3.307  16.861  0.00  0.00    +0.000 OA
ATOM     21  H   UNL     1       5.699   3.431  16.165  0.00  0.00    +0.000 HD
ENDBRANCH  11  20
ENDBRANCH  10  11
ENDBRANCH   8  10
ENDBRANCH   7   8
ENDBRANCH   1   7
BRANCH   4  22
ATOM     22  O   UNL     1       0.079  11.280  19.640  0.00  0.00    +0.000 OA
BRANCH  22  23
ATOM     23  C   UNL     1      -0.570  11.744  18.510  0.00  0.00    +0.000 C 
BRANCH  23  24
ATOM     24  C   UNL     1      -2.038  11.846  18.742  0.00  0.00    +0.000 A 
ATOM     25  C   UNL     1      -2.528  12.486  19.898  0.00  0.00    +0.000 A 
ATOM     26  C   UNL     1      -3.901  12.589  20.105  0.00  0.00    +0.000 A 
ATOM     27  C   UNL     1      -4.791  12.049  19.172  0.00  0.00    +0.000 A 
ATOM     28 CL   UNL     1      -6.518  12.161  19.441  0.00  0.00    +0.000 Cl
ATOM     29  C   UNL     1      -4.308  11.420  18.020  0.00  0.00    +0.000 A 
ATOM     30  C   UNL     1      -2.938  11.314  17.795  0.00  0.00    +0.000 A 
ATOM     31 CL   UNL     1      -2.376  10.524  16.325  0.00  0.00    +0.000 Cl
ENDBRANCH  23  24
ENDBRANCH  22  23
ENDBRANCH   4  22
TORSDOF 10
ENDMDL
MODEL 7
REMARK VINA RESULT:      -6.8      4.827      7.828
REMARK  Name = 
REMARK  10 active torsions:
REMARK  status: ('A' for Active; 'I' for Inactive)
REMARK    1  A    between atoms: O_1  and  C_2
REMARK    2  A    between atoms: C_6  and  C_7
REMARK    3  A    between atoms: C_7  and  O_8
REMARK    4  A    between atoms: C_7  and  C_9
REMARK    5  A    between atoms: C_9  and  N_10
REMARK    6  A    between atoms: N_10  and  C_11
REMARK    7  A    between atoms: C_11  and  C_12
REMARK    8  A    between atoms: C_15  and  O_16
REMARK    9  A    between atoms: O_16  and  C_17
REMARK   10  A    between atoms: C_17  and  C_18
REMARK                            x       y       z     vdW  Elec       q    Type
REMARK                         _______ _______ _______ _____ _____    ______ ____
ROOT
ATOM      1  C   UNL     1       1.365   3.876  18.961  0.00  0.00    +0.000 A 
ATOM      2  C   UNL     1       1.735   4.818  17.999  0.00  0.00    +0.000 A 
ATOM      3  C   UNL     1       2.005   6.118  18.368  0.00  0.00    +0.000 A 
ATOM      4  C   UNL     1       1.914   6.519  19.719  0.00  0.00    +0.000 A 
ATOM      5  C   UNL     1       1.568   5.569  20.693  0.00  0.00    +0.000 A 
ATOM      6  C   UNL     1       1.287   4.253  20.314  0.00  0.00    +0.000 A 
ENDROOT
BRANCH   1   7
ATOM      7  C   UNL     1       1.103   2.460  18.546  0.00  0.00    +0.000 C 
BRANCH   7   8
ATOM      8  N   UNL     1       2.230   1.597  18.928  0.00  0.00    +0.000 NA
ATOM      9  H   UNL     1       2.535   1.881  19.888  0.00  0.00    +0.000 HD
BRANCH   8  10
ATOM     10  C   UNL     1       3.349   1.778  17.999  0.00  0.00    +0.000 C 
BRANCH  10  11
ATOM     11  C   UNL     1       4.573   2.380  18.721  0.00  0.00    +0.000 C 
BRANCH  11  16
ATOM     12  C   UNL     1       6.394   5.646  17.883  0.00  0.00    +0.000 A 
ATOM     13  C   UNL     1       5.990   5.848  16.556  0.00  0.00    +0.000 A 
ATOM     14  C   UNL     1       5.135   4.932  15.937  0.00  0.00    +0.000 A 
ATOM     15  C   UNL     1       4.676   3.814  16.639  0.00  0.00    +0.000 A 
ATOM     16  C   UNL     1       5.074   3.603  17.970  0.00  0.00    +0.000 A 
ATOM     17  C   UNL     1       5.946   4.523  18.580  0.00  0.00    +0.000 A 
BRANCH  12  18
ATOM     18  O   UNL     1       7.208   6.519  18.509  0.00  0.00    +0.000 OA
ATOM     19  H   UNL     1       7.426   6.446  19.448  0.00  0.00    +0.000 HD
ENDBRANCH  12  18
ENDBRANCH  11  16
BRANCH  11  20
ATOM     20  O   UNL     1       4.288   2.693  20.056  0.00  0.00    +0.000 OA
ATOM     21  H   UNL     1       4.442   1.880  20.601  0.00  0.00    +0.000 HD
ENDBRANCH  11  20
ENDBRANCH  10  11
ENDBRANCH   8  10
ENDBRANCH   7   8
ENDBRANCH   1   7
BRANCH   4  22
ATOM     22  O   UNL     1       2.142   7.801  20.082  0.00  0.00    +0.000 OA
BRANCH  22  23
ATOM     23  C   UNL     1       1.561   8.354  21.208  0.00  0.00    +0.000 C 
BRANCH  23  24
ATOM     24  C   UNL     1       0.666   9.489  20.846  0.00  0.00    +0.000 A 
ATOM     25  C   UNL     1       0.590   9.929  19.508  0.00  0.00    +0.000 A 
ATOM     26  C   UNL     1      -0.255  10.982  19.172  0.00  0.00    +0.000 A 
ATOM     27  C   UNL     1      -1.019  11.609  20.161  0.00  0.00    +0.000 A 
ATOM     28 CL   UNL     1      -2.069  12.948  19.742  0.00  0.00    +0.000 Cl
ATOM     29  C   UNL     1      -0.952  11.170  21.487  0.00  0.00    +0.000 A 
ATOM     30  C   UNL     1      -0.116  10.113  21.839  0.00  0.00    +0.000 A 
ATOM     31 CL   UNL     1      -0.073   9.587  23.519  0.00  0.00    +0.000 Cl
ENDBRANCH  23  24
ENDBRANCH  22  23
ENDBRANCH   4  22
TORSDOF 10
ENDMDL
MODEL 8
REMARK VINA RESULT:      -6.8      5.142      7.413
REMARK  Name = 
REMARK  10 active torsions:
REMARK  status: ('A' for Active; 'I' for Inactive)
REMARK    1  A    between atoms: O_1  and  C_2
REMARK    2  A    between atoms: C_6  and  C_7
REMARK    3  A    between atoms: C_7  and  O_8
REMARK    4  A    between atoms: C_7  and  C_9
REMARK    5  A    between atoms: C_9  and  N_10
REMARK    6  A    between atoms: N_10  and  C_11
REMARK    7  A    between atoms: C_11  and  C_12
REMARK    8  A    between atoms: C_15  and  O_16
REMARK    9  A    between atoms: O_16  and  C_17
REMARK   10  A    between atoms: C_17  and  C_18
REMARK                            x       y       z     vdW  Elec       q    Type
REMARK                         _______ _______ _______ _____ _____    ______ ____
ROOT
ATOM      1  C   UNL     1       6.292   5.318  17.584  0.00  0.00    +0.000 A 
ATOM      2  C   UNL     1       7.258   5.239  18.589  0.00  0.00    +0.000 A 
ATOM      3  C   UNL     1       8.023   6.342  18.906  0.00  0.00    +0.000 A 
ATOM      4  C   UNL     1       7.843   7.565  18.223  0.00  0.00    +0.000 A 
ATOM      5  C   UNL     1       6.854   7.656  17.230  0.00  0.00    +0.000 A 
ATOM      6  C   UNL     1       6.087   6.534  16.906  0.00  0.00    +0.000 A 
ENDROOT
BRANCH   1   7
ATOM      7  C   UNL     1       5.450   4.118  17.273  0.00  0.00    +0.000 C 
BRANCH   7   8
ATOM      8  N   UNL     1       4.449   3.908  18.327  0.00  0.00    +0.000 NA
ATOM      9  H   UNL     1       4.038   2.955  18.189  0.00  0.00    +0.000 HD
BRANCH   8  10
ATOM     10  C   UNL     1       3.381   4.907  18.223  0.00  0.00    +0.000 C 
BRANCH  10  11
ATOM     11  C   UNL     1       3.247   5.709  19.535  0.00  0.00    +0.000 C 
BRANCH  11  16
ATOM     12  C   UNL     1       1.189   8.905  20.016  0.00  0.00    +0.000 A 
ATOM     13  C   UNL     1       1.303   9.494  18.749  0.00  0.00    +0.000 A 
ATOM     14  C   UNL     1       2.043   8.859  17.746  0.00  0.00    +0.000 A 
ATOM     15  C   UNL     1       2.667   7.636  18.002  0.00  0.00    +0.000 A 
ATOM     16  C   UNL     1       2.558   7.038  19.268  0.00  0.00    +0.000 A 
ATOM     17  C   UNL     1       1.823   7.690  20.275  0.00  0.00    +0.000 A 
BRANCH  12  18
ATOM     18  O   UNL     1       0.472   9.488  20.998  0.00  0.00    +0.000 OA
ATOM     19  H   UNL     1       0.522  10.434  21.187  0.00  0.00    +0.000 HD
ENDBRANCH  12  18
ENDBRANCH  11  16
BRANCH  11  20
ATOM     20  O   UNL     1       2.570   4.982  20.523  0.00  0.00    +0.000 OA
ATOM     21  H   UNL     1       2.620   4.022  20.285  0.00  0.00    +0.000 HD
ENDBRANCH  11  20
ENDBRANCH  10  11
ENDBRANCH   8  10
ENDBRANCH   7   8
ENDBRANCH   1   7
BRANCH   4  22
ATOM     22  O   UNL     1       8.614   8.640  18.504  0.00  0.00    +0.000 OA
BRANCH  22  23
ATOM     23  C   UNL     1       8.484   9.830  17.813  0.00  0.00    +0.000 C 
BRANCH  23  24
ATOM     24  C   UNL     1       9.109  10.955  18.564  0.00  0.00    +0.000 A 
ATOM     25  C   UNL     1      10.053  10.690  19.577  0.00  0.00    +0.000 A 
ATOM     26  C   UNL     1      10.643  11.745  20.269  0.00  0.00    +0.000 A 
ATOM     27  C   UNL     1      10.291  13.063  19.964  0.00  0.00    +0.000 A 
ATOM     28 CL   UNL     1      11.018  14.391  20.848  0.00  0.00    +0.000 Cl
ATOM     29  C   UNL     1       9.361  13.330  18.954  0.00  0.00    +0.000 A 
ATOM     30  C   UNL     1       8.767  12.287  18.249  0.00  0.00    +0.000 A 
ATOM     31 CL   UNL     1       7.611  12.670  16.978  0.00  0.00    +0.000 Cl
ENDBRANCH  23  24
ENDBRANCH  22  23
ENDBRANCH   4  22
TORSDOF 10
ENDMDL
MODEL 9
REMARK VINA RESULT:      -6.7      4.604      7.362
REMARK  Name = 
REMARK  10 active torsions:
REMARK  status: ('A' for Active; 'I' for Inactive)
REMARK    1  A    between atoms: O_1  and  C_2
REMARK    2  A    between atoms: C_6  and  C_7
REMARK    3  A    between atoms: C_7  and  O_8
REMARK    4  A    between atoms: C_7  and  C_9
REMARK    5  A    between atoms: C_9  and  N_10
REMARK    6  A    between atoms: N_10  and  C_11
REMARK    7  A    between atoms: C_11  and  C_12
REMARK    8  A    between atoms: C_15  and  O_16
REMARK    9  A    between atoms: O_16  and  C_17
REMARK   10  A    between atoms: C_17  and  C_18
REMARK                            x       y       z     vdW  Elec       q    Type
REMARK                         _______ _______ _______ _____ _____    ______ ____
ROOT
ATOM      1  C   UNL     1       1.329   3.794  18.913  0.00  0.00    +0.000 A 
ATOM      2  C   UNL     1       1.323   4.212  20.246  0.00  0.00    +0.000 A 
ATOM      3  C   UNL     1       1.589   5.526  20.563  0.00  0.00    +0.000 A 
ATOM      4  C   UNL     1       1.870   6.471  19.552  0.00  0.00    +0.000 A 
ATOM      5  C   UNL     1       1.852   6.061  18.209  0.00  0.00    +0.000 A 
ATOM      6  C   UNL     1       1.590   4.726  17.891  0.00  0.00    +0.000 A 
ENDROOT
BRANCH   1   7
ATOM      7  C   UNL     1       1.009   2.368  18.584  0.00  0.00    +0.000 C 
BRANCH   7   8
ATOM      8  N   UNL     1       2.063   1.477  19.089  0.00  0.00    +0.000 NA
ATOM      9  H   UNL     1       2.301   1.786  20.060  0.00  0.00    +0.000 HD
BRANCH   8  10
ATOM     10  C   UNL     1       3.261   1.576  18.249  0.00  0.00    +0.000 C 
BRANCH  10  11
ATOM     11  C   UNL     1       4.444   2.166  19.044  0.00  0.00    +0.000 C 
BRANCH  11  16
ATOM     12  C   UNL     1       5.229   4.987  16.573  0.00  0.00    +0.000 A 
ATOM     13  C   UNL     1       5.549   6.034  17.449  0.00  0.00    +0.000 A 
ATOM     14  C   UNL     1       5.510   5.826  18.831  0.00  0.00    +0.000 A 
ATOM     15  C   UNL     1       5.156   4.575  19.344  0.00  0.00    +0.000 A 
ATOM     16  C   UNL     1       4.834   3.520  18.473  0.00  0.00    +0.000 A 
ATOM     17  C   UNL     1       4.863   3.742  17.085  0.00  0.00    +0.000 A 
BRANCH  12  18
ATOM     18  O   UNL     1       5.270   5.155  15.236  0.00  0.00    +0.000 OA
ATOM     19  H   UNL     1       5.830   5.820  14.812  0.00  0.00    +0.000 HD
ENDBRANCH  12  18
ENDBRANCH  11  16
BRANCH  11  20
ATOM     20  O   UNL     1       4.157   2.262  20.411  0.00  0.00    +0.000 OA
ATOM     21  H   UNL     1       4.436   1.415  20.843  0.00  0.00    +0.000 HD
ENDBRANCH  11  20
ENDBRANCH  10  11
ENDBRANCH   8  10
ENDBRANCH   7   8
ENDBRANCH   1   7
BRANCH   4  22
ATOM     22  O   UNL     1       2.168   7.754  19.859  0.00  0.00    +0.000 OA
BRANCH  22  23
ATOM     23  C   UNL     1       2.114   8.760  18.913  0.00  0.00    +0.000 C 
BRANCH  23  24
ATOM     24  C   UNL     1       0.877   9.577  19.070  0.00  0.00    +0.000 A 
ATOM     25  C   UNL     1       0.092   9.892  17.943  0.00  0.00    +0.000 A 
ATOM     26  C   UNL     1      -1.069  10.646  18.096  0.00  0.00    +0.000 A 
ATOM     27  C   UNL     1      -1.448  11.096  19.365  0.00  0.00    +0.000 A 
ATOM     28 CL   UNL     1      -2.898  12.060  19.555  0.00  0.00    +0.000 Cl
ATOM     29  C   UNL     1      -0.675  10.777  20.486  0.00  0.00    +0.000 A 
ATOM     30  C   UNL     1       0.485  10.019  20.351  0.00  0.00    +0.000 A 
ATOM     31 CL   UNL     1       1.421   9.633  21.791  0.00  0.00    +0.000 Cl
ENDBRANCH  23  24
ENDBRANCH  22  23
ENDBRANCH   4  22
TORSDOF 10
ENDMDL
