MODEL 1
REMARK VINA RESULT:      -6.9      0.000      0.000
REMARK  Name = 
REMARK  13 active torsions:
REMARK  status: ('A' for Active; 'I' for Inactive)
REMARK    1  A    between atoms: C_1  and  C_2
REMARK    2  A    between atoms: C_2  and  C_3
REMARK    3  A    between atoms: C_3  and  C_4
REMARK    4  A    between atoms: C_16  and  O_17
REMARK    5  A    between atoms: C_18  and  C_19
REMARK    6  A    between atoms: N_20  and  C_21
REMARK    7  A    between atoms: C_21  and  C_22
REMARK    8  A    between atoms: C_22  and  C_23
REMARK    9  A    between atoms: C_23  and  N_24
REMARK   10  A    between atoms: N_24  and  C_25
REMARK   11  A    between atoms: N_24  and  C_27
REMARK   12  A    between atoms: C_25  and  C_26
REMARK   13  A    between atoms: C_27  and  C_28
REMARK                            x       y       z     vdW  Elec       q    Type
REMARK                         _______ _______ _______ _____ _____    ______ ____
ROOT
ATOM      1  C   UNL     1       2.021   6.592  20.252  0.00  0.00    +0.000 A 
ATOM      2  N   UNL     1       1.366   7.446  21.052  0.00  0.00    +0.000 NA
ATOM      3  N   UNL     1       1.268   8.596  20.337  0.00  0.00    +0.000 N 
ATOM      4  C   UNL     1       0.559   9.696  20.847  0.00  0.00    +0.000 A 
ATOM      5  N   UNL     1       0.394  10.823  20.172  0.00  0.00    +0.000 NA
ATOM      6  C   UNL     1      -0.407  11.682  20.930  0.00  0.00    +0.000 A 
ATOM      7  C   UNL     1      -0.838  12.977  20.562  0.00  0.00    +0.000 A 
ATOM      8  C   UNL     1      -1.655  13.719  21.428  0.00  0.00    +0.000 A 
ATOM      9  C   UNL     1      -2.048  13.193  22.653  0.00  0.00    +0.000 A 
ATOM     10  C   UNL     1      -1.632  11.919  23.046  0.00  0.00    +0.000 A 
ATOM     11  C   UNL     1      -0.814  11.182  22.171  0.00  0.00    +0.000 A 
ATOM     12  S   UNL     1      -0.161   9.603  22.385  0.00  0.00    +0.000 S 
ATOM     13  C   UNL     1       1.897   8.490  19.101  0.00  0.00    +0.000 A 
ATOM     14  C   UNL     1       2.387   7.198  19.018  0.00  0.00    +0.000 A 
ENDROOT
BRANCH  13  15
ATOM     15  O   UNL     1       1.949   9.482  18.204  0.00  0.00    +0.000 OA
ATOM     16  H   UNL     1       2.862   9.528  17.835  0.00  0.00    +0.000 HD
ENDBRANCH  13  15
BRANCH  14  17
ATOM     17  C   UNL     1       3.072   6.661  17.865  0.00  0.00    +0.000 C 
ATOM     18  N   UNL     1       4.106   7.267  17.399  0.00  0.00    +0.000 NA
BRANCH  18  19
ATOM     19  C   UNL     1       4.727   6.594  16.252  0.00  0.00    +0.000 C 
BRANCH  19  20
ATOM     20  C   UNL     1       6.095   6.047  16.655  0.00  0.00    +0.000 C 
BRANCH  20  21
ATOM     21  C   UNL     1       6.082   4.571  17.086  0.00  0.00    +0.000 C 
BRANCH  21  22
ATOM     22  N   UNL     1       6.149   4.302  18.540  0.00  0.00    +0.000 NA
BRANCH  22  23
ATOM     23  C   UNL     1       6.526   5.479  19.339  0.00  0.00    +0.000 C 
ATOM     24  C   UNL     1       8.015   5.669  19.615  0.00  0.00    +0.000 C 
ENDBRANCH  22  23
BRANCH  22  25
ATOM     25  C   UNL     1       4.883   3.675  18.970  0.00  0.00    +0.000 C 
ATOM     26  C   UNL     1       4.011   3.147  17.836  0.00  0.00    +0.000 C 
ENDBRANCH  22  25
ENDBRANCH  21  22
ENDBRANCH  20  21
ENDBRANCH  19  20
ENDBRANCH  18  19
ENDBRANCH  14  17
BRANCH   1  27
ATOM     27  C   UNL     1       2.204   5.170  20.695  0.00  0.00    +0.000 C 
BRANCH  27  29
ATOM     28  C   UNL     1       1.300   2.782  20.754  0.00  0.00    +0.000 C 
ATOM     29  C   UNL     1       1.064   4.221  20.322  0.00  0.00    +0.000 C 
ENDBRANCH  27  29
ENDBRANCH   1  27
TORSDOF 10
ENDMDL
MODEL 2
REMARK VINA RESULT:      -6.6      1.458      2.119
REMARK  Name = 
REMARK  13 active torsions:
REMARK  status: ('A' for Active; 'I' for Inactive)
REMARK    1  A    between atoms: C_1  and  C_2
REMARK    2  A    between atoms: C_2  and  C_3
REMARK    3  A    between atoms: C_3  and  C_4
REMARK    4  A    between atoms: C_16  and  O_17
REMARK    5  A    between atoms: C_18  and  C_19
REMARK    6  A    between atoms: N_20  and  C_21
REMARK    7  A    between atoms: C_21  and  C_22
REMARK    8  A    between atoms: C_22  and  C_23
REMARK    9  A    between atoms: C_23  and  N_24
REMARK   10  A    between atoms: N_24  and  C_25
REMARK   11  A    between atoms: N_24  and  C_27
REMARK   12  A    between atoms: C_25  and  C_26
REMARK   13  A    between atoms: C_27  and  C_28
REMARK                            x       y       z     vdW  Elec       q    Type
REMARK                         _______ _______ _______ _____ _____    ______ ____
ROOT
ATOM      1  C   UNL     1       2.182   5.760  20.344  0.00  0.00    +0.000 A 
ATOM      2  N   UNL     1       1.505   6.832  20.779  0.00  0.00    +0.000 NA
ATOM      3  N   UNL     1       1.744   7.800  19.857  0.00  0.00    +0.000 N 
ATOM      4  C   UNL     1       1.116   9.053  19.957  0.00  0.00    +0.000 A 
ATOM      5  N   UNL     1       1.278  10.014  19.060  0.00  0.00    +0.000 NA
ATOM      6  C   UNL     1       0.471  11.097  19.418  0.00  0.00    +0.000 A 
ATOM      7  C   UNL     1       0.335  12.316  18.715  0.00  0.00    +0.000 A 
ATOM      8  C   UNL     1      -0.530  13.311  19.194  0.00  0.00    +0.000 A 
ATOM      9  C   UNL     1      -1.261  13.112  20.360  0.00  0.00    +0.000 A 
ATOM     10  C   UNL     1      -1.141  11.920  21.079  0.00  0.00    +0.000 A 
ATOM     11  C   UNL     1      -0.272  10.928  20.591  0.00  0.00    +0.000 A 
ATOM     12  S   UNL     1       0.067   9.377  21.256  0.00  0.00    +0.000 S 
ATOM     13  C   UNL     1       2.607   7.359  18.860  0.00  0.00    +0.000 A 
ATOM     14  C   UNL     1       2.900   6.038  19.148  0.00  0.00    +0.000 A 
ENDROOT
BRANCH  13  15
ATOM     15  O   UNL     1       3.008   8.118  17.833  0.00  0.00    +0.000 OA
ATOM     16  H   UNL     1       3.931   7.868  17.594  0.00  0.00    +0.000 HD
ENDBRANCH  13  15
BRANCH  14  17
ATOM     17  C   UNL     1       3.733   5.192  18.325  0.00  0.00    +0.000 C 
ATOM     18  N   UNL     1       3.819   5.418  17.061  0.00  0.00    +0.000 NA
BRANCH  18  19
ATOM     19  C   UNL     1       4.729   4.510  16.353  0.00  0.00    +0.000 C 
BRANCH  19  20
ATOM     20  C   UNL     1       5.927   4.185  17.241  0.00  0.00    +0.000 C 
BRANCH  20  21
ATOM     21  C   UNL     1       7.218   4.927  16.855  0.00  0.00    +0.000 C 
BRANCH  21  22
ATOM     22  N   UNL     1       7.654   6.018  17.756  0.00  0.00    +0.000 NA
BRANCH  22  23
ATOM     23  C   UNL     1       7.250   7.356  17.297  0.00  0.00    +0.000 C 
ATOM     24  C   UNL     1       8.054   8.536  17.837  0.00  0.00    +0.000 C 
ENDBRANCH  22  23
BRANCH  22  25
ATOM     25  C   UNL     1       7.218   5.706  19.131  0.00  0.00    +0.000 C 
ATOM     26  C   UNL     1       8.349   5.491  20.131  0.00  0.00    +0.000 C 
ENDBRANCH  22  25
ENDBRANCH  21  22
ENDBRANCH  20  21
ENDBRANCH  19  20
ENDBRANCH  18  19
ENDBRANCH  14  17
BRANCH   1  27
ATOM     27  C   UNL     1       2.043   4.461  21.080  0.00  0.00    +0.000 C 
BRANCH  27  29
ATOM     28  C   UNL     1       1.563   2.428  19.610  0.00  0.00    +0.000 C 
ATOM     29  C   UNL     1       0.989   3.505  20.518  0.00  0.00    +0.000 C 
ENDBRANCH  27  29
ENDBRANCH   1  27
TORSDOF 10
ENDMDL
MODEL 3
REMARK VINA RESULT:      -6.5      2.644      3.327
REMARK  Name = 
REMARK  13 active torsions:
REMARK  status: ('A' for Active; 'I' for Inactive)
REMARK    1  A    between atoms: C_1  and  C_2
REMARK    2  A    between atoms: C_2  and  C_3
REMARK    3  A    between atoms: C_3  and  C_4
REMARK    4  A    between atoms: C_16  and  O_17
REMARK    5  A    between atoms: C_18  and  C_19
REMARK    6  A    between atoms: N_20  and  C_21
REMARK    7  A    between atoms: C_21  and  C_22
REMARK    8  A    between atoms: C_22  and  C_23
REMARK    9  A    between atoms: C_23  and  N_24
REMARK   10  A    between atoms: N_24  and  C_25
REMARK   11  A    between atoms: N_24  and  C_27
REMARK   12  A    between atoms: C_25  and  C_26
REMARK   13  A    between atoms: C_27  and  C_28
REMARK                            x       y       z     vdW  Elec       q    Type
REMARK                         _______ _______ _______ _____ _____    ______ ____
ROOT
ATOM      1  C   UNL     1       2.390   5.495  20.280  0.00  0.00    +0.000 A 
ATOM      2  N   UNL     1       1.668   6.550  20.682  0.00  0.00    +0.000 NA
ATOM      3  N   UNL     1       1.937   7.529  19.781  0.00  0.00    +0.000 N 
ATOM      4  C   UNL     1       1.278   8.767  19.852  0.00  0.00    +0.000 A 
ATOM      5  N   UNL     1       1.469   9.738  18.971  0.00  0.00    +0.000 NA
ATOM      6  C   UNL     1       0.620  10.801  19.288  0.00  0.00    +0.000 A 
ATOM      7  C   UNL     1       0.498  12.021  18.586  0.00  0.00    +0.000 A 
ATOM      8  C   UNL     1      -0.414  12.995  19.022  0.00  0.00    +0.000 A 
ATOM      9  C   UNL     1      -1.204  12.773  20.144  0.00  0.00    +0.000 A 
ATOM     10  C   UNL     1      -1.099  11.579  20.862  0.00  0.00    +0.000 A 
ATOM     11  C   UNL     1      -0.183  10.608  20.418  0.00  0.00    +0.000 A 
ATOM     12  S   UNL     1       0.152   9.061  21.092  0.00  0.00    +0.000 S 
ATOM     13  C   UNL     1       2.863   7.113  18.830  0.00  0.00    +0.000 A 
ATOM     14  C   UNL     1       3.168   5.795  19.127  0.00  0.00    +0.000 A 
ENDROOT
BRANCH  13  15
ATOM     15  O   UNL     1       3.304   7.886  17.831  0.00  0.00    +0.000 OA
ATOM     16  H   UNL     1       2.691   7.795  17.064  0.00  0.00    +0.000 HD
ENDBRANCH  13  15
BRANCH  14  17
ATOM     17  C   UNL     1       4.063   4.973  18.347  0.00  0.00    +0.000 C 
ATOM     18  N   UNL     1       3.841   4.801  17.092  0.00  0.00    +0.000 NA
BRANCH  18  19
ATOM     19  C   UNL     1       4.848   3.978  16.414  0.00  0.00    +0.000 C 
BRANCH  19  20
ATOM     20  C   UNL     1       5.378   4.719  15.188  0.00  0.00    +0.000 C 
BRANCH  20  21
ATOM     21  C   UNL     1       6.275   3.866  14.275  0.00  0.00    +0.000 C 
BRANCH  21  22
ATOM     22  N   UNL     1       6.189   4.133  12.822  0.00  0.00    +0.000 NA
BRANCH  22  23
ATOM     23  C   UNL     1       7.476   4.510  12.216  0.00  0.00    +0.000 C 
ATOM     24  C   UNL     1       8.228   5.664  12.873  0.00  0.00    +0.000 C 
ENDBRANCH  22  23
BRANCH  22  25
ATOM     25  C   UNL     1       5.538   2.984  12.162  0.00  0.00    +0.000 C 
ATOM     26  C   UNL     1       4.201   3.297  11.499  0.00  0.00    +0.000 C 
ENDBRANCH  22  25
ENDBRANCH  21  22
ENDBRANCH  20  21
ENDBRANCH  19  20
ENDBRANCH  18  19
ENDBRANCH  14  17
BRANCH   1  27
ATOM     27  C   UNL     1       2.239   4.188  21.000  0.00  0.00    +0.000 C 
BRANCH  27  29
ATOM     28  C   UNL     1       1.106   2.637  19.315  0.00  0.00    +0.000 C 
ATOM     29  C   UNL     1       0.988   3.386  20.635  0.00  0.00    +0.000 C 
ENDBRANCH  27  29
ENDBRANCH   1  27
TORSDOF 10
ENDMDL
MODEL 4
REMARK VINA RESULT:      -6.5      2.082      2.657
REMARK  Name = 
REMARK  13 active torsions:
REMARK  status: ('A' for Active; 'I' for Inactive)
REMARK    1  A    between atoms: C_1  and  C_2
REMARK    2  A    between atoms: C_2  and  C_3
REMARK    3  A    between atoms: C_3  and  C_4
REMARK    4  A    between atoms: C_16  and  O_17
REMARK    5  A    between atoms: C_18  and  C_19
REMARK    6  A    between atoms: N_20  and  C_21
REMARK    7  A    between atoms: C_21  and  C_22
REMARK    8  A    between atoms: C_22  and  C_23
REMARK    9  A    between atoms: C_23  and  N_24
REMARK   10  A    between atoms: N_24  and  C_25
REMARK   11  A    between atoms: N_24  and  C_27
REMARK   12  A    between atoms: C_25  and  C_26
REMARK   13  A    between atoms: C_27  and  C_28
REMARK                            x       y       z     vdW  Elec       q    Type
REMARK                         _______ _______ _______ _____ _____    ______ ____
ROOT
ATOM      1  C   UNL     1       2.331   5.842  19.937  0.00  0.00    +0.000 A 
ATOM      2  N   UNL     1       1.674   6.670  20.762  0.00  0.00    +0.000 NA
ATOM      3  N   UNL     1       1.671   7.871  20.128  0.00  0.00    +0.000 N 
ATOM      4  C   UNL     1       0.987   8.967  20.679  0.00  0.00    +0.000 A 
ATOM      5  N   UNL     1       0.913  10.146  20.079  0.00  0.00    +0.000 NA
ATOM      6  C   UNL     1       0.113  10.990  20.854  0.00  0.00    +0.000 A 
ATOM      7  C   UNL     1      -0.235  12.327  20.558  0.00  0.00    +0.000 A 
ATOM      8  C   UNL     1      -1.063  13.048  21.432  0.00  0.00    +0.000 A 
ATOM      9  C   UNL     1      -1.550  12.458  22.593  0.00  0.00    +0.000 A 
ATOM     10  C   UNL     1      -1.216  11.141  22.915  0.00  0.00    +0.000 A 
ATOM     11  C   UNL     1      -0.386  10.425  22.033  0.00  0.00    +0.000 A 
ATOM     12  S   UNL     1       0.178   8.804  22.165  0.00  0.00    +0.000 S 
ATOM     13  C   UNL     1       2.362   7.819  18.922  0.00  0.00    +0.000 A 
ATOM     14  C   UNL     1       2.795   6.512  18.772  0.00  0.00    +0.000 A 
ENDROOT
BRANCH  13  15
ATOM     15  O   UNL     1       2.512   8.867  18.104  0.00  0.00    +0.000 OA
ATOM     16  H   UNL     1       2.913   9.611  18.611  0.00  0.00    +0.000 HD
ENDBRANCH  13  15
BRANCH  14  17
ATOM     17  C   UNL     1       3.517   6.024  17.621  0.00  0.00    +0.000 C 
ATOM     18  N   UNL     1       4.345   6.797  17.011  0.00  0.00    +0.000 NA
BRANCH  18  19
ATOM     19  C   UNL     1       5.038   6.162  15.885  0.00  0.00    +0.000 C 
BRANCH  19  20
ATOM     20  C   UNL     1       5.550   4.786  16.306  0.00  0.00    +0.000 C 
BRANCH  20  21
ATOM     21  C   UNL     1       5.766   3.810  15.137  0.00  0.00    +0.000 C 
BRANCH  21  22
ATOM     22  N   UNL     1       6.246   4.392  13.864  0.00  0.00    +0.000 NA
BRANCH  22  23
ATOM     23  C   UNL     1       7.606   4.949  13.948  0.00  0.00    +0.000 C 
ATOM     24  C   UNL     1       8.138   5.644  12.698  0.00  0.00    +0.000 C 
ENDBRANCH  22  23
BRANCH  22  25
ATOM     25  C   UNL     1       6.080   3.395  12.788  0.00  0.00    +0.000 C 
ATOM     26  C   UNL     1       4.768   3.493  12.018  0.00  0.00    +0.000 C 
ENDBRANCH  22  25
ENDBRANCH  21  22
ENDBRANCH  20  21
ENDBRANCH  19  20
ENDBRANCH  18  19
ENDBRANCH  14  17
BRANCH   1  27
ATOM     27  C   UNL     1       2.423   4.385  20.285  0.00  0.00    +0.000 C 
BRANCH  27  29
ATOM     28  C   UNL     1       0.879   2.670  19.188  0.00  0.00    +0.000 C 
ATOM     29  C   UNL     1       1.085   3.645  20.338  0.00  0.00    +0.000 C 
ENDBRANCH  27  29
ENDBRANCH   1  27
TORSDOF 10
ENDMDL
MODEL 5
REMARK VINA RESULT:      -6.5      3.386      4.436
REMARK  Name = 
REMARK  13 active torsions:
REMARK  status: ('A' for Active; 'I' for Inactive)
REMARK    1  A    between atoms: C_1  and  C_2
REMARK    2  A    between atoms: C_2  and  C_3
REMARK    3  A    between atoms: C_3  and  C_4
REMARK    4  A    between atoms: C_16  and  O_17
REMARK    5  A    between atoms: C_18  and  C_19
REMARK    6  A    between atoms: N_20  and  C_21
REMARK    7  A    between atoms: C_21  and  C_22
REMARK    8  A    between atoms: C_22  and  C_23
REMARK    9  A    between atoms: C_23  and  N_24
REMARK   10  A    between atoms: N_24  and  C_25
REMARK   11  A    between atoms: N_24  and  C_27
REMARK   12  A    between atoms: C_25  and  C_26
REMARK   13  A    between atoms: C_27  and  C_28
REMARK                            x       y       z     vdW  Elec       q    Type
REMARK                         _______ _______ _______ _____ _____    ______ ____
ROOT
ATOM      1  C   UNL     1       3.707   4.556  18.937  0.00  0.00    +0.000 A 
ATOM      2  N   UNL     1       2.980   5.441  19.634  0.00  0.00    +0.000 NA
ATOM      3  N   UNL     1       2.958   6.562  18.868  0.00  0.00    +0.000 N 
ATOM      4  C   UNL     1       2.207   7.682  19.261  0.00  0.00    +0.000 A 
ATOM      5  N   UNL     1       2.114   8.781  18.528  0.00  0.00    +0.000 NA
ATOM      6  C   UNL     1       1.246   9.670  19.168  0.00  0.00    +0.000 A 
ATOM      7  C   UNL     1       0.859  10.949  18.708  0.00  0.00    +0.000 A 
ATOM      8  C   UNL     1      -0.036  11.726  19.459  0.00  0.00    +0.000 A 
ATOM      9  C   UNL     1      -0.552  11.249  20.659  0.00  0.00    +0.000 A 
ATOM     10  C   UNL     1      -0.181   9.992  21.142  0.00  0.00    +0.000 A 
ATOM     11  C   UNL     1       0.716   9.220  20.382  0.00  0.00    +0.000 A 
ATOM     12  S   UNL     1       1.337   7.651  20.722  0.00  0.00    +0.000 S 
ATOM     13  C   UNL     1       3.706   6.406  17.705  0.00  0.00    +0.000 A 
ATOM     14  C   UNL     1       4.196   5.112  17.723  0.00  0.00    +0.000 A 
ENDROOT
BRANCH  13  15
ATOM     15  O   UNL     1       3.851   7.362  16.779  0.00  0.00    +0.000 OA
ATOM     16  H   UNL     1       3.078   7.972  16.829  0.00  0.00    +0.000 HD
ENDBRANCH  13  15
BRANCH  14  17
ATOM     17  C   UNL     1       4.989   4.530  16.665  0.00  0.00    +0.000 C 
ATOM     18  N   UNL     1       5.912   5.227  16.102  0.00  0.00    +0.000 NA
BRANCH  18  19
ATOM     19  C   UNL     1       6.665   4.502  15.073  0.00  0.00    +0.000 C 
BRANCH  19  20
ATOM     20  C   UNL     1       5.723   4.074  13.950  0.00  0.00    +0.000 C 
BRANCH  20  21
ATOM     21  C   UNL     1       6.439   3.571  12.684  0.00  0.00    +0.000 C 
BRANCH  21  22
ATOM     22  N   UNL     1       5.579   3.069  11.589  0.00  0.00    +0.000 NA
BRANCH  22  23
ATOM     23  C   UNL     1       5.680   1.616  11.381  0.00  0.00    +0.000 C 
ATOM     24  C   UNL     1       7.058   1.073  11.011  0.00  0.00    +0.000 C 
ENDBRANCH  22  23
BRANCH  22  25
ATOM     25  C   UNL     1       4.198   3.542  11.810  0.00  0.00    +0.000 C 
ATOM     26  C   UNL     1       3.264   3.379  10.616  0.00  0.00    +0.000 C 
ENDBRANCH  22  25
ENDBRANCH  21  22
ENDBRANCH  20  21
ENDBRANCH  19  20
ENDBRANCH  18  19
ENDBRANCH  14  17
BRANCH   1  27
ATOM     27  C   UNL     1       3.840   3.153  19.452  0.00  0.00    +0.000 C 
BRANCH  27  29
ATOM     28  C   UNL     1       1.513   2.408  18.705  0.00  0.00    +0.000 C 
ATOM     29  C   UNL     1       2.524   2.477  19.841  0.00  0.00    +0.000 C 
ENDBRANCH  27  29
ENDBRANCH   1  27
TORSDOF 10
ENDMDL
MODEL 6
REMARK VINA RESULT:      -6.4      1.557      2.545
REMARK  Name = 
REMARK  13 active torsions:
REMARK  status: ('A' for Active; 'I' for Inactive)
REMARK    1  A    between atoms: C_1  and  C_2
REMARK    2  A    between atoms: C_2  and  C_3
REMARK    3  A    between atoms: C_3  and  C_4
REMARK    4  A    between atoms: C_16  and  O_17
REMARK    5  A    between atoms: C_18  and  C_19
REMARK    6  A    between atoms: N_20  and  C_21
REMARK    7  A    between atoms: C_21  and  C_22
REMARK    8  A    between atoms: C_22  and  C_23
REMARK    9  A    between atoms: C_23  and  N_24
REMARK   10  A    between atoms: N_24  and  C_25
REMARK   11  A    between atoms: N_24  and  C_27
REMARK   12  A    between atoms: C_25  and  C_26
REMARK   13  A    between atoms: C_27  and  C_28
REMARK                            x       y       z     vdW  Elec       q    Type
REMARK                         _______ _______ _______ _____ _____    ______ ____
ROOT
ATOM      1  C   UNL     1       2.055   6.124  20.334  0.00  0.00    +0.000 A 
ATOM      2  N   UNL     1       1.350   7.185  20.751  0.00  0.00    +0.000 NA
ATOM      3  N   UNL     1       1.603   8.159  19.840  0.00  0.00    +0.000 N 
ATOM      4  C   UNL     1       0.956   9.402  19.924  0.00  0.00    +0.000 A 
ATOM      5  N   UNL     1       1.131  10.369  19.035  0.00  0.00    +0.000 NA
ATOM      6  C   UNL     1       0.298  11.439  19.371  0.00  0.00    +0.000 A 
ATOM      7  C   UNL     1       0.167  12.658  18.668  0.00  0.00    +0.000 A 
ATOM      8  C   UNL     1      -0.726  13.640  19.123  0.00  0.00    +0.000 A 
ATOM      9  C   UNL     1      -1.489  13.427  20.266  0.00  0.00    +0.000 A 
ATOM     10  C   UNL     1      -1.374  12.235  20.985  0.00  0.00    +0.000 A 
ATOM     11  C   UNL     1      -0.477  11.256  20.521  0.00  0.00    +0.000 A 
ATOM     12  S   UNL     1      -0.136   9.708  21.191  0.00  0.00    +0.000 S 
ATOM     13  C   UNL     1       2.502   7.733  18.867  0.00  0.00    +0.000 A 
ATOM     14  C   UNL     1       2.805   6.415  19.161  0.00  0.00    +0.000 A 
ENDROOT
BRANCH  13  15
ATOM     15  O   UNL     1       2.923   8.501  17.855  0.00  0.00    +0.000 OA
ATOM     16  H   UNL     1       3.793   8.897  18.097  0.00  0.00    +0.000 HD
ENDBRANCH  13  15
BRANCH  14  17
ATOM     17  C   UNL     1       3.674   5.583  18.361  0.00  0.00    +0.000 C 
ATOM     18  N   UNL     1       3.166   4.716  17.559  0.00  0.00    +0.000 NA
BRANCH  18  19
ATOM     19  C   UNL     1       4.159   3.968  16.780  0.00  0.00    +0.000 C 
BRANCH  19  20
ATOM     20  C   UNL     1       5.541   4.141  17.406  0.00  0.00    +0.000 C 
BRANCH  20  21
ATOM     21  C   UNL     1       6.706   3.980  16.415  0.00  0.00    +0.000 C 
BRANCH  21  22
ATOM     22  N   UNL     1       7.196   5.213  15.758  0.00  0.00    +0.000 NA
BRANCH  22  23
ATOM     23  C   UNL     1       6.992   5.223  14.300  0.00  0.00    +0.000 C 
ATOM     24  C   UNL     1       6.362   3.974  13.690  0.00  0.00    +0.000 C 
ENDBRANCH  22  23
BRANCH  22  25
ATOM     25  C   UNL     1       6.616   6.384  16.445  0.00  0.00    +0.000 C 
ATOM     26  C   UNL     1       7.565   7.105  17.396  0.00  0.00    +0.000 C 
ENDBRANCH  22  25
ENDBRANCH  21  22
ENDBRANCH  20  21
ENDBRANCH  19  20
ENDBRANCH  18  19
ENDBRANCH  14  17
BRANCH   1  27
ATOM     27  C   UNL     1       1.913   4.820  21.063  0.00  0.00    +0.000 C 
BRANCH  27  29
ATOM     28  C   UNL     1       1.667   2.483  20.060  0.00  0.00    +0.000 C 
ATOM     29  C   UNL     1       0.986   3.802  20.396  0.00  0.00    +0.000 C 
ENDBRANCH  27  29
ENDBRANCH   1  27
TORSDOF 10
ENDMDL
MODEL 7
REMARK VINA RESULT:      -6.4      3.054      8.892
REMARK  Name = 
REMARK  13 active torsions:
REMARK  status: ('A' for Active; 'I' for Inactive)
REMARK    1  A    between atoms: C_1  and  C_2
REMARK    2  A    between atoms: C_2  and  C_3
REMARK    3  A    between atoms: C_3  and  C_4
REMARK    4  A    between atoms: C_16  and  O_17
REMARK    5  A    between atoms: C_18  and  C_19
REMARK    6  A    between atoms: N_20  and  C_21
REMARK    7  A    between atoms: C_21  and  C_22
REMARK    8  A    between atoms: C_22  and  C_23
REMARK    9  A    between atoms: C_23  and  N_24
REMARK   10  A    between atoms: N_24  and  C_25
REMARK   11  A    between atoms: N_24  and  C_27
REMARK   12  A    between atoms: C_25  and  C_26
REMARK   13  A    between atoms: C_27  and  C_28
REMARK                            x       y       z     vdW  Elec       q    Type
REMARK                         _______ _______ _______ _____ _____    ______ ____
ROOT
ATOM      1  C   UNL     1       1.144   8.837  20.744  0.00  0.00    +0.000 A 
ATOM      2  N   UNL     1       1.908   7.798  20.379  0.00  0.00    +0.000 NA
ATOM      3  N   UNL     1       2.246   8.044  19.087  0.00  0.00    +0.000 N 
ATOM      4  C   UNL     1       3.121   7.186  18.401  0.00  0.00    +0.000 A 
ATOM      5  N   UNL     1       3.519   7.406  17.157  0.00  0.00    +0.000 NA
ATOM      6  C   UNL     1       4.429   6.409  16.798  0.00  0.00    +0.000 A 
ATOM      7  C   UNL     1       5.105   6.289  15.563  0.00  0.00    +0.000 A 
ATOM      8  C   UNL     1       6.005   5.234  15.353  0.00  0.00    +0.000 A 
ATOM      9  C   UNL     1       6.243   4.297  16.353  0.00  0.00    +0.000 A 
ATOM     10  C   UNL     1       5.584   4.386  17.581  0.00  0.00    +0.000 A 
ATOM     11  C   UNL     1       4.683   5.448  17.783  0.00  0.00    +0.000 A 
ATOM     12  S   UNL     1       3.745   5.809  19.180  0.00  0.00    +0.000 S 
ATOM     13  C   UNL     1       1.662   9.216  18.616  0.00  0.00    +0.000 A 
ATOM     14  C   UNL     1       0.948   9.752  19.674  0.00  0.00    +0.000 A 
ENDROOT
BRANCH  13  15
ATOM     15  O   UNL     1       1.830   9.685  17.375  0.00  0.00    +0.000 OA
ATOM     16  H   UNL     1       2.701   9.373  17.033  0.00  0.00    +0.000 HD
ENDBRANCH  13  15
BRANCH  14  17
ATOM     17  C   UNL     1       0.227  11.002  19.616  0.00  0.00    +0.000 C 
ATOM     18  N   UNL     1      -0.831  11.096  18.890  0.00  0.00    +0.000 NA
BRANCH  18  19
ATOM     19  C   UNL     1      -1.486  12.407  18.953  0.00  0.00    +0.000 C 
BRANCH  19  20
ATOM     20  C   UNL     1      -2.871  12.261  19.579  0.00  0.00    +0.000 C 
BRANCH  20  21
ATOM     21  C   UNL     1      -3.808  11.306  18.820  0.00  0.00    +0.000 C 
BRANCH  21  22
ATOM     22  N   UNL     1      -3.959  11.539  17.366  0.00  0.00    +0.000 NA
BRANCH  22  23
ATOM     23  C   UNL     1      -3.585  10.378  16.543  0.00  0.00    +0.000 C 
ATOM     24  C   UNL     1      -2.828  10.672  15.251  0.00  0.00    +0.000 C 
ENDBRANCH  22  23
BRANCH  22  25
ATOM     25  C   UNL     1      -5.322  12.040  17.101  0.00  0.00    +0.000 C 
ATOM     26  C   UNL     1      -6.410  11.441  17.985  0.00  0.00    +0.000 C 
ENDBRANCH  22  25
ENDBRANCH  21  22
ENDBRANCH  20  21
ENDBRANCH  19  20
ENDBRANCH  18  19
ENDBRANCH  14  17
BRANCH   1  27
ATOM     27  C   UNL     1       0.684   8.940  22.169  0.00  0.00    +0.000 C 
BRANCH  27  29
ATOM     28  C   UNL     1      -1.052  10.599  23.040  0.00  0.00    +0.000 C 
ATOM     29  C   UNL     1      -0.800   9.266  22.351  0.00  0.00    +0.000 C 
ENDBRANCH  27  29
ENDBRANCH   1  27
TORSDOF 10
ENDMDL
MODEL 8
REMARK VINA RESULT:      -6.4      1.338      1.948
REMARK  Name = 
REMARK  13 active torsions:
REMARK  status: ('A' for Active; 'I' for Inactive)
REMARK    1  A    between atoms: C_1  and  C_2
REMARK    2  A    between atoms: C_2  and  C_3
REMARK    3  A    between atoms: C_3  and  C_4
REMARK    4  A    between atoms: C_16  and  O_17
REMARK    5  A    between atoms: C_18  and  C_19
REMARK    6  A    between atoms: N_20  and  C_21
REMARK    7  A    between atoms: C_21  and  C_22
REMARK    8  A    between atoms: C_22  and  C_23
REMARK    9  A    between atoms: C_23  and  N_24
REMARK   10  A    between atoms: N_24  and  C_25
REMARK   11  A    between atoms: N_24  and  C_27
REMARK   12  A    between atoms: C_25  and  C_26
REMARK   13  A    between atoms: C_27  and  C_28
REMARK                            x       y       z     vdW  Elec       q    Type
REMARK                         _______ _______ _______ _____ _____    ______ ____
ROOT
ATOM      1  C   UNL     1       2.297   7.266  19.679  0.00  0.00    +0.000 A 
ATOM      2  N   UNL     1       1.557   8.064  20.462  0.00  0.00    +0.000 NA
ATOM      3  N   UNL     1       1.269   9.145  19.694  0.00  0.00    +0.000 N 
ATOM      4  C   UNL     1       0.429  10.162  20.178  0.00  0.00    +0.000 A 
ATOM      5  N   UNL     1       0.079  11.214  19.453  0.00  0.00    +0.000 NA
ATOM      6  C   UNL     1      -0.808  11.994  20.201  0.00  0.00    +0.000 A 
ATOM      7  C   UNL     1      -1.433  13.191  19.786  0.00  0.00    +0.000 A 
ATOM      8  C   UNL     1      -2.315  13.860  20.649  0.00  0.00    +0.000 A 
ATOM      9  C   UNL     1      -2.583  13.355  21.916  0.00  0.00    +0.000 A 
ATOM     10  C   UNL     1      -1.974  12.178  22.355  0.00  0.00    +0.000 A 
ATOM     11  C   UNL     1      -1.092  11.513  21.484  0.00  0.00    +0.000 A 
ATOM     12  S   UNL     1      -0.213  10.058  21.749  0.00  0.00    +0.000 S 
ATOM     13  C   UNL     1       1.860   9.058  18.438  0.00  0.00    +0.000 A 
ATOM     14  C   UNL     1       2.526   7.845  18.400  0.00  0.00    +0.000 A 
ENDROOT
BRANCH  13  15
ATOM     15  O   UNL     1       1.736   9.994  17.490  0.00  0.00    +0.000 OA
ATOM     16  H   UNL     1       2.544   9.983  16.925  0.00  0.00    +0.000 HD
ENDBRANCH  13  15
BRANCH  14  17
ATOM     17  C   UNL     1       3.237   7.345  17.247  0.00  0.00    +0.000 C 
ATOM     18  N   UNL     1       4.497   7.100  17.331  0.00  0.00    +0.000 NA
BRANCH  18  19
ATOM     19  C   UNL     1       5.085   6.560  16.100  0.00  0.00    +0.000 C 
BRANCH  19  20
ATOM     20  C   UNL     1       5.753   5.219  16.394  0.00  0.00    +0.000 C 
BRANCH  20  21
ATOM     21  C   UNL     1       4.789   4.021  16.395  0.00  0.00    +0.000 C 
BRANCH  21  22
ATOM     22  N   UNL     1       3.915   3.872  17.581  0.00  0.00    +0.000 NA
BRANCH  22  23
ATOM     23  C   UNL     1       2.630   3.217  17.286  0.00  0.00    +0.000 C 
ATOM     24  C   UNL     1       1.377   4.076  17.432  0.00  0.00    +0.000 C 
ENDBRANCH  22  23
BRANCH  22  25
ATOM     25  C   UNL     1       4.680   3.217  18.660  0.00  0.00    +0.000 C 
ATOM     26  C   UNL     1       4.036   1.958  19.231  0.00  0.00    +0.000 C 
ENDBRANCH  22  25
ENDBRANCH  21  22
ENDBRANCH  20  21
ENDBRANCH  19  20
ENDBRANCH  18  19
ENDBRANCH  14  17
BRANCH   1  27
ATOM     27  C   UNL     1       2.699   5.912  20.186  0.00  0.00    +0.000 C 
BRANCH  27  29
ATOM     28  C   UNL     1       2.028   3.792  21.444  0.00  0.00    +0.000 C 
ATOM     29  C   UNL     1       1.560   5.073  20.769  0.00  0.00    +0.000 C 
ENDBRANCH  27  29
ENDBRANCH   1  27
TORSDOF 10
ENDMDL
MODEL 9
REMARK VINA RESULT:      -6.4      1.015      1.807
REMARK  Name = 
REMARK  13 active torsions:
REMARK  status: ('A' for Active; 'I' for Inactive)
REMARK    1  A    between atoms: C_1  and  C_2
REMARK    2  A    between atoms: C_2  and  C_3
REMARK    3  A    between atoms: C_3  and  C_4
REMARK    4  A    between atoms: C_16  and  O_17
REMARK    5  A    between atoms: C_18  and  C_19
REMARK    6  A    between atoms: N_20  and  C_21
REMARK    7  A    between atoms: C_21  and  C_22
REMARK    8  A    between atoms: C_22  and  C_23
REMARK    9  A    between atoms: C_23  and  N_24
REMARK   10  A    between atoms: N_24  and  C_25
REMARK   11  A    between atoms: N_24  and  C_27
REMARK   12  A    between atoms: C_25  and  C_26
REMARK   13  A    between atoms: C_27  and  C_28
REMARK                            x       y       z     vdW  Elec       q    Type
REMARK                         _______ _______ _______ _____ _____    ______ ____
ROOT
ATOM      1  C   UNL     1       2.027   6.581  20.348  0.00  0.00    +0.000 A 
ATOM      2  N   UNL     1       1.318   7.373  21.164  0.00  0.00    +0.000 NA
ATOM      3  N   UNL     1       1.177   8.542  20.488  0.00  0.00    +0.000 N 
ATOM      4  C   UNL     1       0.406   9.588  21.021  0.00  0.00    +0.000 A 
ATOM      5  N   UNL     1       0.199  10.730  20.382  0.00  0.00    +0.000 NA
ATOM      6  C   UNL     1      -0.656  11.522  21.152  0.00  0.00    +0.000 A 
ATOM      7  C   UNL     1      -1.143  12.807  20.821  0.00  0.00    +0.000 A 
ATOM      8  C   UNL     1      -2.010  13.478  21.695  0.00  0.00    +0.000 A 
ATOM      9  C   UNL     1      -2.401  12.890  22.893  0.00  0.00    +0.000 A 
ATOM     10  C   UNL     1      -1.931  11.625  23.251  0.00  0.00    +0.000 A 
ATOM     11  C   UNL     1      -1.062  10.959  22.367  0.00  0.00    +0.000 A 
ATOM     12  S   UNL     1      -0.338   9.407  22.539  0.00  0.00    +0.000 S 
ATOM     13  C   UNL     1       1.833   8.510  19.262  0.00  0.00    +0.000 A 
ATOM     14  C   UNL     1       2.387   7.247  19.144  0.00  0.00    +0.000 A 
ENDROOT
BRANCH  13  15
ATOM     15  O   UNL     1       1.854   9.535  18.401  0.00  0.00    +0.000 OA
ATOM     16  H   UNL     1       2.417   9.290  17.630  0.00  0.00    +0.000 HD
ENDBRANCH  13  15
BRANCH  14  17
ATOM     17  C   UNL     1       3.118   6.785  17.988  0.00  0.00    +0.000 C 
ATOM     18  N   UNL     1       4.092   7.488  17.527  0.00  0.00    +0.000 NA
BRANCH  18  19
ATOM     19  C   UNL     1       4.772   6.884  16.375  0.00  0.00    +0.000 C 
BRANCH  19  20
ATOM     20  C   UNL     1       6.237   6.626  16.720  0.00  0.00    +0.000 C 
BRANCH  20  21
ATOM     21  C   UNL     1       6.529   5.195  17.205  0.00  0.00    +0.000 C 
BRANCH  21  22
ATOM     22  N   UNL     1       6.309   4.105  16.229  0.00  0.00    +0.000 NA
BRANCH  22  23
ATOM     23  C   UNL     1       4.917   3.630  16.182  0.00  0.00    +0.000 C 
ATOM     24  C   UNL     1       4.246   3.347  17.523  0.00  0.00    +0.000 C 
ENDBRANCH  22  23
BRANCH  22  25
ATOM     25  C   UNL     1       6.837   4.524  14.915  0.00  0.00    +0.000 C 
ATOM     26  C   UNL     1       6.148   3.888  13.713  0.00  0.00    +0.000 C 
ENDBRANCH  22  25
ENDBRANCH  21  22
ENDBRANCH  20  21
ENDBRANCH  19  20
ENDBRANCH  18  19
ENDBRANCH  14  17
BRANCH   1  27
ATOM     27  C   UNL     1       2.271   5.155  20.746  0.00  0.00    +0.000 C 
BRANCH  27  29
ATOM     28  C   UNL     1       1.187   2.884  21.186  0.00  0.00    +0.000 C 
ATOM     29  C   UNL     1       1.147   4.180  20.389  0.00  0.00    +0.000 C 
ENDBRANCH  27  29
ENDBRANCH   1  27
TORSDOF 10
ENDMDL
