MODEL 1
REMARK VINA RESULT:      -8.5      0.000      0.000
REMARK  Name = 
REMARK  7 active torsions:
REMARK  status: ('A' for Active; 'I' for Inactive)
REMARK    1  A    between atoms: C_1  and  C_2
REMARK    2  A    between atoms: C_2  and  C_3
REMARK    3  A    between atoms: C_6  and  C_7
REMARK    4  A    between atoms: C_20  and  C_22
REMARK    5  A    between atoms: C_23  and  C_24
REMARK    6  A    between atoms: C_27  and  C_28
REMARK    7  A    between atoms: C_28  and  O_30
REMARK                            x       y       z     vdW  Elec       q    Type
REMARK                         _______ _______ _______ _____ _____    ______ ____
ROOT
ATOM      1  C   UNL     1      -0.808  12.604  19.412  0.00  0.00    +0.000 C 
ATOM      2  C   UNL     1      -0.369  14.035  19.245  0.00  0.00    +0.000 A 
ATOM      3  N   UNL     1      -1.106  15.136  19.598  0.00  0.00    +0.000 N 
ATOM      4  C   UNL     1      -0.433  16.286  19.237  0.00  0.00    +0.000 A 
ATOM      5  C   UNL     1      -0.802  17.630  19.375  0.00  0.00    +0.000 A 
ATOM      6  C   UNL     1       0.086  18.601  18.898  0.00  0.00    +0.000 A 
ATOM      7  C   UNL     1       1.298  18.242  18.313  0.00  0.00    +0.000 A 
ATOM      8  C   UNL     1       1.658  16.896  18.189  0.00  0.00    +0.000 A 
ATOM      9  C   UNL     1       0.778  15.900  18.656  0.00  0.00    +0.000 A 
ATOM     10  C   UNL     1       0.808  14.483  18.681  0.00  0.00    +0.000 A 
ATOM     11  C   UNL     1       1.832  13.524  18.208  0.00  0.00    +0.000 C 
ATOM     12  C   UNL     1       1.678  12.211  18.996  0.00  0.00    +0.000 C 
ATOM     13  N   UNL     1       0.286  11.691  18.981  0.00  0.00    +0.000 N 
ATOM     14  C   UNL     1      -0.100  10.431  18.543  0.00  0.00    +0.000 C 
ATOM     15  O   UNL     1      -1.275  10.083  18.435  0.00  0.00    +0.000 OA
ATOM     16  H   UNL     1      -2.011  15.115  20.048  0.00  0.00    +0.000 HD
ENDROOT
BRANCH   1  20
ATOM     17  C   UNL     1      -2.557  12.118  22.925  0.00  0.00    +0.000 A 
ATOM     18  C   UNL     1      -1.322  11.516  23.039  0.00  0.00    +0.000 A 
ATOM     19  C   UNL     1      -0.558  11.614  21.836  0.00  0.00    +0.000 A 
ATOM     20  C   UNL     1      -1.232  12.283  20.831  0.00  0.00    +0.000 A 
ATOM     21  S   UNL     1      -2.771  12.818  21.383  0.00  0.00    +0.000 S 
BRANCH  17  23
ATOM     22  C   UNL     1      -4.839  13.018  23.447  0.00  0.00    +0.000 C 
ATOM     23  C   UNL     1      -3.645  12.223  23.956  0.00  0.00    +0.000 C 
ENDBRANCH  17  23
ENDBRANCH   1  20
BRANCH  14  24
ATOM     24  C   UNL     1       0.976   9.474  18.176  0.00  0.00    +0.000 C 
ATOM     25  C   UNL     1       1.413   8.566  19.065  0.00  0.00    +0.000 C 
BRANCH  25  26
ATOM     26  C   UNL     1       2.461   7.580  18.757  0.00  0.00    +0.000 A 
ATOM     27  C   UNL     1       3.320   7.730  17.662  0.00  0.00    +0.000 A 
ATOM     28  C   UNL     1       4.293   6.768  17.378  0.00  0.00    +0.000 A 
ATOM     29  C   UNL     1       4.435   5.645  18.198  0.00  0.00    +0.000 A 
ATOM     30  C   UNL     1       3.621   5.511  19.328  0.00  0.00    +0.000 A 
ATOM     31  C   UNL     1       2.637   6.474  19.601  0.00  0.00    +0.000 A 
BRANCH  29  32
ATOM     32  C   UNL     1       5.497   4.667  17.843  0.00  0.00    +0.000 C 
ATOM     33  O   UNL     1       5.943   4.560  16.713  0.00  0.00    +0.000 OA
BRANCH  32  34
ATOM     34  O   UNL     1       5.888   3.874  18.862  0.00  0.00    +0.000 OA
ATOM     35  H   UNL     1       5.663   2.932  18.768  0.00  0.00    +0.000 HD
ENDBRANCH  32  34
ENDBRANCH  29  32
ENDBRANCH  25  26
ENDBRANCH  14  24
TORSDOF 6
ENDMDL
MODEL 2
REMARK VINA RESULT:      -8.5      0.841      1.279
REMARK  Name = 
REMARK  7 active torsions:
REMARK  status: ('A' for Active; 'I' for Inactive)
REMARK    1  A    between atoms: C_1  and  C_2
REMARK    2  A    between atoms: C_2  and  C_3
REMARK    3  A    between atoms: C_6  and  C_7
REMARK    4  A    between atoms: C_20  and  C_22
REMARK    5  A    between atoms: C_23  and  C_24
REMARK    6  A    between atoms: C_27  and  C_28
REMARK    7  A    between atoms: C_28  and  O_30
REMARK                            x       y       z     vdW  Elec       q    Type
REMARK                         _______ _______ _______ _____ _____    ______ ____
ROOT
ATOM      1  C   UNL     1      -0.823  12.546  19.393  0.00  0.00    +0.000 C 
ATOM      2  C   UNL     1      -0.261  13.911  19.095  0.00  0.00    +0.000 A 
ATOM      3  N   UNL     1      -0.998  15.062  18.978  0.00  0.00    +0.000 N 
ATOM      4  C   UNL     1      -0.173  16.113  18.628  0.00  0.00    +0.000 A 
ATOM      5  C   UNL     1      -0.479  17.457  18.378  0.00  0.00    +0.000 A 
ATOM      6  C   UNL     1       0.573  18.307  18.021  0.00  0.00    +0.000 A 
ATOM      7  C   UNL     1       1.880  17.835  17.926  0.00  0.00    +0.000 A 
ATOM      8  C   UNL     1       2.173  16.491  18.186  0.00  0.00    +0.000 A 
ATOM      9  C   UNL     1       1.129  15.614  18.540  0.00  0.00    +0.000 A 
ATOM     10  C   UNL     1       1.058  14.233  18.850  0.00  0.00    +0.000 A 
ATOM     11  C   UNL     1       2.112  13.196  18.917  0.00  0.00    +0.000 C 
ATOM     12  C   UNL     1       1.640  12.073  19.858  0.00  0.00    +0.000 C 
ATOM     13  N   UNL     1       0.288  11.563  19.512  0.00  0.00    +0.000 N 
ATOM     14  C   UNL     1      -0.027  10.240  19.230  0.00  0.00    +0.000 C 
ATOM     15  O   UNL     1      -1.132   9.878  18.832  0.00  0.00    +0.000 OA
ATOM     16  H   UNL     1      -1.996  15.135  19.118  0.00  0.00    +0.000 HD
ENDROOT
BRANCH   1  20
ATOM     17  C   UNL     1      -3.617  12.696  22.188  0.00  0.00    +0.000 A 
ATOM     18  C   UNL     1      -2.463  12.310  22.836  0.00  0.00    +0.000 A 
ATOM     19  C   UNL     1      -1.348  12.214  21.949  0.00  0.00    +0.000 A 
ATOM     20  C   UNL     1      -1.679  12.524  20.642  0.00  0.00    +0.000 A 
ATOM     21  S   UNL     1      -3.337  12.967  20.525  0.00  0.00    +0.000 S 
BRANCH  17  23
ATOM     22  C   UNL     1      -6.084  12.632  21.739  0.00  0.00    +0.000 C 
ATOM     23  C   UNL     1      -4.989  12.901  22.763  0.00  0.00    +0.000 C 
ENDBRANCH  17  23
ENDBRANCH   1  20
BRANCH  14  24
ATOM     24  C   UNL     1       1.046   9.227  19.413  0.00  0.00    +0.000 C 
ATOM     25  C   UNL     1       1.479   8.498  18.370  0.00  0.00    +0.000 C 
BRANCH  25  26
ATOM     26  C   UNL     1       2.550   7.495  18.482  0.00  0.00    +0.000 A 
ATOM     27  C   UNL     1       2.571   6.545  19.511  0.00  0.00    +0.000 A 
ATOM     28  C   UNL     1       3.611   5.617  19.606  0.00  0.00    +0.000 A 
ATOM     29  C   UNL     1       4.642   5.612  18.662  0.00  0.00    +0.000 A 
ATOM     30  C   UNL     1       4.603   6.519  17.597  0.00  0.00    +0.000 A 
ATOM     31  C   UNL     1       3.563   7.456  17.512  0.00  0.00    +0.000 A 
BRANCH  29  32
ATOM     32  C   UNL     1       5.711   4.591  18.820  0.00  0.00    +0.000 C 
ATOM     33  O   UNL     1       6.892   4.844  18.657  0.00  0.00    +0.000 OA
BRANCH  32  34
ATOM     34  O   UNL     1       5.260   3.351  19.107  0.00  0.00    +0.000 OA
ATOM     35  H   UNL     1       5.147   2.761  18.342  0.00  0.00    +0.000 HD
ENDBRANCH  32  34
ENDBRANCH  29  32
ENDBRANCH  25  26
ENDBRANCH  14  24
TORSDOF 6
ENDMDL
MODEL 3
REMARK VINA RESULT:      -8.3      2.597      4.850
REMARK  Name = 
REMARK  7 active torsions:
REMARK  status: ('A' for Active; 'I' for Inactive)
REMARK    1  A    between atoms: C_1  and  C_2
REMARK    2  A    between atoms: C_2  and  C_3
REMARK    3  A    between atoms: C_6  and  C_7
REMARK    4  A    between atoms: C_20  and  C_22
REMARK    5  A    between atoms: C_23  and  C_24
REMARK    6  A    between atoms: C_27  and  C_28
REMARK    7  A    between atoms: C_28  and  O_30
REMARK                            x       y       z     vdW  Elec       q    Type
REMARK                         _______ _______ _______ _____ _____    ______ ____
ROOT
ATOM      1  C   UNL     1      -1.130  11.938  19.897  0.00  0.00    +0.000 C 
ATOM      2  C   UNL     1      -2.571  12.021  19.466  0.00  0.00    +0.000 A 
ATOM      3  N   UNL     1      -3.488  12.924  19.939  0.00  0.00    +0.000 N 
ATOM      4  C   UNL     1      -4.727  12.669  19.385  0.00  0.00    +0.000 A 
ATOM      5  C   UNL     1      -5.957  13.308  19.587  0.00  0.00    +0.000 A 
ATOM      6  C   UNL     1      -7.067  12.817  18.891  0.00  0.00    +0.000 A 
ATOM      7  C   UNL     1      -6.951  11.734  18.022  0.00  0.00    +0.000 A 
ATOM      8  C   UNL     1      -5.715  11.110  17.824  0.00  0.00    +0.000 A 
ATOM      9  C   UNL     1      -4.584  11.582  18.518  0.00  0.00    +0.000 A 
ATOM     10  C   UNL     1      -3.221  11.197  18.571  0.00  0.00    +0.000 A 
ATOM     11  C   UNL     1      -2.488  10.117  17.871  0.00  0.00    +0.000 C 
ATOM     12  C   UNL     1      -1.000  10.502  17.793  0.00  0.00    +0.000 C 
ATOM     13  N   UNL     1      -0.434  10.882  19.114  0.00  0.00    +0.000 N 
ATOM     14  C   UNL     1       0.669  10.293  19.718  0.00  0.00    +0.000 C 
ATOM     15  O   UNL     1       1.034  10.555  20.862  0.00  0.00    +0.000 OA
ATOM     16  H   UNL     1      -3.295  13.664  20.600  0.00  0.00    +0.000 HD
ENDROOT
BRANCH   1  20
ATOM     17  C   UNL     1       0.833  15.347  20.297  0.00  0.00    +0.000 A 
ATOM     18  C   UNL     1       0.618  15.199  18.944  0.00  0.00    +0.000 A 
ATOM     19  C   UNL     1      -0.095  14.001  18.635  0.00  0.00    +0.000 A 
ATOM     20  C   UNL     1      -0.401  13.259  19.762  0.00  0.00    +0.000 A 
ATOM     21  S   UNL     1       0.150  14.057  21.183  0.00  0.00    +0.000 S 
BRANCH  17  23
ATOM     22  C   UNL     1       2.555  17.162  20.121  0.00  0.00    +0.000 C 
ATOM     23  C   UNL     1       1.545  16.458  21.016  0.00  0.00    +0.000 C 
ENDBRANCH  17  23
ENDBRANCH   1  20
BRANCH  14  24
ATOM     24  C   UNL     1       1.427   9.288  18.928  0.00  0.00    +0.000 C 
ATOM     25  C   UNL     1       1.853   8.150  19.502  0.00  0.00    +0.000 C 
BRANCH  25  26
ATOM     26  C   UNL     1       2.590   7.108  18.771  0.00  0.00    +0.000 A 
ATOM     27  C   UNL     1       2.416   5.746  19.045  0.00  0.00    +0.000 A 
ATOM     28  C   UNL     1       3.143   4.777  18.351  0.00  0.00    +0.000 A 
ATOM     29  C   UNL     1       4.049   5.153  17.354  0.00  0.00    +0.000 A 
ATOM     30  C   UNL     1       4.190   6.507  17.030  0.00  0.00    +0.000 A 
ATOM     31  C   UNL     1       3.466   7.477  17.739  0.00  0.00    +0.000 A 
BRANCH  29  32
ATOM     32  C   UNL     1       4.782   4.069  16.648  0.00  0.00    +0.000 C 
ATOM     33  O   UNL     1       5.391   4.255  15.609  0.00  0.00    +0.000 OA
BRANCH  32  34
ATOM     34  O   UNL     1       4.674   2.855  17.227  0.00  0.00    +0.000 OA
ATOM     35  H   UNL     1       5.317   2.190  16.926  0.00  0.00    +0.000 HD
ENDBRANCH  32  34
ENDBRANCH  29  32
ENDBRANCH  25  26
ENDBRANCH  14  24
TORSDOF 6
ENDMDL
MODEL 4
REMARK VINA RESULT:      -8.3      1.043      1.476
REMARK  Name = 
REMARK  7 active torsions:
REMARK  status: ('A' for Active; 'I' for Inactive)
REMARK    1  A    between atoms: C_1  and  C_2
REMARK    2  A    between atoms: C_2  and  C_3
REMARK    3  A    between atoms: C_6  and  C_7
REMARK    4  A    between atoms: C_20  and  C_22
REMARK    5  A    between atoms: C_23  and  C_24
REMARK    6  A    between atoms: C_27  and  C_28
REMARK    7  A    between atoms: C_28  and  O_30
REMARK                            x       y       z     vdW  Elec       q    Type
REMARK                         _______ _______ _______ _____ _____    ______ ____
ROOT
ATOM      1  C   UNL     1      -0.793  12.665  18.905  0.00  0.00    +0.000 C 
ATOM      2  C   UNL     1      -0.170  14.033  18.809  0.00  0.00    +0.000 A 
ATOM      3  N   UNL     1      -0.859  15.207  18.641  0.00  0.00    +0.000 N 
ATOM      4  C   UNL     1       0.028  16.258  18.519  0.00  0.00    +0.000 A 
ATOM      5  C   UNL     1      -0.211  17.623  18.312  0.00  0.00    +0.000 A 
ATOM      6  C   UNL     1       0.899  18.469  18.212  0.00  0.00    +0.000 A 
ATOM      7  C   UNL     1       2.195  17.972  18.323  0.00  0.00    +0.000 A 
ATOM      8  C   UNL     1       2.419  16.608  18.538  0.00  0.00    +0.000 A 
ATOM      9  C   UNL     1       1.318  15.735  18.635  0.00  0.00    +0.000 A 
ATOM     10  C   UNL     1       1.175  14.338  18.830  0.00  0.00    +0.000 A 
ATOM     11  C   UNL     1       2.187  13.274  19.015  0.00  0.00    +0.000 C 
ATOM     12  C   UNL     1       1.538  12.103  19.774  0.00  0.00    +0.000 C 
ATOM     13  N   UNL     1       0.266  11.650  19.155  0.00  0.00    +0.000 N 
ATOM     14  C   UNL     1      -0.008  10.357  18.729  0.00  0.00    +0.000 C 
ATOM     15  O   UNL     1      -1.027  10.048  18.113  0.00  0.00    +0.000 OA
ATOM     16  H   UNL     1      -1.865  15.295  18.602  0.00  0.00    +0.000 HD
ENDROOT
BRANCH   1  20
ATOM     17  C   UNL     1      -3.004  12.466  22.177  0.00  0.00    +0.000 A 
ATOM     18  C   UNL     1      -3.896  12.463  21.126  0.00  0.00    +0.000 A 
ATOM     19  C   UNL     1      -3.240  12.526  19.858  0.00  0.00    +0.000 A 
ATOM     20  C   UNL     1      -1.863  12.582  19.974  0.00  0.00    +0.000 A 
ATOM     21  S   UNL     1      -1.389  12.515  21.626  0.00  0.00    +0.000 S 
BRANCH  17  23
ATOM     22  C   UNL     1      -4.237  13.532  24.084  0.00  0.00    +0.000 C 
ATOM     23  C   UNL     1      -3.295  12.417  23.650  0.00  0.00    +0.000 C 
ENDBRANCH  17  23
ENDBRANCH   1  20
BRANCH  14  24
ATOM     24  C   UNL     1       1.001   9.308  19.032  0.00  0.00    +0.000 C 
ATOM     25  C   UNL     1       1.614   8.644  18.037  0.00  0.00    +0.000 C 
BRANCH  25  26
ATOM     26  C   UNL     1       2.635   7.611  18.271  0.00  0.00    +0.000 A 
ATOM     27  C   UNL     1       2.545   6.709  19.339  0.00  0.00    +0.000 A 
ATOM     28  C   UNL     1       3.539   5.751  19.551  0.00  0.00    +0.000 A 
ATOM     29  C   UNL     1       4.635   5.666  18.687  0.00  0.00    +0.000 A 
ATOM     30  C   UNL     1       4.708   6.524  17.584  0.00  0.00    +0.000 A 
ATOM     31  C   UNL     1       3.713   7.492  17.381  0.00  0.00    +0.000 A 
BRANCH  29  32
ATOM     32  C   UNL     1       5.650   4.616  18.967  0.00  0.00    +0.000 C 
ATOM     33  O   UNL     1       6.823   4.874  19.175  0.00  0.00    +0.000 OA
BRANCH  32  34
ATOM     34  O   UNL     1       5.174   3.354  18.921  0.00  0.00    +0.000 OA
ATOM     35  H   UNL     1       5.779   2.668  19.253  0.00  0.00    +0.000 HD
ENDBRANCH  32  34
ENDBRANCH  29  32
ENDBRANCH  25  26
ENDBRANCH  14  24
TORSDOF 6
ENDMDL
MODEL 5
REMARK VINA RESULT:      -8.3      2.610      4.705
REMARK  Name = 
REMARK  7 active torsions:
REMARK  status: ('A' for Active; 'I' for Inactive)
REMARK    1  A    between atoms: C_1  and  C_2
REMARK    2  A    between atoms: C_2  and  C_3
REMARK    3  A    between atoms: C_6  and  C_7
REMARK    4  A    between atoms: C_20  and  C_22
REMARK    5  A    between atoms: C_23  and  C_24
REMARK    6  A    between atoms: C_27  and  C_28
REMARK    7  A    between atoms: C_28  and  O_30
REMARK                            x       y       z     vdW  Elec       q    Type
REMARK                         _______ _______ _______ _____ _____    ______ ____
ROOT
ATOM      1  C   UNL     1      -1.151  11.841  20.121  0.00  0.00    +0.000 C 
ATOM      2  C   UNL     1      -2.555  11.997  19.599  0.00  0.00    +0.000 A 
ATOM      3  N   UNL     1      -3.476  12.902  20.062  0.00  0.00    +0.000 N 
ATOM      4  C   UNL     1      -4.680  12.720  19.411  0.00  0.00    +0.000 A 
ATOM      5  C   UNL     1      -5.901  13.388  19.567  0.00  0.00    +0.000 A 
ATOM      6  C   UNL     1      -6.974  12.975  18.770  0.00  0.00    +0.000 A 
ATOM      7  C   UNL     1      -6.830  11.941  17.848  0.00  0.00    +0.000 A 
ATOM      8  C   UNL     1      -5.602  11.287  17.697  0.00  0.00    +0.000 A 
ATOM      9  C   UNL     1      -4.509  11.681  18.493  0.00  0.00    +0.000 A 
ATOM     10  C   UNL     1      -3.165  11.247  18.615  0.00  0.00    +0.000 A 
ATOM     11  C   UNL     1      -2.418  10.186  17.903  0.00  0.00    +0.000 C 
ATOM     12  C   UNL     1      -0.917  10.524  17.949  0.00  0.00    +0.000 C 
ATOM     13  N   UNL     1      -0.433  10.809  19.325  0.00  0.00    +0.000 N 
ATOM     14  C   UNL     1       0.608  10.150  19.966  0.00  0.00    +0.000 C 
ATOM     15  O   UNL     1       0.899  10.333  21.147  0.00  0.00    +0.000 OA
ATOM     16  H   UNL     1      -3.307  13.595  20.778  0.00  0.00    +0.000 HD
ENDROOT
BRANCH   1  20
ATOM     17  C   UNL     1       0.697  15.256  19.370  0.00  0.00    +0.000 A 
ATOM     18  C   UNL     1       0.882  15.022  20.715  0.00  0.00    +0.000 A 
ATOM     19  C   UNL     1       0.269  13.805  21.144  0.00  0.00    +0.000 A 
ATOM     20  C   UNL     1      -0.375  13.143  20.115  0.00  0.00    +0.000 A 
ATOM     21  S   UNL     1      -0.188  13.995  18.632  0.00  0.00    +0.000 S 
BRANCH  17  23
ATOM     22  C   UNL     1       0.031  17.329  18.125  0.00  0.00    +0.000 C 
ATOM     23  C   UNL     1       1.176  16.419  18.548  0.00  0.00    +0.000 C 
ENDBRANCH  17  23
ENDBRANCH   1  20
BRANCH  14  24
ATOM     24  C   UNL     1       1.389   9.166  19.171  0.00  0.00    +0.000 C 
ATOM     25  C   UNL     1       1.796   8.011  19.725  0.00  0.00    +0.000 C 
BRANCH  25  26
ATOM     26  C   UNL     1       2.554   6.990  18.986  0.00  0.00    +0.000 A 
ATOM     27  C   UNL     1       3.365   7.316  17.892  0.00  0.00    +0.000 A 
ATOM     28  C   UNL     1       4.057   6.324  17.194  0.00  0.00    +0.000 A 
ATOM     29  C   UNL     1       3.965   4.986  17.589  0.00  0.00    +0.000 A 
ATOM     30  C   UNL     1       3.203   4.654  18.716  0.00  0.00    +0.000 A 
ATOM     31  C   UNL     1       2.500   5.652  19.406  0.00  0.00    +0.000 A 
BRANCH  29  32
ATOM     32  C   UNL     1       4.736   3.985  16.807  0.00  0.00    +0.000 C 
ATOM     33  O   UNL     1       5.324   4.265  15.777  0.00  0.00    +0.000 OA
BRANCH  32  34
ATOM     34  O   UNL     1       4.687   2.731  17.305  0.00  0.00    +0.000 OA
ATOM     35  H   UNL     1       4.047   2.593  18.025  0.00  0.00    +0.000 HD
ENDBRANCH  32  34
ENDBRANCH  29  32
ENDBRANCH  25  26
ENDBRANCH  14  24
TORSDOF 6
ENDMDL
MODEL 6
REMARK VINA RESULT:      -8.2      2.690      4.765
REMARK  Name = 
REMARK  7 active torsions:
REMARK  status: ('A' for Active; 'I' for Inactive)
REMARK    1  A    between atoms: C_1  and  C_2
REMARK    2  A    between atoms: C_2  and  C_3
REMARK    3  A    between atoms: C_6  and  C_7
REMARK    4  A    between atoms: C_20  and  C_22
REMARK    5  A    between atoms: C_23  and  C_24
REMARK    6  A    between atoms: C_27  and  C_28
REMARK    7  A    between atoms: C_28  and  O_30
REMARK                            x       y       z     vdW  Elec       q    Type
REMARK                         _______ _______ _______ _____ _____    ______ ____
ROOT
ATOM      1  C   UNL     1      -1.449  12.027  20.324  0.00  0.00    +0.000 C 
ATOM      2  C   UNL     1      -2.805  12.177  19.686  0.00  0.00    +0.000 A 
ATOM      3  N   UNL     1      -3.751  13.102  20.046  0.00  0.00    +0.000 N 
ATOM      4  C   UNL     1      -4.901  12.909  19.306  0.00  0.00    +0.000 A 
ATOM      5  C   UNL     1      -6.124  13.590  19.343  0.00  0.00    +0.000 A 
ATOM      6  C   UNL     1      -7.134  13.160  18.475  0.00  0.00    +0.000 A 
ATOM      7  C   UNL     1      -6.927  12.096  17.600  0.00  0.00    +0.000 A 
ATOM      8  C   UNL     1      -5.697  11.430  17.568  0.00  0.00    +0.000 A 
ATOM      9  C   UNL     1      -4.668  11.840  18.437  0.00  0.00    +0.000 A 
ATOM     10  C   UNL     1      -3.342  11.401  18.680  0.00  0.00    +0.000 A 
ATOM     11  C   UNL     1      -2.550  10.312  18.063  0.00  0.00    +0.000 C 
ATOM     12  C   UNL     1      -1.055  10.641  18.219  0.00  0.00    +0.000 C 
ATOM     13  N   UNL     1      -0.680  10.965  19.620  0.00  0.00    +0.000 N 
ATOM     14  C   UNL     1       0.300  10.319  20.363  0.00  0.00    +0.000 C 
ATOM     15  O   UNL     1       0.498  10.537  21.557  0.00  0.00    +0.000 OA
ATOM     16  H   UNL     1      -3.634  13.816  20.751  0.00  0.00    +0.000 HD
ENDROOT
BRANCH   1  20
ATOM     17  C   UNL     1       0.487  15.402  19.619  0.00  0.00    +0.000 A 
ATOM     18  C   UNL     1       0.560  15.210  20.982  0.00  0.00    +0.000 A 
ATOM     19  C   UNL     1      -0.098  14.012  21.397  0.00  0.00    +0.000 A 
ATOM     20  C   UNL     1      -0.663  13.322  20.340  0.00  0.00    +0.000 A 
ATOM     21  S   UNL     1      -0.346  14.124  18.852  0.00  0.00    +0.000 S 
BRANCH  17  23
ATOM     22  C   UNL     1      -0.041  17.260  18.019  0.00  0.00    +0.000 C 
ATOM     23  C   UNL     1       1.043  16.534  18.803  0.00  0.00    +0.000 C 
ENDBRANCH  17  23
ENDBRANCH   1  20
BRANCH  14  24
ATOM     24  C   UNL     1       1.132   9.305  19.664  0.00  0.00    +0.000 C 
ATOM     25  C   UNL     1       1.495   8.172  20.289  0.00  0.00    +0.000 C 
BRANCH  25  26
ATOM     26  C   UNL     1       2.300   7.123  19.645  0.00  0.00    +0.000 A 
ATOM     27  C   UNL     1       2.479   5.863  20.230  0.00  0.00    +0.000 A 
ATOM     28  C   UNL     1       3.266   4.891  19.609  0.00  0.00    +0.000 A 
ATOM     29  C   UNL     1       3.877   5.156  18.379  0.00  0.00    +0.000 A 
ATOM     30  C   UNL     1       3.659   6.390  17.757  0.00  0.00    +0.000 A 
ATOM     31  C   UNL     1       2.878   7.368  18.391  0.00  0.00    +0.000 A 
BRANCH  29  32
ATOM     32  C   UNL     1       4.692   4.072  17.770  0.00  0.00    +0.000 C 
ATOM     33  O   UNL     1       4.592   3.752  16.599  0.00  0.00    +0.000 OA
BRANCH  32  34
ATOM     34  O   UNL     1       5.515   3.441  18.634  0.00  0.00    +0.000 OA
ATOM     35  H   UNL     1       6.226   3.989  19.009  0.00  0.00    +0.000 HD
ENDBRANCH  32  34
ENDBRANCH  29  32
ENDBRANCH  25  26
ENDBRANCH  14  24
TORSDOF 6
ENDMDL
MODEL 7
REMARK VINA RESULT:      -8.2      2.656      4.668
REMARK  Name = 
REMARK  7 active torsions:
REMARK  status: ('A' for Active; 'I' for Inactive)
REMARK    1  A    between atoms: C_1  and  C_2
REMARK    2  A    between atoms: C_2  and  C_3
REMARK    3  A    between atoms: C_6  and  C_7
REMARK    4  A    between atoms: C_20  and  C_22
REMARK    5  A    between atoms: C_23  and  C_24
REMARK    6  A    between atoms: C_27  and  C_28
REMARK    7  A    between atoms: C_28  and  O_30
REMARK                            x       y       z     vdW  Elec       q    Type
REMARK                         _______ _______ _______ _____ _____    ______ ____
ROOT
ATOM      1  C   UNL     1      -0.656  11.081  19.991  0.00  0.00    +0.000 C 
ATOM      2  C   UNL     1      -2.016  11.410  19.436  0.00  0.00    +0.000 A 
ATOM      3  N   UNL     1      -2.944  12.218  20.040  0.00  0.00    +0.000 N 
ATOM      4  C   UNL     1      -4.105  12.241  19.293  0.00  0.00    +0.000 A 
ATOM      5  C   UNL     1      -5.317  12.903  19.525  0.00  0.00    +0.000 A 
ATOM      6  C   UNL     1      -6.343  12.730  18.589  0.00  0.00    +0.000 A 
ATOM      7  C   UNL     1      -6.161  11.933  17.461  0.00  0.00    +0.000 A 
ATOM      8  C   UNL     1      -4.942  11.284  17.237  0.00  0.00    +0.000 A 
ATOM      9  C   UNL     1      -3.897  11.437  18.168  0.00  0.00    +0.000 A 
ATOM     10  C   UNL     1      -2.576  10.934  18.267  0.00  0.00    +0.000 A 
ATOM     11  C   UNL     1      -1.807  10.037  17.374  0.00  0.00    +0.000 C 
ATOM     12  C   UNL     1      -0.306  10.295  17.590  0.00  0.00    +0.000 C 
ATOM     13  N   UNL     1       0.089  10.233  19.021  0.00  0.00    +0.000 N 
ATOM     14  C   UNL     1       1.067   9.402  19.553  0.00  0.00    +0.000 C 
ATOM     15  O   UNL     1       1.280   9.294  20.759  0.00  0.00    +0.000 OA
ATOM     16  H   UNL     1      -2.808  12.719  20.908  0.00  0.00    +0.000 HD
ENDROOT
BRANCH   1  20
ATOM     17  C   UNL     1       1.616  14.312  20.159  0.00  0.00    +0.000 A 
ATOM     18  C   UNL     1       1.167  14.107  21.446  0.00  0.00    +0.000 A 
ATOM     19  C   UNL     1       0.327  12.957  21.550  0.00  0.00    +0.000 A 
ATOM     20  C   UNL     1       0.150  12.315  20.338  0.00  0.00    +0.000 A 
ATOM     21  S   UNL     1       1.045  13.103  19.098  0.00  0.00    +0.000 S 
BRANCH  17  23
ATOM     22  C   UNL     1       1.741  16.702  19.406  0.00  0.00    +0.000 C 
ATOM     23  C   UNL     1       2.506  15.407  19.642  0.00  0.00    +0.000 C 
ENDBRANCH  17  23
ENDBRANCH   1  20
BRANCH  14  24
ATOM     24  C   UNL     1       1.876   8.599  18.599  0.00  0.00    +0.000 C 
ATOM     25  C   UNL     1       2.453   7.451  18.992  0.00  0.00    +0.000 C 
BRANCH  25  26
ATOM     26  C   UNL     1       3.248   6.603  18.091  0.00  0.00    +0.000 A 
ATOM     27  C   UNL     1       4.211   7.138  17.227  0.00  0.00    +0.000 A 
ATOM     28  C   UNL     1       4.938   6.313  16.366  0.00  0.00    +0.000 A 
ATOM     29  C   UNL     1       4.727   4.931  16.366  0.00  0.00    +0.000 A 
ATOM     30  C   UNL     1       3.809   4.377  17.265  0.00  0.00    +0.000 A 
ATOM     31  C   UNL     1       3.072   5.211  18.119  0.00  0.00    +0.000 A 
BRANCH  29  32
ATOM     32  C   UNL     1       5.542   4.112  15.430  0.00  0.00    +0.000 C 
ATOM     33  O   UNL     1       5.751   4.444  14.276  0.00  0.00    +0.000 OA
BRANCH  32  34
ATOM     34  O   UNL     1       5.987   2.949  15.951  0.00  0.00    +0.000 OA
ATOM     35  H   UNL     1       6.052   2.924  16.921  0.00  0.00    +0.000 HD
ENDBRANCH  32  34
ENDBRANCH  29  32
ENDBRANCH  25  26
ENDBRANCH  14  24
TORSDOF 6
ENDMDL
MODEL 8
REMARK VINA RESULT:      -8.1      2.703      4.487
REMARK  Name = 
REMARK  7 active torsions:
REMARK  status: ('A' for Active; 'I' for Inactive)
REMARK    1  A    between atoms: C_1  and  C_2
REMARK    2  A    between atoms: C_2  and  C_3
REMARK    3  A    between atoms: C_6  and  C_7
REMARK    4  A    between atoms: C_20  and  C_22
REMARK    5  A    between atoms: C_23  and  C_24
REMARK    6  A    between atoms: C_27  and  C_28
REMARK    7  A    between atoms: C_28  and  O_30
REMARK                            x       y       z     vdW  Elec       q    Type
REMARK                         _______ _______ _______ _____ _____    ______ ____
ROOT
ATOM      1  C   UNL     1      -0.668  11.107  19.899  0.00  0.00    +0.000 C 
ATOM      2  C   UNL     1      -2.054  11.420  19.401  0.00  0.00    +0.000 A 
ATOM      3  N   UNL     1      -2.946  12.260  20.018  0.00  0.00    +0.000 N 
ATOM      4  C   UNL     1      -4.144  12.257  19.331  0.00  0.00    +0.000 A 
ATOM      5  C   UNL     1      -5.340  12.936  19.598  0.00  0.00    +0.000 A 
ATOM      6  C   UNL     1      -6.414  12.728  18.726  0.00  0.00    +0.000 A 
ATOM      7  C   UNL     1      -6.295  11.882  17.625  0.00  0.00    +0.000 A 
ATOM      8  C   UNL     1      -5.092  11.216  17.366  0.00  0.00    +0.000 A 
ATOM      9  C   UNL     1      -3.999  11.404  18.234  0.00  0.00    +0.000 A 
ATOM     10  C   UNL     1      -2.676  10.898  18.286  0.00  0.00    +0.000 A 
ATOM     11  C   UNL     1      -1.959   9.958  17.394  0.00  0.00    +0.000 C 
ATOM     12  C   UNL     1      -0.447  10.216  17.519  0.00  0.00    +0.000 C 
ATOM     13  N   UNL     1       0.022  10.214  18.929  0.00  0.00    +0.000 N 
ATOM     14  C   UNL     1       1.023   9.401  19.445  0.00  0.00    +0.000 C 
ATOM     15  O   UNL     1       1.299   9.344  20.642  0.00  0.00    +0.000 OA
ATOM     16  H   UNL     1      -2.763  12.797  20.854  0.00  0.00    +0.000 HD
ENDROOT
BRANCH   1  20
ATOM     17  C   UNL     1       1.155  14.356  21.226  0.00  0.00    +0.000 A 
ATOM     18  C   UNL     1       1.649  14.145  19.957  0.00  0.00    +0.000 A 
ATOM     19  C   UNL     1       1.075  12.995  19.335  0.00  0.00    +0.000 A 
ATOM     20  C   UNL     1       0.160  12.351  20.148  0.00  0.00    +0.000 A 
ATOM     21  S   UNL     1      -0.015  13.184  21.643  0.00  0.00    +0.000 S 
BRANCH  17  23
ATOM     22  C   UNL     1       0.272  16.080  22.820  0.00  0.00    +0.000 C 
ATOM     23  C   UNL     1       1.509  15.445  22.199  0.00  0.00    +0.000 C 
ENDBRANCH  17  23
ENDBRANCH   1  20
BRANCH  14  24
ATOM     24  C   UNL     1       1.778   8.553  18.486  0.00  0.00    +0.000 C 
ATOM     25  C   UNL     1       2.583   7.572  18.930  0.00  0.00    +0.000 C 
BRANCH  25  26
ATOM     26  C   UNL     1       3.340   6.687  18.032  0.00  0.00    +0.000 A 
ATOM     27  C   UNL     1       4.343   7.174  17.183  0.00  0.00    +0.000 A 
ATOM     28  C   UNL     1       5.033   6.315  16.324  0.00  0.00    +0.000 A 
ATOM     29  C   UNL     1       4.744   4.947  16.311  0.00  0.00    +0.000 A 
ATOM     30  C   UNL     1       3.784   4.439  17.194  0.00  0.00    +0.000 A 
ATOM     31  C   UNL     1       3.086   5.307  18.046  0.00  0.00    +0.000 A 
BRANCH  29  32
ATOM     32  C   UNL     1       5.523   4.091  15.379  0.00  0.00    +0.000 C 
ATOM     33  O   UNL     1       5.690   4.377  14.206  0.00  0.00    +0.000 OA
BRANCH  32  34
ATOM     34  O   UNL     1       5.985   2.947  15.927  0.00  0.00    +0.000 OA
ATOM     35  H   UNL     1       6.720   3.053  16.556  0.00  0.00    +0.000 HD
ENDBRANCH  32  34
ENDBRANCH  29  32
ENDBRANCH  25  26
ENDBRANCH  14  24
TORSDOF 6
ENDMDL
MODEL 9
REMARK VINA RESULT:      -8.1      2.718      4.693
REMARK  Name = 
REMARK  7 active torsions:
REMARK  status: ('A' for Active; 'I' for Inactive)
REMARK    1  A    between atoms: C_1  and  C_2
REMARK    2  A    between atoms: C_2  and  C_3
REMARK    3  A    between atoms: C_6  and  C_7
REMARK    4  A    between atoms: C_20  and  C_22
REMARK    5  A    between atoms: C_23  and  C_24
REMARK    6  A    between atoms: C_27  and  C_28
REMARK    7  A    between atoms: C_28  and  O_30
REMARK                            x       y       z     vdW  Elec       q    Type
REMARK                         _______ _______ _______ _____ _____    ______ ____
ROOT
ATOM      1  C   UNL     1      -1.250  12.062  20.041  0.00  0.00    +0.000 C 
ATOM      2  C   UNL     1      -2.662  12.161  19.527  0.00  0.00    +0.000 A 
ATOM      3  N   UNL     1      -3.564  13.133  19.874  0.00  0.00    +0.000 N 
ATOM      4  C   UNL     1      -4.783  12.877  19.277  0.00  0.00    +0.000 A 
ATOM      5  C   UNL     1      -5.994  13.576  19.359  0.00  0.00    +0.000 A 
ATOM      6  C   UNL     1      -7.086  13.069  18.647  0.00  0.00    +0.000 A 
ATOM      7  C   UNL     1      -6.971  11.914  17.877  0.00  0.00    +0.000 A 
ATOM      8  C   UNL     1      -5.753  11.230  17.798  0.00  0.00    +0.000 A 
ATOM      9  C   UNL     1      -4.640  11.717  18.511  0.00  0.00    +0.000 A 
ATOM     10  C   UNL     1      -3.299  11.288  18.669  0.00  0.00    +0.000 A 
ATOM     11  C   UNL     1      -2.576  10.127  18.101  0.00  0.00    +0.000 C 
ATOM     12  C   UNL     1      -1.071  10.449  18.073  0.00  0.00    +0.000 C 
ATOM     13  N   UNL     1      -0.558  10.918  19.386  0.00  0.00    +0.000 N 
ATOM     14  C   UNL     1       0.488  10.343  20.095  0.00  0.00    +0.000 C 
ATOM     15  O   UNL     1       0.804  10.687  21.233  0.00  0.00    +0.000 OA
ATOM     16  H   UNL     1      -3.375  13.918  20.482  0.00  0.00    +0.000 HD
ENDROOT
BRANCH   1  20
ATOM     17  C   UNL     1       0.842  15.410  20.265  0.00  0.00    +0.000 A 
ATOM     18  C   UNL     1       0.666  15.172  18.919  0.00  0.00    +0.000 A 
ATOM     19  C   UNL     1      -0.087  13.983  18.672  0.00  0.00    +0.000 A 
ATOM     20  C   UNL     1      -0.461  13.339  19.837  0.00  0.00    +0.000 A 
ATOM     21  S   UNL     1       0.076  14.217  21.216  0.00  0.00    +0.000 S 
BRANCH  17  23
ATOM     22  C   UNL     1       1.460  16.489  22.443  0.00  0.00    +0.000 C 
ATOM     23  C   UNL     1       1.575  16.542  20.926  0.00  0.00    +0.000 C 
ENDBRANCH  17  23
ENDBRANCH   1  20
BRANCH  14  24
ATOM     24  C   UNL     1       1.243   9.247  19.433  0.00  0.00    +0.000 C 
ATOM     25  C   UNL     1       1.581   8.141  20.118  0.00  0.00    +0.000 C 
BRANCH  25  26
ATOM     26  C   UNL     1       2.310   7.015  19.515  0.00  0.00    +0.000 A 
ATOM     27  C   UNL     1       2.970   7.133  18.285  0.00  0.00    +0.000 A 
ATOM     28  C   UNL     1       3.637   6.042  17.724  0.00  0.00    +0.000 A 
ATOM     29  C   UNL     1       3.671   4.814  18.392  0.00  0.00    +0.000 A 
ATOM     30  C   UNL     1       3.063   4.699  19.647  0.00  0.00    +0.000 A 
ATOM     31  C   UNL     1       2.384   5.794  20.201  0.00  0.00    +0.000 A 
BRANCH  29  32
ATOM     32  C   UNL     1       4.407   3.698  17.741  0.00  0.00    +0.000 C 
ATOM     33  O   UNL     1       3.892   2.619  17.506  0.00  0.00    +0.000 OA
BRANCH  32  34
ATOM     34  O   UNL     1       5.704   3.964  17.480  0.00  0.00    +0.000 OA
ATOM     35  H   UNL     1       5.915   4.132  16.545  0.00  0.00    +0.000 HD
ENDBRANCH  32  34
ENDBRANCH  29  32
ENDBRANCH  25  26
ENDBRANCH  14  24
TORSDOF 6
ENDMDL
