MODEL 1
REMARK VINA RESULT:      -7.9      0.000      0.000
REMARK  Name = 
REMARK  4 active torsions:
REMARK  status: ('A' for Active; 'I' for Inactive)
REMARK    1  A    between atoms: C_1  and  C_2
REMARK    2  A    between atoms: C_2  and  N_3
REMARK    3  A    between atoms: C_6  and  C_7
REMARK    4  A    between atoms: C_13  and  C_14
REMARK                            x       y       z     vdW  Elec       q    Type
REMARK                         _______ _______ _______ _____ _____    ______ ____
ROOT
ATOM      1  N   UNL     1       2.518   3.831  18.006  0.00  0.00    +0.000 N 
ATOM      2  C   UNL     1       3.407   3.001  17.376  0.00  0.00    +0.000 A 
ATOM      3  N   UNL     1       4.592   3.537  17.297  0.00  0.00    +0.000 NA
ATOM      4  C   UNL     1       4.486   4.773  17.899  0.00  0.00    +0.000 A 
ATOM      5  C   UNL     1       3.172   5.016  18.319  0.00  0.00    +0.000 A 
ENDROOT
BRANCH   5   6
ATOM      6  C   UNL     1       2.589   6.194  18.929  0.00  0.00    +0.000 A 
ATOM      7  N   UNL     1       2.411   7.324  18.267  0.00  0.00    +0.000 NA
ATOM      8  C   UNL     1       1.849   8.294  19.105  0.00  0.00    +0.000 A 
ATOM      9  C   UNL     1       1.520   9.643  18.854  0.00  0.00    +0.000 A 
ATOM     10  N   UNL     1       1.779  10.303  17.658  0.00  0.00    +0.000 N 
ATOM     11  N   UNL     1       0.951  10.373  19.840  0.00  0.00    +0.000 NA
ATOM     12  C   UNL     1       0.725   9.791  21.028  0.00  0.00    +0.000 A 
ATOM     13  N   UNL     1       1.037   8.545  21.399  0.00  0.00    +0.000 NA
ATOM     14  C   UNL     1       1.599   7.857  20.393  0.00  0.00    +0.000 A 
ATOM     15  S   UNL     1       2.154   6.273  20.592  0.00  0.00    +0.000 S 
ATOM     16  H   UNL     1       2.556   9.913  17.136  0.00  0.00    +0.000 HD
ATOM     17  H   UNL     1       1.771  11.308  17.789  0.00  0.00    +0.000 HD
ENDBRANCH   5   6
BRANCH   4  18
ATOM     18  C   UNL     1       5.670   5.611  18.043  0.00  0.00    +0.000 A 
ATOM     19  C   UNL     1       5.835   6.723  17.201  0.00  0.00    +0.000 A 
ATOM     20  C   UNL     1       6.977   7.523  17.288  0.00  0.00    +0.000 A 
ATOM     21  C   UNL     1       7.968   7.223  18.220  0.00  0.00    +0.000 A 
ATOM     22  C   UNL     1       7.830   6.110  19.046  0.00  0.00    +0.000 A 
ATOM     23  C   UNL     1       6.697   5.301  18.941  0.00  0.00    +0.000 A 
ENDBRANCH   4  18
BRANCH   1  25
ATOM     24  C   UNL     1       0.909   2.851  19.609  0.00  0.00    +0.000 C 
ATOM     25  C   UNL     1       1.138   3.432  18.219  0.00  0.00    +0.000 C 
ENDBRANCH   1  25
TORSDOF 3
ENDMDL
MODEL 2
REMARK VINA RESULT:      -7.8      0.165      1.018
REMARK  Name = 
REMARK  4 active torsions:
REMARK  status: ('A' for Active; 'I' for Inactive)
REMARK    1  A    between atoms: C_1  and  C_2
REMARK    2  A    between atoms: C_2  and  N_3
REMARK    3  A    between atoms: C_6  and  C_7
REMARK    4  A    between atoms: C_13  and  C_14
REMARK                            x       y       z     vdW  Elec       q    Type
REMARK                         _______ _______ _______ _____ _____    ______ ____
ROOT
ATOM      1  N   UNL     1       2.477   3.698  18.203  0.00  0.00    +0.000 N 
ATOM      2  C   UNL     1       3.341   2.842  17.572  0.00  0.00    +0.000 A 
ATOM      3  N   UNL     1       4.514   3.382  17.401  0.00  0.00    +0.000 NA
ATOM      4  C   UNL     1       4.427   4.648  17.941  0.00  0.00    +0.000 A 
ATOM      5  C   UNL     1       3.134   4.904  18.417  0.00  0.00    +0.000 A 
ENDROOT
BRANCH   5   6
ATOM      6  C   UNL     1       2.572   6.109  18.992  0.00  0.00    +0.000 A 
ATOM      7  N   UNL     1       2.399   7.218  18.293  0.00  0.00    +0.000 NA
ATOM      8  C   UNL     1       1.859   8.222  19.104  0.00  0.00    +0.000 A 
ATOM      9  C   UNL     1       1.542   9.566  18.810  0.00  0.00    +0.000 A 
ATOM     10  N   UNL     1       1.794  10.181  17.589  0.00  0.00    +0.000 N 
ATOM     11  N   UNL     1       0.992  10.336  19.777  0.00  0.00    +0.000 NA
ATOM     12  C   UNL     1       0.774   9.797  20.987  0.00  0.00    +0.000 A 
ATOM     13  N   UNL     1       1.076   8.562  21.397  0.00  0.00    +0.000 NA
ATOM     14  C   UNL     1       1.619   7.833  20.409  0.00  0.00    +0.000 A 
ATOM     15  S   UNL     1       2.158   6.251  20.656  0.00  0.00    +0.000 S 
ATOM     16  H   UNL     1       2.561   9.764  17.072  0.00  0.00    +0.000 HD
ATOM     17  H   UNL     1       1.799  11.189  17.685  0.00  0.00    +0.000 HD
ENDBRANCH   5   6
BRANCH   4  18
ATOM     18  C   UNL     1       5.608   5.502  17.976  0.00  0.00    +0.000 A 
ATOM     19  C   UNL     1       6.595   5.276  18.951  0.00  0.00    +0.000 A 
ATOM     20  C   UNL     1       7.718   6.102  19.035  0.00  0.00    +0.000 A 
ATOM     21  C   UNL     1       7.872   7.162  18.145  0.00  0.00    +0.000 A 
ATOM     22  C   UNL     1       6.891   7.413  17.188  0.00  0.00    +0.000 A 
ATOM     23  C   UNL     1       5.759   6.599  17.120  0.00  0.00    +0.000 A 
ENDBRANCH   4  18
BRANCH   1  25
ATOM     24  C   UNL     1       0.960   2.824  19.949  0.00  0.00    +0.000 C 
ATOM     25  C   UNL     1       1.115   3.301  18.511  0.00  0.00    +0.000 C 
ENDBRANCH   1  25
TORSDOF 3
ENDMDL
MODEL 3
REMARK VINA RESULT:      -7.6      2.734      5.780
REMARK  Name = 
REMARK  4 active torsions:
REMARK  status: ('A' for Active; 'I' for Inactive)
REMARK    1  A    between atoms: C_1  and  C_2
REMARK    2  A    between atoms: C_2  and  N_3
REMARK    3  A    between atoms: C_6  and  C_7
REMARK    4  A    between atoms: C_13  and  C_14
REMARK                            x       y       z     vdW  Elec       q    Type
REMARK                         _______ _______ _______ _____ _____    ______ ____
ROOT
ATOM      1  N   UNL     1       3.065   3.406  20.127  0.00  0.00    +0.000 N 
ATOM      2  C   UNL     1       2.214   3.764  21.139  0.00  0.00    +0.000 A 
ATOM      3  N   UNL     1       1.844   5.010  21.039  0.00  0.00    +0.000 NA
ATOM      4  C   UNL     1       2.475   5.498  19.914  0.00  0.00    +0.000 A 
ATOM      5  C   UNL     1       3.297   4.523  19.334  0.00  0.00    +0.000 A 
ENDROOT
BRANCH   5   6
ATOM      6  C   UNL     1       4.190   4.610  18.196  0.00  0.00    +0.000 A 
ATOM      7  N   UNL     1       5.237   5.416  18.172  0.00  0.00    +0.000 NA
ATOM      8  C   UNL     1       5.905   5.307  16.948  0.00  0.00    +0.000 A 
ATOM      9  C   UNL     1       7.038   5.990  16.457  0.00  0.00    +0.000 A 
ATOM     10  N   UNL     1       7.692   7.011  17.138  0.00  0.00    +0.000 N 
ATOM     11  N   UNL     1       7.514   5.675  15.232  0.00  0.00    +0.000 NA
ATOM     12  C   UNL     1       6.887   4.727  14.518  0.00  0.00    +0.000 A 
ATOM     13  N   UNL     1       5.783   4.051  14.852  0.00  0.00    +0.000 NA
ATOM     14  C   UNL     1       5.345   4.394  16.073  0.00  0.00    +0.000 A 
ATOM     15  S   UNL     1       3.930   3.745  16.731  0.00  0.00    +0.000 S 
ATOM     16  H   UNL     1       7.099   7.511  17.792  0.00  0.00    +0.000 HD
ATOM     17  H   UNL     1       8.249   7.571  16.503  0.00  0.00    +0.000 HD
ENDBRANCH   5   6
BRANCH   4  18
ATOM     18  C   UNL     1       2.213   6.863  19.473  0.00  0.00    +0.000 A 
ATOM     19  C   UNL     1       1.650   7.783  20.373  0.00  0.00    +0.000 A 
ATOM     20  C   UNL     1       1.351   9.087  19.969  0.00  0.00    +0.000 A 
ATOM     21  C   UNL     1       1.613   9.488  18.662  0.00  0.00    +0.000 A 
ATOM     22  C   UNL     1       2.149   8.581  17.751  0.00  0.00    +0.000 A 
ATOM     23  C   UNL     1       2.427   7.272  18.152  0.00  0.00    +0.000 A 
ENDBRANCH   4  18
BRANCH   1  25
ATOM     24  C   UNL     1       4.932   1.904  20.740  0.00  0.00    +0.000 C 
ATOM     25  C   UNL     1       3.593   2.057  20.031  0.00  0.00    +0.000 C 
ENDBRANCH   1  25
TORSDOF 3
ENDMDL
MODEL 4
REMARK VINA RESULT:      -7.6      1.387      2.005
REMARK  Name = 
REMARK  4 active torsions:
REMARK  status: ('A' for Active; 'I' for Inactive)
REMARK    1  A    between atoms: C_1  and  C_2
REMARK    2  A    between atoms: C_2  and  N_3
REMARK    3  A    between atoms: C_6  and  C_7
REMARK    4  A    between atoms: C_13  and  C_14
REMARK                            x       y       z     vdW  Elec       q    Type
REMARK                         _______ _______ _______ _____ _____    ______ ____
ROOT
ATOM      1  N   UNL     1       2.722   3.909  19.970  0.00  0.00    +0.000 N 
ATOM      2  C   UNL     1       3.627   2.897  19.793  0.00  0.00    +0.000 A 
ATOM      3  N   UNL     1       4.760   3.340  19.326  0.00  0.00    +0.000 NA
ATOM      4  C   UNL     1       4.600   4.703  19.187  0.00  0.00    +0.000 A 
ATOM      5  C   UNL     1       3.302   5.096  19.540  0.00  0.00    +0.000 A 
ENDROOT
BRANCH   5   6
ATOM      6  C   UNL     1       2.674   6.400  19.485  0.00  0.00    +0.000 A 
ATOM      7  N   UNL     1       2.179   6.998  20.554  0.00  0.00    +0.000 NA
ATOM      8  C   UNL     1       1.618   8.232  20.204  0.00  0.00    +0.000 A 
ATOM      9  C   UNL     1       0.949   9.191  20.993  0.00  0.00    +0.000 A 
ATOM     10  N   UNL     1       0.656   9.029  22.342  0.00  0.00    +0.000 N 
ATOM     11  N   UNL     1       0.522  10.335  20.411  0.00  0.00    +0.000 NA
ATOM     12  C   UNL     1       0.742  10.515  19.099  0.00  0.00    +0.000 A 
ATOM     13  N   UNL     1       1.314   9.663  18.243  0.00  0.00    +0.000 NA
ATOM     14  C   UNL     1       1.723   8.543  18.861  0.00  0.00    +0.000 A 
ATOM     15  S   UNL     1       2.426   7.261  18.015  0.00  0.00    +0.000 S 
ATOM     16  H   UNL     1       0.576   8.059  22.629  0.00  0.00    +0.000 HD
ATOM     17  H   UNL     1      -0.087   9.656  22.629  0.00  0.00    +0.000 HD
ENDBRANCH   5   6
BRANCH   4  18
ATOM     18  C   UNL     1       5.723   5.522  18.747  0.00  0.00    +0.000 A 
ATOM     19  C   UNL     1       5.623   6.242  17.545  0.00  0.00    +0.000 A 
ATOM     20  C   UNL     1       6.697   7.005  17.078  0.00  0.00    +0.000 A 
ATOM     21  C   UNL     1       7.882   7.058  17.806  0.00  0.00    +0.000 A 
ATOM     22  C   UNL     1       8.005   6.331  18.987  0.00  0.00    +0.000 A 
ATOM     23  C   UNL     1       6.938   5.553  19.441  0.00  0.00    +0.000 A 
ENDBRANCH   4  18
BRANCH   1  25
ATOM     24  C   UNL     1       1.413   2.660  21.656  0.00  0.00    +0.000 C 
ATOM     25  C   UNL     1       1.394   3.647  20.496  0.00  0.00    +0.000 C 
ENDBRANCH   1  25
TORSDOF 3
ENDMDL
MODEL 5
REMARK VINA RESULT:      -7.6      1.244      2.149
REMARK  Name = 
REMARK  4 active torsions:
REMARK  status: ('A' for Active; 'I' for Inactive)
REMARK    1  A    between atoms: C_1  and  C_2
REMARK    2  A    between atoms: C_2  and  N_3
REMARK    3  A    between atoms: C_6  and  C_7
REMARK    4  A    between atoms: C_13  and  C_14
REMARK                            x       y       z     vdW  Elec       q    Type
REMARK                         _______ _______ _______ _____ _____    ______ ____
ROOT
ATOM      1  N   UNL     1       2.553   3.960  19.634  0.00  0.00    +0.000 N 
ATOM      2  C   UNL     1       3.419   2.928  19.386  0.00  0.00    +0.000 A 
ATOM      3  N   UNL     1       4.570   3.360  18.955  0.00  0.00    +0.000 NA
ATOM      4  C   UNL     1       4.464   4.734  18.915  0.00  0.00    +0.000 A 
ATOM      5  C   UNL     1       3.182   5.151  19.293  0.00  0.00    +0.000 A 
ENDROOT
BRANCH   5   6
ATOM      6  C   UNL     1       2.605   6.479  19.331  0.00  0.00    +0.000 A 
ATOM      7  N   UNL     1       2.160   7.031  20.447  0.00  0.00    +0.000 NA
ATOM      8  C   UNL     1       1.641   8.304  20.185  0.00  0.00    +0.000 A 
ATOM      9  C   UNL     1       1.030   9.240  21.046  0.00  0.00    +0.000 A 
ATOM     10  N   UNL     1       0.763   9.008  22.391  0.00  0.00    +0.000 N 
ATOM     11  N   UNL     1       0.636  10.432  20.545  0.00  0.00    +0.000 NA
ATOM     12  C   UNL     1       0.832  10.682  19.241  0.00  0.00    +0.000 A 
ATOM     13  N   UNL     1       1.349   9.862  18.321  0.00  0.00    +0.000 NA
ATOM     14  C   UNL     1       1.726   8.692  18.861  0.00  0.00    +0.000 A 
ATOM     15  S   UNL     1       2.357   7.436  17.922  0.00  0.00    +0.000 S 
ATOM     16  H   UNL     1       0.651   8.027  22.622  0.00  0.00    +0.000 HD
ATOM     17  H   UNL     1       0.053   9.645  22.734  0.00  0.00    +0.000 HD
ENDBRANCH   5   6
BRANCH   4  18
ATOM     18  C   UNL     1       5.621   5.537  18.538  0.00  0.00    +0.000 A 
ATOM     19  C   UNL     1       6.781   5.492  19.330  0.00  0.00    +0.000 A 
ATOM     20  C   UNL     1       7.891   6.280  19.017  0.00  0.00    +0.000 A 
ATOM     21  C   UNL     1       7.857   7.122  17.907  0.00  0.00    +0.000 A 
ATOM     22  C   UNL     1       6.707   7.195  17.127  0.00  0.00    +0.000 A 
ATOM     23  C   UNL     1       5.591   6.422  17.454  0.00  0.00    +0.000 A 
ENDBRANCH   4  18
BRANCH   1  25
ATOM     24  C   UNL     1       1.215   2.863  21.401  0.00  0.00    +0.000 C 
ATOM     25  C   UNL     1       1.213   3.713  20.138  0.00  0.00    +0.000 C 
ENDBRANCH   1  25
TORSDOF 3
ENDMDL
MODEL 6
REMARK VINA RESULT:      -7.5      2.735      5.704
REMARK  Name = 
REMARK  4 active torsions:
REMARK  status: ('A' for Active; 'I' for Inactive)
REMARK    1  A    between atoms: C_1  and  C_2
REMARK    2  A    between atoms: C_2  and  N_3
REMARK    3  A    between atoms: C_6  and  C_7
REMARK    4  A    between atoms: C_13  and  C_14
REMARK                            x       y       z     vdW  Elec       q    Type
REMARK                         _______ _______ _______ _____ _____    ______ ____
ROOT
ATOM      1  N   UNL     1       3.193   3.522  20.274  0.00  0.00    +0.000 N 
ATOM      2  C   UNL     1       2.342   3.879  21.286  0.00  0.00    +0.000 A 
ATOM      3  N   UNL     1       1.903   5.097  21.139  0.00  0.00    +0.000 NA
ATOM      4  C   UNL     1       2.486   5.568  19.982  0.00  0.00    +0.000 A 
ATOM      5  C   UNL     1       3.350   4.613  19.429  0.00  0.00    +0.000 A 
ENDROOT
BRANCH   5   6
ATOM      6  C   UNL     1       4.217   4.697  18.271  0.00  0.00    +0.000 A 
ATOM      7  N   UNL     1       5.295   5.461  18.243  0.00  0.00    +0.000 NA
ATOM      8  C   UNL     1       5.927   5.361  16.998  0.00  0.00    +0.000 A 
ATOM      9  C   UNL     1       7.074   6.013  16.498  0.00  0.00    +0.000 A 
ATOM     10  N   UNL     1       7.786   6.987  17.189  0.00  0.00    +0.000 N 
ATOM     11  N   UNL     1       7.506   5.714  15.252  0.00  0.00    +0.000 NA
ATOM     12  C   UNL     1       6.823   4.813  14.528  0.00  0.00    +0.000 A 
ATOM     13  N   UNL     1       5.702   4.173  14.872  0.00  0.00    +0.000 NA
ATOM     14  C   UNL     1       5.309   4.497  16.113  0.00  0.00    +0.000 A 
ATOM     15  S   UNL     1       3.886   3.886  16.790  0.00  0.00    +0.000 S 
ATOM     16  H   UNL     1       7.231   7.490  17.872  0.00  0.00    +0.000 HD
ATOM     17  H   UNL     1       8.349   7.542  16.556  0.00  0.00    +0.000 HD
ENDBRANCH   5   6
BRANCH   4  18
ATOM     18  C   UNL     1       2.143   6.896  19.488  0.00  0.00    +0.000 A 
ATOM     19  C   UNL     1       2.397   7.220  18.145  0.00  0.00    +0.000 A 
ATOM     20  C   UNL     1       2.116   8.496  17.652  0.00  0.00    +0.000 A 
ATOM     21  C   UNL     1       1.573   9.464  18.494  0.00  0.00    +0.000 A 
ATOM     22  C   UNL     1       1.337   9.166  19.833  0.00  0.00    +0.000 A 
ATOM     23  C   UNL     1       1.640   7.895  20.328  0.00  0.00    +0.000 A 
ENDBRANCH   4  18
BRANCH   1  25
ATOM     24  C   UNL     1       3.316   1.389  19.027  0.00  0.00    +0.000 C 
ATOM     25  C   UNL     1       3.792   2.200  20.226  0.00  0.00    +0.000 C 
ENDBRANCH   1  25
TORSDOF 3
ENDMDL
MODEL 7
REMARK VINA RESULT:      -7.3      1.814      2.619
REMARK  Name = 
REMARK  4 active torsions:
REMARK  status: ('A' for Active; 'I' for Inactive)
REMARK    1  A    between atoms: C_1  and  C_2
REMARK    2  A    between atoms: C_2  and  N_3
REMARK    3  A    between atoms: C_6  and  C_7
REMARK    4  A    between atoms: C_13  and  C_14
REMARK                            x       y       z     vdW  Elec       q    Type
REMARK                         _______ _______ _______ _____ _____    ______ ____
ROOT
ATOM      1  N   UNL     1       3.101   3.694  20.409  0.00  0.00    +0.000 N 
ATOM      2  C   UNL     1       3.770   2.514  20.221  0.00  0.00    +0.000 A 
ATOM      3  N   UNL     1       4.594   2.582  19.214  0.00  0.00    +0.000 NA
ATOM      4  C   UNL     1       4.467   3.860  18.712  0.00  0.00    +0.000 A 
ATOM      5  C   UNL     1       3.493   4.582  19.415  0.00  0.00    +0.000 A 
ENDROOT
BRANCH   5   6
ATOM      6  C   UNL     1       2.982   5.920  19.196  0.00  0.00    +0.000 A 
ATOM      7  N   UNL     1       2.332   6.596  20.127  0.00  0.00    +0.000 NA
ATOM      8  C   UNL     1       1.940   7.846  19.635  0.00  0.00    +0.000 A 
ATOM      9  C   UNL     1       1.201   8.881  20.246  0.00  0.00    +0.000 A 
ATOM     10  N   UNL     1       0.640   8.798  21.515  0.00  0.00    +0.000 N 
ATOM     11  N   UNL     1       0.978  10.022  19.556  0.00  0.00    +0.000 NA
ATOM     12  C   UNL     1       1.462  10.129  18.308  0.00  0.00    +0.000 A 
ATOM     13  N   UNL     1       2.127   9.205  17.609  0.00  0.00    +0.000 NA
ATOM     14  C   UNL     1       2.327   8.090  18.330  0.00  0.00    +0.000 A 
ATOM     15  S   UNL     1       3.088   6.728  17.680  0.00  0.00    +0.000 S 
ATOM     16  H   UNL     1       0.436   7.849  21.810  0.00  0.00    +0.000 HD
ATOM     17  H   UNL     1      -0.098   9.483  21.630  0.00  0.00    +0.000 HD
ENDBRANCH   5   6
BRANCH   4  18
ATOM     18  C   UNL     1       5.316   4.292  17.608  0.00  0.00    +0.000 A 
ATOM     19  C   UNL     1       6.405   5.141  17.867  0.00  0.00    +0.000 A 
ATOM     20  C   UNL     1       7.213   5.603  16.825  0.00  0.00    +0.000 A 
ATOM     21  C   UNL     1       6.945   5.221  15.513  0.00  0.00    +0.000 A 
ATOM     22  C   UNL     1       5.854   4.399  15.238  0.00  0.00    +0.000 A 
ATOM     23  C   UNL     1       5.036   3.956  16.279  0.00  0.00    +0.000 A 
ENDBRANCH   4  18
BRANCH   1  25
ATOM     24  C   UNL     1       1.291   2.604  21.694  0.00  0.00    +0.000 C 
ATOM     25  C   UNL     1       2.141   3.850  21.487  0.00  0.00    +0.000 C 
ENDBRANCH   1  25
TORSDOF 3
ENDMDL
MODEL 8
REMARK VINA RESULT:      -7.2      1.697      2.390
REMARK  Name = 
REMARK  4 active torsions:
REMARK  status: ('A' for Active; 'I' for Inactive)
REMARK    1  A    between atoms: C_1  and  C_2
REMARK    2  A    between atoms: C_2  and  N_3
REMARK    3  A    between atoms: C_6  and  C_7
REMARK    4  A    between atoms: C_13  and  C_14
REMARK                            x       y       z     vdW  Elec       q    Type
REMARK                         _______ _______ _______ _____ _____    ______ ____
ROOT
ATOM      1  N   UNL     1       2.757   3.760  20.253  0.00  0.00    +0.000 N 
ATOM      2  C   UNL     1       3.449   2.591  20.078  0.00  0.00    +0.000 A 
ATOM      3  N   UNL     1       4.407   2.724  19.204  0.00  0.00    +0.000 NA
ATOM      4  C   UNL     1       4.349   4.036  18.782  0.00  0.00    +0.000 A 
ATOM      5  C   UNL     1       3.284   4.714  19.390  0.00  0.00    +0.000 A 
ENDROOT
BRANCH   5   6
ATOM      6  C   UNL     1       2.806   6.068  19.196  0.00  0.00    +0.000 A 
ATOM      7  N   UNL     1       2.196   6.751  20.148  0.00  0.00    +0.000 NA
ATOM      8  C   UNL     1       1.829   8.017  19.678  0.00  0.00    +0.000 A 
ATOM      9  C   UNL     1       1.132   9.065  20.316  0.00  0.00    +0.000 A 
ATOM     10  N   UNL     1       0.596   8.983  21.596  0.00  0.00    +0.000 N 
ATOM     11  N   UNL     1       0.927  10.220  19.644  0.00  0.00    +0.000 NA
ATOM     12  C   UNL     1       1.387  10.328  18.387  0.00  0.00    +0.000 A 
ATOM     13  N   UNL     1       2.011   9.393  17.664  0.00  0.00    +0.000 NA
ATOM     14  C   UNL     1       2.194   8.265  18.368  0.00  0.00    +0.000 A 
ATOM     15  S   UNL     1       2.903   6.890  17.687  0.00  0.00    +0.000 S 
ATOM     16  H   UNL     1       0.372   8.038  21.886  0.00  0.00    +0.000 HD
ATOM     17  H   UNL     1      -0.120   9.688  21.735  0.00  0.00    +0.000 HD
ENDBRANCH   5   6
BRANCH   4  18
ATOM     18  C   UNL     1       5.344   4.537  17.842  0.00  0.00    +0.000 A 
ATOM     19  C   UNL     1       5.335   4.076  16.515  0.00  0.00    +0.000 A 
ATOM     20  C   UNL     1       6.300   4.508  15.602  0.00  0.00    +0.000 A 
ATOM     21  C   UNL     1       7.284   5.408  16.002  0.00  0.00    +0.000 A 
ATOM     22  C   UNL     1       7.321   5.857  17.320  0.00  0.00    +0.000 A 
ATOM     23  C   UNL     1       6.368   5.407  18.236  0.00  0.00    +0.000 A 
ENDBRANCH   4  18
BRANCH   1  25
ATOM     24  C   UNL     1       1.362   2.517  21.873  0.00  0.00    +0.000 C 
ATOM     25  C   UNL     1       1.654   3.849  21.193  0.00  0.00    +0.000 C 
ENDBRANCH   1  25
TORSDOF 3
ENDMDL
MODEL 9
REMARK VINA RESULT:      -7.0      2.754      5.823
REMARK  Name = 
REMARK  4 active torsions:
REMARK  status: ('A' for Active; 'I' for Inactive)
REMARK    1  A    between atoms: C_1  and  C_2
REMARK    2  A    between atoms: C_2  and  N_3
REMARK    3  A    between atoms: C_6  and  C_7
REMARK    4  A    between atoms: C_13  and  C_14
REMARK                            x       y       z     vdW  Elec       q    Type
REMARK                         _______ _______ _______ _____ _____    ______ ____
ROOT
ATOM      1  N   UNL     1       3.410   3.479  19.893  0.00  0.00    +0.000 N 
ATOM      2  C   UNL     1       2.457   3.693  20.852  0.00  0.00    +0.000 A 
ATOM      3  N   UNL     1       1.984   4.907  20.799  0.00  0.00    +0.000 NA
ATOM      4  C   UNL     1       2.651   5.523  19.762  0.00  0.00    +0.000 A 
ATOM      5  C   UNL     1       3.600   4.664  19.192  0.00  0.00    +0.000 A 
ENDROOT
BRANCH   5   6
ATOM      6  C   UNL     1       4.565   4.905  18.138  0.00  0.00    +0.000 A 
ATOM      7  N   UNL     1       4.372   4.509  16.892  0.00  0.00    +0.000 NA
ATOM      8  C   UNL     1       5.469   4.857  16.097  0.00  0.00    +0.000 A 
ATOM      9  C   UNL     1       5.727   4.612  14.732  0.00  0.00    +0.000 A 
ATOM     10  N   UNL     1       4.896   3.869  13.899  0.00  0.00    +0.000 N 
ATOM     11  N   UNL     1       6.868   5.088  14.184  0.00  0.00    +0.000 NA
ATOM     12  C   UNL     1       7.723   5.772  14.961  0.00  0.00    +0.000 A 
ATOM     13  N   UNL     1       7.614   6.022  16.270  0.00  0.00    +0.000 NA
ATOM     14  C   UNL     1       6.469   5.533  16.772  0.00  0.00    +0.000 A 
ATOM     15  S   UNL     1       6.092   5.647  18.416  0.00  0.00    +0.000 S 
ATOM     16  H   UNL     1       4.329   3.188  14.391  0.00  0.00    +0.000 HD
ATOM     17  H   UNL     1       5.400   3.544  13.082  0.00  0.00    +0.000 HD
ENDBRANCH   5   6
BRANCH   4  18
ATOM     18  C   UNL     1       2.300   6.888  19.386  0.00  0.00    +0.000 A 
ATOM     19  C   UNL     1       1.695   7.731  20.333  0.00  0.00    +0.000 A 
ATOM     20  C   UNL     1       1.312   9.030  19.992  0.00  0.00    +0.000 A 
ATOM     21  C   UNL     1       1.530   9.504  18.701  0.00  0.00    +0.000 A 
ATOM     22  C   UNL     1       2.107   8.673  17.744  0.00  0.00    +0.000 A 
ATOM     23  C   UNL     1       2.470   7.367  18.082  0.00  0.00    +0.000 A 
ENDBRANCH   4  18
BRANCH   1  25
ATOM     24  C   UNL     1       3.549   1.400  18.561  0.00  0.00    +0.000 C 
ATOM     25  C   UNL     1       4.065   2.190  19.757  0.00  0.00    +0.000 C 
ENDBRANCH   1  25
TORSDOF 3
ENDMDL
