MODEL 1
REMARK VINA RESULT:      -7.5      0.000      0.000
REMARK  Name = 
REMARK  7 active torsions:
REMARK  status: ('A' for Active; 'I' for Inactive)
REMARK    1  A    between atoms: C_1  and  C_2
REMARK    2  A    between atoms: C_2  and  O_4
REMARK    3  A    between atoms: O_4  and  C_5
REMARK    4  A    between atoms: C_5  and  C_6
REMARK    5  A    between atoms: C_10  and  C_11
REMARK    6  A    between atoms: C_15  and  C_16
REMARK    7  A    between atoms: C_16  and  O_18
REMARK                            x       y       z     vdW  Elec       q    Type
REMARK                         _______ _______ _______ _____ _____    ______ ____
ROOT
ATOM      1  C   UNL     1       4.408   4.142  17.869  0.00  0.00    +0.000 A 
ATOM      2  C   UNL     1       4.441   5.448  18.372  0.00  0.00    +0.000 A 
ATOM      3  C   UNL     1       5.062   6.456  17.643  0.00  0.00    +0.000 A 
ATOM      4  C   UNL     1       5.646   6.173  16.416  0.00  0.00    +0.000 A 
ATOM      5  C   UNL     1       5.614   4.875  15.878  0.00  0.00    +0.000 A 
ATOM      6  C   UNL     1       5.002   3.868  16.632  0.00  0.00    +0.000 A 
ENDROOT
BRANCH   5   7
ATOM      7  C   UNL     1       6.163   4.600  14.545  0.00  0.00    +0.000 A 
ATOM      8  C   UNL     1       7.287   5.285  14.052  0.00  0.00    +0.000 A 
ATOM      9  C   UNL     1       7.759   5.040  12.770  0.00  0.00    +0.000 A 
ATOM     10  C   UNL     1       7.127   4.096  11.962  0.00  0.00    +0.000 A 
ATOM     11  C   UNL     1       6.026   3.366  12.440  0.00  0.00    +0.000 A 
ATOM     12  C   UNL     1       5.559   3.622  13.727  0.00  0.00    +0.000 A 
BRANCH  11  13
ATOM     13  C   UNL     1       5.385   2.389  11.512  0.00  0.00    +0.000 C 
ATOM     14  O   UNL     1       4.320   2.617  10.978  0.00  0.00    +0.000 OA
BRANCH  13  15
ATOM     15  O   UNL     1       6.082   1.256  11.265  0.00  0.00    +0.000 OA
ATOM     16  H   UNL     1       6.243   1.017  10.340  0.00  0.00    +0.000 HD
ENDBRANCH  13  15
ENDBRANCH  11  13
ENDBRANCH   5   7
BRANCH   1  17
ATOM     17  C   UNL     1       3.754   3.021  18.633  0.00  0.00    +0.000 C 
BRANCH  17  18
ATOM     18  O   UNL     1       2.595   2.569  17.927  0.00  0.00    +0.000 OA
BRANCH  18  20
ATOM     19  C   UNL     1       0.990   3.101  19.548  0.00  0.00    +0.000 C 
ATOM     20  C   UNL     1       1.488   3.331  18.153  0.00  0.00    +0.000 C 
ATOM     21  O   UNL     1       0.964   4.091  17.357  0.00  0.00    +0.000 OA
ENDBRANCH  18  20
ENDBRANCH  17  18
ENDBRANCH   1  17
TORSDOF 6
ENDMDL
MODEL 2
REMARK VINA RESULT:      -7.5      0.971      1.053
REMARK  Name = 
REMARK  7 active torsions:
REMARK  status: ('A' for Active; 'I' for Inactive)
REMARK    1  A    between atoms: C_1  and  C_2
REMARK    2  A    between atoms: C_2  and  O_4
REMARK    3  A    between atoms: O_4  and  C_5
REMARK    4  A    between atoms: C_5  and  C_6
REMARK    5  A    between atoms: C_10  and  C_11
REMARK    6  A    between atoms: C_15  and  C_16
REMARK    7  A    between atoms: C_16  and  O_18
REMARK                            x       y       z     vdW  Elec       q    Type
REMARK                         _______ _______ _______ _____ _____    ______ ____
ROOT
ATOM      1  C   UNL     1       4.570   4.449  18.067  0.00  0.00    +0.000 A 
ATOM      2  C   UNL     1       4.209   5.779  18.315  0.00  0.00    +0.000 A 
ATOM      3  C   UNL     1       4.484   6.761  17.371  0.00  0.00    +0.000 A 
ATOM      4  C   UNL     1       5.113   6.427  16.179  0.00  0.00    +0.000 A 
ATOM      5  C   UNL     1       5.473   5.098  15.894  0.00  0.00    +0.000 A 
ATOM      6  C   UNL     1       5.206   4.126  16.863  0.00  0.00    +0.000 A 
ENDROOT
BRANCH   5   7
ATOM      7  C   UNL     1       6.065   4.741  14.600  0.00  0.00    +0.000 A 
ATOM      8  C   UNL     1       7.259   5.328  14.145  0.00  0.00    +0.000 A 
ATOM      9  C   UNL     1       7.773   5.008  12.896  0.00  0.00    +0.000 A 
ATOM     10  C   UNL     1       7.115   4.085  12.085  0.00  0.00    +0.000 A 
ATOM     11  C   UNL     1       5.942   3.452  12.528  0.00  0.00    +0.000 A 
ATOM     12  C   UNL     1       5.432   3.782  13.781  0.00  0.00    +0.000 A 
BRANCH  11  13
ATOM     13  C   UNL     1       5.278   2.492  11.597  0.00  0.00    +0.000 C 
ATOM     14  O   UNL     1       4.227   2.753  11.052  0.00  0.00    +0.000 OA
BRANCH  13  15
ATOM     15  O   UNL     1       5.939   1.336  11.362  0.00  0.00    +0.000 OA
ATOM     16  H   UNL     1       5.467   0.504  11.516  0.00  0.00    +0.000 HD
ENDBRANCH  13  15
ENDBRANCH  11  13
ENDBRANCH   5   7
BRANCH   1  17
ATOM     17  C   UNL     1       4.298   3.359  19.069  0.00  0.00    +0.000 C 
BRANCH  17  18
ATOM     18  O   UNL     1       3.267   3.777  19.967  0.00  0.00    +0.000 OA
BRANCH  18  20
ATOM     19  C   UNL     1       0.952   3.937  20.290  0.00  0.00    +0.000 C 
ATOM     20  C   UNL     1       2.097   3.099  19.805  0.00  0.00    +0.000 C 
ATOM     21  O   UNL     1       1.973   1.979  19.339  0.00  0.00    +0.000 OA
ENDBRANCH  18  20
ENDBRANCH  17  18
ENDBRANCH   1  17
TORSDOF 6
ENDMDL
MODEL 3
REMARK VINA RESULT:      -7.5      4.079      8.028
REMARK  Name = 
REMARK  7 active torsions:
REMARK  status: ('A' for Active; 'I' for Inactive)
REMARK    1  A    between atoms: C_1  and  C_2
REMARK    2  A    between atoms: C_2  and  O_4
REMARK    3  A    between atoms: O_4  and  C_5
REMARK    4  A    between atoms: C_5  and  C_6
REMARK    5  A    between atoms: C_10  and  C_11
REMARK    6  A    between atoms: C_15  and  C_16
REMARK    7  A    between atoms: C_16  and  O_18
REMARK                            x       y       z     vdW  Elec       q    Type
REMARK                         _______ _______ _______ _____ _____    ______ ____
ROOT
ATOM      1  C   UNL     1       4.934   4.697  17.912  0.00  0.00    +0.000 A 
ATOM      2  C   UNL     1       4.140   3.627  17.482  0.00  0.00    +0.000 A 
ATOM      3  C   UNL     1       2.755   3.744  17.488  0.00  0.00    +0.000 A 
ATOM      4  C   UNL     1       2.155   4.920  17.918  0.00  0.00    +0.000 A 
ATOM      5  C   UNL     1       2.926   6.017  18.340  0.00  0.00    +0.000 A 
ATOM      6  C   UNL     1       4.318   5.876  18.344  0.00  0.00    +0.000 A 
ENDROOT
BRANCH   5   7
ATOM      7  C   UNL     1       2.288   7.283  18.716  0.00  0.00    +0.000 A 
ATOM      8  C   UNL     1       2.055   8.302  17.776  0.00  0.00    +0.000 A 
ATOM      9  C   UNL     1       1.493   9.510  18.167  0.00  0.00    +0.000 A 
ATOM     10  C   UNL     1       1.139   9.717  19.500  0.00  0.00    +0.000 A 
ATOM     11  C   UNL     1       1.323   8.704  20.455  0.00  0.00    +0.000 A 
ATOM     12  C   UNL     1       1.890   7.497  20.054  0.00  0.00    +0.000 A 
BRANCH  11  13
ATOM     13  C   UNL     1       0.943   9.004  21.867  0.00  0.00    +0.000 C 
ATOM     14  O   UNL     1      -0.212   8.993  22.235  0.00  0.00    +0.000 OA
BRANCH  13  15
ATOM     15  O   UNL     1       1.966   9.243  22.720  0.00  0.00    +0.000 OA
ATOM     16  H   UNL     1       1.796   9.818  23.481  0.00  0.00    +0.000 HD
ENDBRANCH  13  15
ENDBRANCH  11  13
ENDBRANCH   5   7
BRANCH   1  17
ATOM     17  C   UNL     1       6.436   4.605  17.929  0.00  0.00    +0.000 C 
BRANCH  17  18
ATOM     18  O   UNL     1       6.903   4.111  16.671  0.00  0.00    +0.000 OA
BRANCH  18  20
ATOM     19  C   UNL     1       6.235   4.599  14.479  0.00  0.00    +0.000 C 
ATOM     20  C   UNL     1       6.967   5.066  15.701  0.00  0.00    +0.000 C 
ATOM     21  O   UNL     1       7.529   6.144  15.790  0.00  0.00    +0.000 OA
ENDBRANCH  18  20
ENDBRANCH  17  18
ENDBRANCH   1  17
TORSDOF 6
ENDMDL
MODEL 4
REMARK VINA RESULT:      -7.4      4.569      6.428
REMARK  Name = 
REMARK  7 active torsions:
REMARK  status: ('A' for Active; 'I' for Inactive)
REMARK    1  A    between atoms: C_1  and  C_2
REMARK    2  A    between atoms: C_2  and  O_4
REMARK    3  A    between atoms: O_4  and  C_5
REMARK    4  A    between atoms: C_5  and  C_6
REMARK    5  A    between atoms: C_10  and  C_11
REMARK    6  A    between atoms: C_15  and  C_16
REMARK    7  A    between atoms: C_16  and  O_18
REMARK                            x       y       z     vdW  Elec       q    Type
REMARK                         _______ _______ _______ _____ _____    ______ ____
ROOT
ATOM      1  C   UNL     1       1.313   8.484  20.247  0.00  0.00    +0.000 A 
ATOM      2  C   UNL     1       0.969   9.558  19.417  0.00  0.00    +0.000 A 
ATOM      3  C   UNL     1       1.472   9.624  18.123  0.00  0.00    +0.000 A 
ATOM      4  C   UNL     1       2.311   8.625  17.649  0.00  0.00    +0.000 A 
ATOM      5  C   UNL     1       2.661   7.526  18.453  0.00  0.00    +0.000 A 
ATOM      6  C   UNL     1       2.161   7.486  19.759  0.00  0.00    +0.000 A 
ENDROOT
BRANCH   5   7
ATOM      7  C   UNL     1       3.484   6.435  17.918  0.00  0.00    +0.000 A 
ATOM      8  C   UNL     1       4.370   6.635  16.846  0.00  0.00    +0.000 A 
ATOM      9  C   UNL     1       5.103   5.575  16.327  0.00  0.00    +0.000 A 
ATOM     10  C   UNL     1       4.975   4.302  16.880  0.00  0.00    +0.000 A 
ATOM     11  C   UNL     1       4.128   4.079  17.977  0.00  0.00    +0.000 A 
ATOM     12  C   UNL     1       3.395   5.147  18.488  0.00  0.00    +0.000 A 
BRANCH  11  13
ATOM     13  C   UNL     1       4.023   2.685  18.502  0.00  0.00    +0.000 C 
ATOM     14  O   UNL     1       3.217   1.895  18.060  0.00  0.00    +0.000 OA
BRANCH  13  15
ATOM     15  O   UNL     1       4.911   2.343  19.464  0.00  0.00    +0.000 OA
ATOM     16  H   UNL     1       5.273   3.050  20.018  0.00  0.00    +0.000 HD
ENDBRANCH  13  15
ENDBRANCH  11  13
ENDBRANCH   5   7
BRANCH   1  17
ATOM     17  C   UNL     1       0.796   8.383  21.658  0.00  0.00    +0.000 C 
BRANCH  17  18
ATOM     18  O   UNL     1      -0.325   9.254  21.824  0.00  0.00    +0.000 OA
BRANCH  18  20
ATOM     19  C   UNL     1      -1.248  11.108  22.921  0.00  0.00    +0.000 C 
ATOM     20  C   UNL     1      -0.312   9.939  23.002  0.00  0.00    +0.000 C 
ATOM     21  O   UNL     1       0.352   9.664  23.986  0.00  0.00    +0.000 OA
ENDBRANCH  18  20
ENDBRANCH  17  18
ENDBRANCH   1  17
TORSDOF 6
ENDMDL
MODEL 5
REMARK VINA RESULT:      -7.4      1.328      1.600
REMARK  Name = 
REMARK  7 active torsions:
REMARK  status: ('A' for Active; 'I' for Inactive)
REMARK    1  A    between atoms: C_1  and  C_2
REMARK    2  A    between atoms: C_2  and  O_4
REMARK    3  A    between atoms: O_4  and  C_5
REMARK    4  A    between atoms: C_5  and  C_6
REMARK    5  A    between atoms: C_10  and  C_11
REMARK    6  A    between atoms: C_15  and  C_16
REMARK    7  A    between atoms: C_16  and  O_18
REMARK                            x       y       z     vdW  Elec       q    Type
REMARK                         _______ _______ _______ _____ _____    ______ ____
ROOT
ATOM      1  C   UNL     1       3.235   4.456  17.885  0.00  0.00    +0.000 A 
ATOM      2  C   UNL     1       3.202   5.783  18.330  0.00  0.00    +0.000 A 
ATOM      3  C   UNL     1       3.980   6.747  17.698  0.00  0.00    +0.000 A 
ATOM      4  C   UNL     1       4.787   6.399  16.624  0.00  0.00    +0.000 A 
ATOM      5  C   UNL     1       4.828   5.078  16.143  0.00  0.00    +0.000 A 
ATOM      6  C   UNL     1       4.054   4.117  16.802  0.00  0.00    +0.000 A 
ENDROOT
BRANCH   5   7
ATOM      7  C   UNL     1       5.622   4.734  14.958  0.00  0.00    +0.000 A 
ATOM      8  C   UNL     1       6.909   5.260  14.751  0.00  0.00    +0.000 A 
ATOM      9  C   UNL     1       7.620   4.956  13.598  0.00  0.00    +0.000 A 
ATOM     10  C   UNL     1       7.066   4.110  12.638  0.00  0.00    +0.000 A 
ATOM     11  C   UNL     1       5.799   3.537  12.835  0.00  0.00    +0.000 A 
ATOM     12  C   UNL     1       5.092   3.851  13.993  0.00  0.00    +0.000 A 
BRANCH  11  13
ATOM     13  C   UNL     1       5.258   2.660  11.754  0.00  0.00    +0.000 C 
ATOM     14  O   UNL     1       4.234   2.929  11.165  0.00  0.00    +0.000 OA
BRANCH  13  15
ATOM     15  O   UNL     1       6.003   1.575  11.440  0.00  0.00    +0.000 OA
ATOM     16  H   UNL     1       5.845   1.150  10.585  0.00  0.00    +0.000 HD
ENDBRANCH  13  15
ENDBRANCH  11  13
ENDBRANCH   5   7
BRANCH   1  17
ATOM     17  C   UNL     1       2.415   3.383  18.549  0.00  0.00    +0.000 C 
BRANCH  17  18
ATOM     18  O   UNL     1       3.104   2.896  19.704  0.00  0.00    +0.000 OA
BRANCH  18  20
ATOM     19  C   UNL     1       0.945   3.326  20.504  0.00  0.00    +0.000 C 
ATOM     20  C   UNL     1       2.347   2.912  20.836  0.00  0.00    +0.000 C 
ATOM     21  O   UNL     1       2.729   2.637  21.961  0.00  0.00    +0.000 OA
ENDBRANCH  18  20
ENDBRANCH  17  18
ENDBRANCH   1  17
TORSDOF 6
ENDMDL
MODEL 6
REMARK VINA RESULT:      -7.4      2.017      7.084
REMARK  Name = 
REMARK  7 active torsions:
REMARK  status: ('A' for Active; 'I' for Inactive)
REMARK    1  A    between atoms: C_1  and  C_2
REMARK    2  A    between atoms: C_2  and  O_4
REMARK    3  A    between atoms: O_4  and  C_5
REMARK    4  A    between atoms: C_5  and  C_6
REMARK    5  A    between atoms: C_10  and  C_11
REMARK    6  A    between atoms: C_15  and  C_16
REMARK    7  A    between atoms: C_16  and  O_18
REMARK                            x       y       z     vdW  Elec       q    Type
REMARK                         _______ _______ _______ _____ _____    ______ ____
ROOT
ATOM      1  C   UNL     1       6.446   4.386  15.560  0.00  0.00    +0.000 A 
ATOM      2  C   UNL     1       7.504   4.730  16.411  0.00  0.00    +0.000 A 
ATOM      3  C   UNL     1       7.293   4.809  17.783  0.00  0.00    +0.000 A 
ATOM      4  C   UNL     1       6.038   4.544  18.314  0.00  0.00    +0.000 A 
ATOM      5  C   UNL     1       4.961   4.179  17.487  0.00  0.00    +0.000 A 
ATOM      6  C   UNL     1       5.185   4.123  16.107  0.00  0.00    +0.000 A 
ENDROOT
BRANCH   5   7
ATOM      7  C   UNL     1       3.659   3.823  18.062  0.00  0.00    +0.000 A 
ATOM      8  C   UNL     1       2.543   3.552  17.252  0.00  0.00    +0.000 A 
ATOM      9  C   UNL     1       1.310   3.263  17.821  0.00  0.00    +0.000 A 
ATOM     10  C   UNL     1       1.173   3.225  19.208  0.00  0.00    +0.000 A 
ATOM     11  C   UNL     1       2.278   3.453  20.043  0.00  0.00    +0.000 A 
ATOM     12  C   UNL     1       3.510   3.745  19.463  0.00  0.00    +0.000 A 
BRANCH  11  13
ATOM     13  C   UNL     1       2.053   3.421  21.519  0.00  0.00    +0.000 C 
ATOM     14  O   UNL     1       1.527   2.475  22.065  0.00  0.00    +0.000 OA
BRANCH  13  15
ATOM     15  O   UNL     1       2.511   4.487  22.215  0.00  0.00    +0.000 OA
ATOM     16  H   UNL     1       2.545   5.342  21.762  0.00  0.00    +0.000 HD
ENDBRANCH  13  15
ENDBRANCH  11  13
ENDBRANCH   5   7
BRANCH   1  17
ATOM     17  C   UNL     1       6.631   4.300  14.069  0.00  0.00    +0.000 C 
BRANCH  17  18
ATOM     18  O   UNL     1       5.423   3.840  13.458  0.00  0.00    +0.000 OA
BRANCH  18  20
ATOM     19  C   UNL     1       4.332   3.244  11.472  0.00  0.00    +0.000 C 
ATOM     20  C   UNL     1       5.616   3.250  12.246  0.00  0.00    +0.000 C 
ATOM     21  O   UNL     1       6.665   2.787  11.831  0.00  0.00    +0.000 OA
ENDBRANCH  18  20
ENDBRANCH  17  18
ENDBRANCH   1  17
TORSDOF 6
ENDMDL
MODEL 7
REMARK VINA RESULT:      -7.3      1.081      1.385
REMARK  Name = 
REMARK  7 active torsions:
REMARK  status: ('A' for Active; 'I' for Inactive)
REMARK    1  A    between atoms: C_1  and  C_2
REMARK    2  A    between atoms: C_2  and  O_4
REMARK    3  A    between atoms: O_4  and  C_5
REMARK    4  A    between atoms: C_5  and  C_6
REMARK    5  A    between atoms: C_10  and  C_11
REMARK    6  A    between atoms: C_15  and  C_16
REMARK    7  A    between atoms: C_16  and  O_18
REMARK                            x       y       z     vdW  Elec       q    Type
REMARK                         _______ _______ _______ _____ _____    ______ ____
ROOT
ATOM      1  C   UNL     1       4.803   5.041  17.935  0.00  0.00    +0.000 A 
ATOM      2  C   UNL     1       5.873   5.133  18.833  0.00  0.00    +0.000 A 
ATOM      3  C   UNL     1       7.179   5.008  18.373  0.00  0.00    +0.000 A 
ATOM      4  C   UNL     1       7.426   4.796  17.023  0.00  0.00    +0.000 A 
ATOM      5  C   UNL     1       6.374   4.716  16.095  0.00  0.00    +0.000 A 
ATOM      6  C   UNL     1       5.065   4.825  16.578  0.00  0.00    +0.000 A 
ENDROOT
BRANCH   5   7
ATOM      7  C   UNL     1       6.646   4.572  14.660  0.00  0.00    +0.000 A 
ATOM      8  C   UNL     1       7.635   5.334  14.015  0.00  0.00    +0.000 A 
ATOM      9  C   UNL     1       7.841   5.213  12.647  0.00  0.00    +0.000 A 
ATOM     10  C   UNL     1       7.074   4.318  11.902  0.00  0.00    +0.000 A 
ATOM     11  C   UNL     1       6.106   3.514  12.525  0.00  0.00    +0.000 A 
ATOM     12  C   UNL     1       5.904   3.645  13.896  0.00  0.00    +0.000 A 
BRANCH  11  13
ATOM     13  C   UNL     1       5.306   2.596  11.661  0.00  0.00    +0.000 C 
ATOM     14  O   UNL     1       5.707   1.494  11.355  0.00  0.00    +0.000 OA
BRANCH  13  15
ATOM     15  O   UNL     1       4.089   3.048  11.279  0.00  0.00    +0.000 OA
ATOM     16  H   UNL     1       3.793   2.845  10.379  0.00  0.00    +0.000 HD
ENDBRANCH  13  15
ENDBRANCH  11  13
ENDBRANCH   5   7
BRANCH   1  17
ATOM     17  C   UNL     1       3.375   5.161  18.397  0.00  0.00    +0.000 C 
BRANCH  17  18
ATOM     18  O   UNL     1       2.929   3.905  18.914  0.00  0.00    +0.000 OA
BRANCH  18  20
ATOM     19  C   UNL     1       0.936   3.832  20.143  0.00  0.00    +0.000 C 
ATOM     20  C   UNL     1       1.585   3.714  18.797  0.00  0.00    +0.000 C 
ATOM     21  O   UNL     1       0.980   3.481  17.765  0.00  0.00    +0.000 OA
ENDBRANCH  18  20
ENDBRANCH  17  18
ENDBRANCH   1  17
TORSDOF 6
ENDMDL
MODEL 8
REMARK VINA RESULT:      -7.3      1.819      7.095
REMARK  Name = 
REMARK  7 active torsions:
REMARK  status: ('A' for Active; 'I' for Inactive)
REMARK    1  A    between atoms: C_1  and  C_2
REMARK    2  A    between atoms: C_2  and  O_4
REMARK    3  A    between atoms: O_4  and  C_5
REMARK    4  A    between atoms: C_5  and  C_6
REMARK    5  A    between atoms: C_10  and  C_11
REMARK    6  A    between atoms: C_15  and  C_16
REMARK    7  A    between atoms: C_16  and  O_18
REMARK                            x       y       z     vdW  Elec       q    Type
REMARK                         _______ _______ _______ _____ _____    ______ ____
ROOT
ATOM      1  C   UNL     1       6.116   4.826  15.723  0.00  0.00    +0.000 A 
ATOM      2  C   UNL     1       6.753   5.913  16.334  0.00  0.00    +0.000 A 
ATOM      3  C   UNL     1       6.237   6.450  17.507  0.00  0.00    +0.000 A 
ATOM      4  C   UNL     1       5.091   5.912  18.077  0.00  0.00    +0.000 A 
ATOM      5  C   UNL     1       4.439   4.810  17.496  0.00  0.00    +0.000 A 
ATOM      6  C   UNL     1       4.961   4.293  16.306  0.00  0.00    +0.000 A 
ENDROOT
BRANCH   5   7
ATOM      7  C   UNL     1       3.276   4.196  18.147  0.00  0.00    +0.000 A 
ATOM      8  C   UNL     1       2.024   4.126  17.512  0.00  0.00    +0.000 A 
ATOM      9  C   UNL     1       0.928   3.583  18.168  0.00  0.00    +0.000 A 
ATOM     10  C   UNL     1       1.064   3.086  19.463  0.00  0.00    +0.000 A 
ATOM     11  C   UNL     1       2.311   3.106  20.109  0.00  0.00    +0.000 A 
ATOM     12  C   UNL     1       3.404   3.656  19.445  0.00  0.00    +0.000 A 
BRANCH  11  13
ATOM     13  C   UNL     1       2.378   2.579  21.504  0.00  0.00    +0.000 C 
ATOM     14  O   UNL     1       3.406   2.140  21.974  0.00  0.00    +0.000 OA
BRANCH  13  15
ATOM     15  O   UNL     1       1.238   2.663  22.228  0.00  0.00    +0.000 OA
ATOM     16  H   UNL     1       1.298   2.529  23.185  0.00  0.00    +0.000 HD
ENDBRANCH  13  15
ENDBRANCH  11  13
ENDBRANCH   5   7
BRANCH   1  17
ATOM     17  C   UNL     1       6.639   4.222  14.447  0.00  0.00    +0.000 C 
BRANCH  17  18
ATOM     18  O   UNL     1       5.545   3.801  13.628  0.00  0.00    +0.000 OA
BRANCH  18  20
ATOM     19  C   UNL     1       7.154   4.146  11.961  0.00  0.00    +0.000 C 
ATOM     20  C   UNL     1       5.920   3.405  12.380  0.00  0.00    +0.000 C 
ATOM     21  O   UNL     1       5.354   2.576  11.689  0.00  0.00    +0.000 OA
ENDBRANCH  18  20
ENDBRANCH  17  18
ENDBRANCH   1  17
TORSDOF 6
ENDMDL
MODEL 9
REMARK VINA RESULT:      -7.3      2.245      7.229
REMARK  Name = 
REMARK  7 active torsions:
REMARK  status: ('A' for Active; 'I' for Inactive)
REMARK    1  A    between atoms: C_1  and  C_2
REMARK    2  A    between atoms: C_2  and  O_4
REMARK    3  A    between atoms: O_4  and  C_5
REMARK    4  A    between atoms: C_5  and  C_6
REMARK    5  A    between atoms: C_10  and  C_11
REMARK    6  A    between atoms: C_15  and  C_16
REMARK    7  A    between atoms: C_16  and  O_18
REMARK                            x       y       z     vdW  Elec       q    Type
REMARK                         _______ _______ _______ _____ _____    ______ ____
ROOT
ATOM      1  C   UNL     1       6.047   4.976  15.696  0.00  0.00    +0.000 A 
ATOM      2  C   UNL     1       7.290   4.656  16.256  0.00  0.00    +0.000 A 
ATOM      3  C   UNL     1       7.434   4.598  17.637  0.00  0.00    +0.000 A 
ATOM      4  C   UNL     1       6.348   4.853  18.464  0.00  0.00    +0.000 A 
ATOM      5  C   UNL     1       5.084   5.161  17.931  0.00  0.00    +0.000 A 
ATOM      6  C   UNL     1       4.961   5.233  16.539  0.00  0.00    +0.000 A 
ENDROOT
BRANCH   5   7
ATOM      7  C   UNL     1       3.924   5.350  18.808  0.00  0.00    +0.000 A 
ATOM      8  C   UNL     1       3.267   6.589  18.909  0.00  0.00    +0.000 A 
ATOM      9  C   UNL     1       2.200   6.755  19.782  0.00  0.00    +0.000 A 
ATOM     10  C   UNL     1       1.760   5.684  20.559  0.00  0.00    +0.000 A 
ATOM     11  C   UNL     1       2.371   4.424  20.452  0.00  0.00    +0.000 A 
ATOM     12  C   UNL     1       3.442   4.268  19.576  0.00  0.00    +0.000 A 
BRANCH  11  13
ATOM     13  C   UNL     1       1.863   3.330  21.332  0.00  0.00    +0.000 C 
ATOM     14  O   UNL     1       2.493   2.936  22.290  0.00  0.00    +0.000 OA
BRANCH  13  15
ATOM     15  O   UNL     1       0.640   2.838  21.025  0.00  0.00    +0.000 OA
ATOM     16  H   UNL     1       0.198   2.282  21.684  0.00  0.00    +0.000 HD
ENDBRANCH  13  15
ENDBRANCH  11  13
ENDBRANCH   5   7
BRANCH   1  17
ATOM     17  C   UNL     1       5.854   5.058  14.205  0.00  0.00    +0.000 C 
BRANCH  17  18
ATOM     18  O   UNL     1       5.650   3.747  13.672  0.00  0.00    +0.000 OA
BRANCH  18  20
ATOM     19  C   UNL     1       5.605   2.411  11.748  0.00  0.00    +0.000 C 
ATOM     20  C   UNL     1       6.265   3.544  12.474  0.00  0.00    +0.000 C 
ATOM     21  O   UNL     1       7.211   4.176  12.036  0.00  0.00    +0.000 OA
ENDBRANCH  18  20
ENDBRANCH  17  18
ENDBRANCH   1  17
TORSDOF 6
ENDMDL
