MODEL 1
REMARK VINA RESULT:      -6.1      0.000      0.000
REMARK  Name = 
REMARK  7 active torsions:
REMARK  status: ('A' for Active; 'I' for Inactive)
REMARK    1  A    between atoms: C_2  and  O_3
REMARK    2  A    between atoms: C_2  and  C_25
REMARK    3  A    between atoms: O_3  and  C_4
REMARK    4  A    between atoms: C_11  and  C_12
REMARK    5  A    between atoms: C_12  and  C_13
REMARK    6  A    between atoms: C_12  and  C_19
REMARK    7  A    between atoms: C_30  and  C_31
REMARK                            x       y       z     vdW  Elec       q    Type
REMARK                         _______ _______ _______ _____ _____    ______ ____
ROOT
ATOM      1  C   UNL     1      -4.271  11.598  18.974  0.00  0.00    +0.000 C 
ATOM      2  C   UNL     1      -5.311  11.415  17.843  0.00  0.00    +0.000 C 
ATOM      3  C   UNL     1      -6.426  10.478  18.345  0.00  0.00    +0.000 C 
ATOM      4  C   UNL     1      -7.079  11.079  19.593  0.00  0.00    +0.000 C 
ATOM      5  N   UNL     1      -6.477  12.382  19.932  0.00  0.00    +0.000 NA
ATOM      6  C   UNL     1      -6.662  13.295  18.787  0.00  0.00    +0.000 C 
ATOM      7  C   UNL     1      -5.930  12.786  17.542  0.00  0.00    +0.000 C 
ATOM      8  C   UNL     1      -5.001  12.197  20.243  0.00  0.00    +0.000 C 
ENDROOT
BRANCH   1   9
ATOM      9  O   UNL     1      -3.163  12.372  18.473  0.00  0.00    +0.000 OA
BRANCH   9  11
ATOM     10  O   UNL     1      -2.061  10.666  17.381  0.00  0.00    +0.000 OA
ATOM     11  C   UNL     1      -2.060  11.655  18.092  0.00  0.00    +0.000 C 
BRANCH  11  12
ATOM     12  C   UNL     1      -0.810  12.279  18.614  0.00  0.00    +0.000 A 
ATOM     13  C   UNL     1      -0.662  13.667  18.434  0.00  0.00    +0.000 A 
ATOM     14  C   UNL     1       0.527  14.317  18.765  0.00  0.00    +0.000 A 
ATOM     15  C   UNL     1       1.594  13.595  19.274  0.00  0.00    +0.000 A 
ATOM     16  C   UNL     1       1.457  12.224  19.482  0.00  0.00    +0.000 A 
ATOM     17  C   UNL     1       0.254  11.542  19.175  0.00  0.00    +0.000 A 
BRANCH  17  18
ATOM     18  C   UNL     1       0.232  10.070  19.517  0.00  0.00    +0.000 C 
ATOM     19  F   UNL     1      -0.907   9.578  20.057  0.00  0.00    +0.000 F 
ATOM     20  F   UNL     1       0.533   9.286  18.443  0.00  0.00    +0.000 F 
ATOM     21  F   UNL     1       1.198   9.776  20.444  0.00  0.00    +0.000 F 
ENDBRANCH  17  18
ENDBRANCH  11  12
ENDBRANCH   9  11
ENDBRANCH   1   9
BRANCH   8  22
ATOM     22  C   UNL     1      -4.433  13.471  21.009  0.00  0.00    +0.000 C 
BRANCH  22  23
ATOM     23  C   UNL     1      -5.470  13.879  22.089  0.00  0.00    +0.000 A 
ATOM     24  C   UNL     1      -5.823  12.989  23.117  0.00  0.00    +0.000 A 
ATOM     25  C   UNL     1      -6.848  13.295  24.020  0.00  0.00    +0.000 A 
ATOM     26  C   UNL     1      -7.517  14.514  23.913  0.00  0.00    +0.000 A 
ATOM     27  C   UNL     1      -7.149  15.430  22.933  0.00  0.00    +0.000 A 
ATOM     28  C   UNL     1      -6.128  15.120  22.024  0.00  0.00    +0.000 A 
ENDBRANCH  22  23
BRANCH  22  29
ATOM     29  C   UNL     1      -3.018  13.473  21.608  0.00  0.00    +0.000 A 
ATOM     30  C   UNL     1      -2.344  12.330  22.046  0.00  0.00    +0.000 A 
ATOM     31  C   UNL     1      -0.991  12.379  22.397  0.00  0.00    +0.000 A 
ATOM     32  C   UNL     1      -0.310  13.592  22.406  0.00  0.00    +0.000 A 
ATOM     33  C   UNL     1      -0.984  14.760  22.072  0.00  0.00    +0.000 A 
ATOM     34  C   UNL     1      -2.317  14.698  21.661  0.00  0.00    +0.000 A 
ENDBRANCH  22  29
ENDBRANCH   8  22
TORSDOF 7
ENDMDL
MODEL 2
REMARK VINA RESULT:      -6.0      1.573      2.275
REMARK  Name = 
REMARK  7 active torsions:
REMARK  status: ('A' for Active; 'I' for Inactive)
REMARK    1  A    between atoms: C_2  and  O_3
REMARK    2  A    between atoms: C_2  and  C_25
REMARK    3  A    between atoms: O_3  and  C_4
REMARK    4  A    between atoms: C_11  and  C_12
REMARK    5  A    between atoms: C_12  and  C_13
REMARK    6  A    between atoms: C_12  and  C_19
REMARK    7  A    between atoms: C_30  and  C_31
REMARK                            x       y       z     vdW  Elec       q    Type
REMARK                         _______ _______ _______ _____ _____    ______ ____
ROOT
ATOM      1  C   UNL     1      -4.334  11.675  19.282  0.00  0.00    +0.000 C 
ATOM      2  C   UNL     1      -5.217  11.456  18.031  0.00  0.00    +0.000 C 
ATOM      3  C   UNL     1      -6.380  10.518  18.406  0.00  0.00    +0.000 C 
ATOM      4  C   UNL     1      -7.194  11.138  19.545  0.00  0.00    +0.000 C 
ATOM      5  N   UNL     1      -6.652  12.455  19.930  0.00  0.00    +0.000 NA
ATOM      6  C   UNL     1      -6.695  13.341  18.750  0.00  0.00    +0.000 C 
ATOM      7  C   UNL     1      -5.804  12.814  17.622  0.00  0.00    +0.000 C 
ATOM      8  C   UNL     1      -5.227  12.293  20.433  0.00  0.00    +0.000 C 
ENDROOT
BRANCH   1   9
ATOM      9  O   UNL     1      -3.177  12.451  18.912  0.00  0.00    +0.000 OA
BRANCH   9  11
ATOM     10  O   UNL     1      -2.134  11.532  17.072  0.00  0.00    +0.000 OA
ATOM     11  C   UNL     1      -2.182  11.766  18.267  0.00  0.00    +0.000 C 
BRANCH  11  12
ATOM     12  C   UNL     1      -1.098  11.377  19.215  0.00  0.00    +0.000 A 
ATOM     13  C   UNL     1      -1.150  10.075  19.747  0.00  0.00    +0.000 A 
ATOM     14  C   UNL     1      -0.261   9.665  20.741  0.00  0.00    +0.000 A 
ATOM     15  C   UNL     1       0.689  10.547  21.230  0.00  0.00    +0.000 A 
ATOM     16  C   UNL     1       0.770  11.832  20.697  0.00  0.00    +0.000 A 
ATOM     17  C   UNL     1      -0.105  12.268  19.672  0.00  0.00    +0.000 A 
BRANCH  17  18
ATOM     18  C   UNL     1       0.146  13.663  19.148  0.00  0.00    +0.000 C 
ATOM     19  F   UNL     1      -0.925  14.482  19.031  0.00  0.00    +0.000 F 
ATOM     20  F   UNL     1       1.077  14.331  19.885  0.00  0.00    +0.000 F 
ATOM     21  F   UNL     1       0.672  13.615  17.883  0.00  0.00    +0.000 F 
ENDBRANCH  17  18
ENDBRANCH  11  12
ENDBRANCH   9  11
ENDBRANCH   1   9
BRANCH   8  22
ATOM     22  C   UNL     1      -4.774  13.589  21.237  0.00  0.00    +0.000 C 
BRANCH  22  23
ATOM     23  C   UNL     1      -5.822  13.848  22.352  0.00  0.00    +0.000 A 
ATOM     24  C   UNL     1      -6.304  12.791  23.142  0.00  0.00    +0.000 A 
ATOM     25  C   UNL     1      -7.340  12.990  24.063  0.00  0.00    +0.000 A 
ATOM     26  C   UNL     1      -7.890  14.262  24.216  0.00  0.00    +0.000 A 
ATOM     27  C   UNL     1      -7.392  15.332  23.479  0.00  0.00    +0.000 A 
ATOM     28  C   UNL     1      -6.359  15.131  22.552  0.00  0.00    +0.000 A 
ENDBRANCH  22  23
BRANCH  22  29
ATOM     29  C   UNL     1      -3.353  13.714  21.808  0.00  0.00    +0.000 A 
ATOM     30  C   UNL     1      -2.569  14.868  21.731  0.00  0.00    +0.000 A 
ATOM     31  C   UNL     1      -1.368  14.974  22.440  0.00  0.00    +0.000 A 
ATOM     32  C   UNL     1      -0.881  13.891  23.166  0.00  0.00    +0.000 A 
ATOM     33  C   UNL     1      -1.591  12.697  23.176  0.00  0.00    +0.000 A 
ATOM     34  C   UNL     1      -2.820  12.616  22.520  0.00  0.00    +0.000 A 
ENDBRANCH  22  29
ENDBRANCH   8  22
TORSDOF 7
ENDMDL
MODEL 3
REMARK VINA RESULT:      -6.0      0.459      1.408
REMARK  Name = 
REMARK  7 active torsions:
REMARK  status: ('A' for Active; 'I' for Inactive)
REMARK    1  A    between atoms: C_2  and  O_3
REMARK    2  A    between atoms: C_2  and  C_25
REMARK    3  A    between atoms: O_3  and  C_4
REMARK    4  A    between atoms: C_11  and  C_12
REMARK    5  A    between atoms: C_12  and  C_13
REMARK    6  A    between atoms: C_12  and  C_19
REMARK    7  A    between atoms: C_30  and  C_31
REMARK                            x       y       z     vdW  Elec       q    Type
REMARK                         _______ _______ _______ _____ _____    ______ ____
ROOT
ATOM      1  C   UNL     1      -4.079  11.526  18.996  0.00  0.00    +0.000 C 
ATOM      2  C   UNL     1      -5.054  11.170  17.848  0.00  0.00    +0.000 C 
ATOM      3  C   UNL     1      -6.153  10.245  18.404  0.00  0.00    +0.000 C 
ATOM      4  C   UNL     1      -6.891  10.951  19.545  0.00  0.00    +0.000 C 
ATOM      5  N   UNL     1      -6.360  12.310  19.761  0.00  0.00    +0.000 NA
ATOM      6  C   UNL     1      -6.525  13.079  18.511  0.00  0.00    +0.000 C 
ATOM      7  C   UNL     1      -5.713  12.469  17.366  0.00  0.00    +0.000 C 
ATOM      8  C   UNL     1      -4.895  12.229  20.155  0.00  0.00    +0.000 C 
ENDROOT
BRANCH   1   9
ATOM      9  O   UNL     1      -2.980  12.290  18.460  0.00  0.00    +0.000 OA
BRANCH   9  11
ATOM     10  O   UNL     1      -1.697  10.544  17.671  0.00  0.00    +0.000 OA
ATOM     11  C   UNL     1      -1.813  11.600  18.268  0.00  0.00    +0.000 C 
BRANCH  11  12
ATOM     12  C   UNL     1      -0.652  12.342  18.839  0.00  0.00    +0.000 A 
ATOM     13  C   UNL     1      -0.498  13.686  18.451  0.00  0.00    +0.000 A 
ATOM     14  C   UNL     1       0.627  14.422  18.824  0.00  0.00    +0.000 A 
ATOM     15  C   UNL     1       1.624  13.829  19.580  0.00  0.00    +0.000 A 
ATOM     16  C   UNL     1       1.477  12.506  19.993  0.00  0.00    +0.000 A 
ATOM     17  C   UNL     1       0.334  11.743  19.648  0.00  0.00    +0.000 A 
BRANCH  17  18
ATOM     18  C   UNL     1       0.284  10.347  20.224  0.00  0.00    +0.000 C 
ATOM     19  F   UNL     1       0.525   9.319  19.376  0.00  0.00    +0.000 F 
ATOM     20  F   UNL     1       1.128  10.194  21.283  0.00  0.00    +0.000 F 
ATOM     21  F   UNL     1      -0.963  10.078  20.730  0.00  0.00    +0.000 F 
ENDBRANCH  17  18
ENDBRANCH  11  12
ENDBRANCH   9  11
ENDBRANCH   1   9
BRANCH   8  22
ATOM     22  C   UNL     1      -4.417  13.606  20.795  0.00  0.00    +0.000 C 
BRANCH  22  23
ATOM     23  C   UNL     1      -5.479  14.037  21.842  0.00  0.00    +0.000 A 
ATOM     24  C   UNL     1      -6.090  15.300  21.765  0.00  0.00    +0.000 A 
ATOM     25  C   UNL     1      -6.954  15.749  22.772  0.00  0.00    +0.000 A 
ATOM     26  C   UNL     1      -7.230  14.922  23.860  0.00  0.00    +0.000 A 
ATOM     27  C   UNL     1      -6.674  13.649  23.930  0.00  0.00    +0.000 A 
ATOM     28  C   UNL     1      -5.804  13.202  22.925  0.00  0.00    +0.000 A 
ENDBRANCH  22  23
BRANCH  22  29
ATOM     29  C   UNL     1      -3.006  13.763  21.380  0.00  0.00    +0.000 A 
ATOM     30  C   UNL     1      -2.258  14.943  21.333  0.00  0.00    +0.000 A 
ATOM     31  C   UNL     1      -1.066  15.072  22.053  0.00  0.00    +0.000 A 
ATOM     32  C   UNL     1      -0.550  13.990  22.761  0.00  0.00    +0.000 A 
ATOM     33  C   UNL     1      -1.222  12.775  22.741  0.00  0.00    +0.000 A 
ATOM     34  C   UNL     1      -2.443  12.668  22.073  0.00  0.00    +0.000 A 
ENDBRANCH  22  29
ENDBRANCH   8  22
TORSDOF 7
ENDMDL
MODEL 4
REMARK VINA RESULT:      -5.9      3.134      7.198
REMARK  Name = 
REMARK  7 active torsions:
REMARK  status: ('A' for Active; 'I' for Inactive)
REMARK    1  A    between atoms: C_2  and  O_3
REMARK    2  A    between atoms: C_2  and  C_25
REMARK    3  A    between atoms: O_3  and  C_4
REMARK    4  A    between atoms: C_11  and  C_12
REMARK    5  A    between atoms: C_12  and  C_13
REMARK    6  A    between atoms: C_12  and  C_19
REMARK    7  A    between atoms: C_30  and  C_31
REMARK                            x       y       z     vdW  Elec       q    Type
REMARK                         _______ _______ _______ _____ _____    ______ ____
ROOT
ATOM      1  C   UNL     1      -2.378  12.302  21.567  0.00  0.00    +0.000 C 
ATOM      2  C   UNL     1      -1.127  13.104  22.000  0.00  0.00    +0.000 C 
ATOM      3  C   UNL     1       0.129  12.284  21.650  0.00  0.00    +0.000 C 
ATOM      4  C   UNL     1       0.157  12.004  20.145  0.00  0.00    +0.000 C 
ATOM      5  N   UNL     1      -1.000  12.618  19.468  0.00  0.00    +0.000 NA
ATOM      6  C   UNL     1      -0.959  14.076  19.703  0.00  0.00    +0.000 C 
ATOM      7  C   UNL     1      -1.096  14.407  21.191  0.00  0.00    +0.000 C 
ATOM      8  C   UNL     1      -2.287  12.020  20.012  0.00  0.00    +0.000 C 
ENDROOT
BRANCH   1   9
ATOM      9  O   UNL     1      -3.560  13.004  22.000  0.00  0.00    +0.000 OA
BRANCH   9  11
ATOM     10  O   UNL     1      -3.517  11.881  24.013  0.00  0.00    +0.000 OA
ATOM     11  C   UNL     1      -4.049  12.646  23.228  0.00  0.00    +0.000 C 
BRANCH  11  12
ATOM     12  C   UNL     1      -5.319  13.367  23.531  0.00  0.00    +0.000 A 
ATOM     13  C   UNL     1      -6.482  12.586  23.666  0.00  0.00    +0.000 A 
ATOM     14  C   UNL     1      -7.737  13.178  23.815  0.00  0.00    +0.000 A 
ATOM     15  C   UNL     1      -7.857  14.558  23.822  0.00  0.00    +0.000 A 
ATOM     16  C   UNL     1      -6.712  15.346  23.713  0.00  0.00    +0.000 A 
ATOM     17  C   UNL     1      -5.424  14.772  23.583  0.00  0.00    +0.000 A 
BRANCH  17  18
ATOM     18  C   UNL     1      -4.274  15.751  23.543  0.00  0.00    +0.000 C 
ATOM     19  F   UNL     1      -4.507  16.999  24.013  0.00  0.00    +0.000 F 
ATOM     20  F   UNL     1      -3.173  15.282  24.196  0.00  0.00    +0.000 F 
ATOM     21  F   UNL     1      -3.855  15.951  22.253  0.00  0.00    +0.000 F 
ENDBRANCH  17  18
ENDBRANCH  11  12
ENDBRANCH   9  11
ENDBRANCH   1   9
BRANCH   8  22
ATOM     22  C   UNL     1      -3.501  12.336  19.034  0.00  0.00    +0.000 C 
BRANCH  22  23
ATOM     23  C   UNL     1      -3.395  11.377  17.818  0.00  0.00    +0.000 A 
ATOM     24  C   UNL     1      -2.424  10.361  17.789  0.00  0.00    +0.000 A 
ATOM     25  C   UNL     1      -2.235   9.573  16.647  0.00  0.00    +0.000 A 
ATOM     26  C   UNL     1      -3.037   9.783  15.526  0.00  0.00    +0.000 A 
ATOM     27  C   UNL     1      -4.037  10.750  15.553  0.00  0.00    +0.000 A 
ATOM     28  C   UNL     1      -4.221  11.544  16.694  0.00  0.00    +0.000 A 
ENDBRANCH  22  23
BRANCH  22  29
ATOM     29  C   UNL     1      -4.948  12.377  19.549  0.00  0.00    +0.000 A 
ATOM     30  C   UNL     1      -5.670  13.549  19.785  0.00  0.00    +0.000 A 
ATOM     31  C   UNL     1      -7.040  13.510  20.066  0.00  0.00    +0.000 A 
ATOM     32  C   UNL     1      -7.695  12.291  20.207  0.00  0.00    +0.000 A 
ATOM     33  C   UNL     1      -6.978  11.108  20.078  0.00  0.00    +0.000 A 
ATOM     34  C   UNL     1      -5.625  11.151  19.736  0.00  0.00    +0.000 A 
ENDBRANCH  22  29
ENDBRANCH   8  22
TORSDOF 7
ENDMDL
MODEL 5
REMARK VINA RESULT:      -5.8      2.559      6.165
REMARK  Name = 
REMARK  7 active torsions:
REMARK  status: ('A' for Active; 'I' for Inactive)
REMARK    1  A    between atoms: C_2  and  O_3
REMARK    2  A    between atoms: C_2  and  C_25
REMARK    3  A    between atoms: O_3  and  C_4
REMARK    4  A    between atoms: C_11  and  C_12
REMARK    5  A    between atoms: C_12  and  C_13
REMARK    6  A    between atoms: C_12  and  C_19
REMARK    7  A    between atoms: C_30  and  C_31
REMARK                            x       y       z     vdW  Elec       q    Type
REMARK                         _______ _______ _______ _____ _____    ______ ____
ROOT
ATOM      1  C   UNL     1      -3.190  12.144  18.660  0.00  0.00    +0.000 C 
ATOM      2  C   UNL     1      -4.281  11.233  18.048  0.00  0.00    +0.000 C 
ATOM      3  C   UNL     1      -4.387  11.535  16.541  0.00  0.00    +0.000 C 
ATOM      4  C   UNL     1      -3.032  11.288  15.870  0.00  0.00    +0.000 C 
ATOM      5  N   UNL     1      -2.036  10.809  16.846  0.00  0.00    +0.000 NA
ATOM      6  C   UNL     1      -2.531   9.552  17.442  0.00  0.00    +0.000 C 
ATOM      7  C   UNL     1      -3.831   9.776  18.219  0.00  0.00    +0.000 C 
ATOM      8  C   UNL     1      -1.820  11.866  17.917  0.00  0.00    +0.000 C 
ENDROOT
BRANCH   1   9
ATOM      9  O   UNL     1      -3.168  11.956  20.089  0.00  0.00    +0.000 OA
BRANCH   9  11
ATOM     10  O   UNL     1      -2.880  14.086  20.925  0.00  0.00    +0.000 OA
ATOM     11  C   UNL     1      -3.515  13.049  20.838  0.00  0.00    +0.000 C 
BRANCH  11  12
ATOM     12  C   UNL     1      -4.829  12.842  21.511  0.00  0.00    +0.000 A 
ATOM     13  C   UNL     1      -5.977  12.867  20.696  0.00  0.00    +0.000 A 
ATOM     14  C   UNL     1      -7.257  12.818  21.248  0.00  0.00    +0.000 A 
ATOM     15  C   UNL     1      -7.419  12.754  22.621  0.00  0.00    +0.000 A 
ATOM     16  C   UNL     1      -6.293  12.704  23.443  0.00  0.00    +0.000 A 
ATOM     17  C   UNL     1      -4.982  12.730  22.908  0.00  0.00    +0.000 A 
BRANCH  17  18
ATOM     18  C   UNL     1      -3.863  12.602  23.916  0.00  0.00    +0.000 C 
ATOM     19  F   UNL     1      -2.963  11.611  23.718  0.00  0.00    +0.000 F 
ATOM     20  F   UNL     1      -3.155  13.759  24.052  0.00  0.00    +0.000 F 
ATOM     21  F   UNL     1      -4.367  12.353  25.167  0.00  0.00    +0.000 F 
ENDBRANCH  17  18
ENDBRANCH  11  12
ENDBRANCH   9  11
ENDBRANCH   1   9
BRANCH   8  22
ATOM     22  C   UNL     1      -0.479  11.574  18.721  0.00  0.00    +0.000 C 
BRANCH  22  23
ATOM     23  C   UNL     1       0.312  12.906  18.826  0.00  0.00    +0.000 A 
ATOM     24  C   UNL     1      -0.351  14.142  18.744  0.00  0.00    +0.000 A 
ATOM     25  C   UNL     1       0.363  15.346  18.709  0.00  0.00    +0.000 A 
ATOM     26  C   UNL     1       1.755  15.322  18.779  0.00  0.00    +0.000 A 
ATOM     27  C   UNL     1       2.428  14.111  18.910  0.00  0.00    +0.000 A 
ATOM     28  C   UNL     1       1.713  12.905  18.938  0.00  0.00    +0.000 A 
ENDBRANCH  22  23
BRANCH  22  29
ATOM     29  C   UNL     1      -0.507  10.869  20.085  0.00  0.00    +0.000 A 
ATOM     30  C   UNL     1      -0.524   9.482  20.257  0.00  0.00    +0.000 A 
ATOM     31  C   UNL     1      -0.352   8.908  21.521  0.00  0.00    +0.000 A 
ATOM     32  C   UNL     1      -0.253   9.713  22.652  0.00  0.00    +0.000 A 
ATOM     33  C   UNL     1      -0.336  11.094  22.521  0.00  0.00    +0.000 A 
ATOM     34  C   UNL     1      -0.443  11.664  21.251  0.00  0.00    +0.000 A 
ENDBRANCH  22  29
ENDBRANCH   8  22
TORSDOF 7
ENDMDL
MODEL 6
REMARK VINA RESULT:      -5.8      3.129      7.186
REMARK  Name = 
REMARK  7 active torsions:
REMARK  status: ('A' for Active; 'I' for Inactive)
REMARK    1  A    between atoms: C_2  and  O_3
REMARK    2  A    between atoms: C_2  and  C_25
REMARK    3  A    between atoms: O_3  and  C_4
REMARK    4  A    between atoms: C_11  and  C_12
REMARK    5  A    between atoms: C_12  and  C_13
REMARK    6  A    between atoms: C_12  and  C_19
REMARK    7  A    between atoms: C_30  and  C_31
REMARK                            x       y       z     vdW  Elec       q    Type
REMARK                         _______ _______ _______ _____ _____    ______ ____
ROOT
ATOM      1  C   UNL     1      -2.484  12.343  21.625  0.00  0.00    +0.000 C 
ATOM      2  C   UNL     1      -1.276  13.158  22.145  0.00  0.00    +0.000 C 
ATOM      3  C   UNL     1       0.016  12.375  21.841  0.00  0.00    +0.000 C 
ATOM      4  C   UNL     1       0.129  12.136  20.333  0.00  0.00    +0.000 C 
ATOM      5  N   UNL     1      -1.005  12.745  19.612  0.00  0.00    +0.000 NA
ATOM      6  C   UNL     1      -1.008  14.196  19.886  0.00  0.00    +0.000 C 
ATOM      7  C   UNL     1      -1.231  14.484  21.373  0.00  0.00    +0.000 C 
ATOM      8  C   UNL     1      -2.304  12.105  20.071  0.00  0.00    +0.000 C 
ENDROOT
BRANCH   1   9
ATOM      9  O   UNL     1      -3.702  13.008  22.013  0.00  0.00    +0.000 OA
BRANCH   9  11
ATOM     10  O   UNL     1      -3.636  11.968  24.070  0.00  0.00    +0.000 OA
ATOM     11  C   UNL     1      -4.168  12.715  23.267  0.00  0.00    +0.000 C 
BRANCH  11  12
ATOM     12  C   UNL     1      -5.408  13.484  23.572  0.00  0.00    +0.000 A 
ATOM     13  C   UNL     1      -6.554  12.741  23.914  0.00  0.00    +0.000 A 
ATOM     14  C   UNL     1      -7.793  13.360  24.084  0.00  0.00    +0.000 A 
ATOM     15  C   UNL     1      -7.915  14.728  23.906  0.00  0.00    +0.000 A 
ATOM     16  C   UNL     1      -6.786  15.483  23.591  0.00  0.00    +0.000 A 
ATOM     17  C   UNL     1      -5.512  14.883  23.434  0.00  0.00    +0.000 A 
BRANCH  17  18
ATOM     18  C   UNL     1      -4.372  15.836  23.159  0.00  0.00    +0.000 C 
ATOM     19  F   UNL     1      -3.201  15.599  23.797  0.00  0.00    +0.000 F 
ATOM     20  F   UNL     1      -4.087  15.931  21.830  0.00  0.00    +0.000 F 
ATOM     21  F   UNL     1      -4.707  17.111  23.536  0.00  0.00    +0.000 F 
ENDBRANCH  17  18
ENDBRANCH  11  12
ENDBRANCH   9  11
ENDBRANCH   1   9
BRANCH   8  22
ATOM     22  C   UNL     1      -3.473  12.422  19.037  0.00  0.00    +0.000 C 
BRANCH  22  23
ATOM     23  C   UNL     1      -3.268  11.514  17.796  0.00  0.00    +0.000 A 
ATOM     24  C   UNL     1      -4.080  11.660  16.658  0.00  0.00    +0.000 A 
ATOM     25  C   UNL     1      -3.989  10.766  15.584  0.00  0.00    +0.000 A 
ATOM     26  C   UNL     1      -3.063   9.725  15.632  0.00  0.00    +0.000 A 
ATOM     27  C   UNL     1      -2.215   9.593  16.728  0.00  0.00    +0.000 A 
ATOM     28  C   UNL     1      -2.311  10.484  17.806  0.00  0.00    +0.000 A 
ENDBRANCH  22  23
BRANCH  22  29
ATOM     29  C   UNL     1      -4.946  12.399  19.471  0.00  0.00    +0.000 A 
ATOM     30  C   UNL     1      -5.647  11.244  19.826  0.00  0.00    +0.000 A 
ATOM     31  C   UNL     1      -6.922  11.319  20.396  0.00  0.00    +0.000 A 
ATOM     32  C   UNL     1      -7.559  12.548  20.537  0.00  0.00    +0.000 A 
ATOM     33  C   UNL     1      -6.925  13.703  20.098  0.00  0.00    +0.000 A 
ATOM     34  C   UNL     1      -5.627  13.631  19.588  0.00  0.00    +0.000 A 
ENDBRANCH  22  29
ENDBRANCH   8  22
TORSDOF 7
ENDMDL
MODEL 7
REMARK VINA RESULT:      -5.8      9.279     11.978
REMARK  Name = 
REMARK  7 active torsions:
REMARK  status: ('A' for Active; 'I' for Inactive)
REMARK    1  A    between atoms: C_2  and  O_3
REMARK    2  A    between atoms: C_2  and  C_25
REMARK    3  A    between atoms: O_3  and  C_4
REMARK    4  A    between atoms: C_11  and  C_12
REMARK    5  A    between atoms: C_12  and  C_13
REMARK    6  A    between atoms: C_12  and  C_19
REMARK    7  A    between atoms: C_30  and  C_31
REMARK                            x       y       z     vdW  Elec       q    Type
REMARK                         _______ _______ _______ _____ _____    ______ ____
ROOT
ATOM      1  C   UNL     1       6.345  15.092  20.522  0.00  0.00    +0.000 C 
ATOM      2  C   UNL     1       5.331  16.250  20.674  0.00  0.00    +0.000 C 
ATOM      3  C   UNL     1       3.927  15.652  20.889  0.00  0.00    +0.000 C 
ATOM      4  C   UNL     1       3.932  14.765  22.138  0.00  0.00    +0.000 C 
ATOM      5  N   UNL     1       5.258  14.764  22.784  0.00  0.00    +0.000 NA
ATOM      6  C   UNL     1       5.597  16.151  23.158  0.00  0.00    +0.000 C 
ATOM      7  C   UNL     1       5.712  17.052  21.926  0.00  0.00    +0.000 C 
ATOM      8  C   UNL     1       6.292  14.195  21.826  0.00  0.00    +0.000 C 
ENDROOT
BRANCH   1   9
ATOM      9  O   UNL     1       7.639  15.638  20.199  0.00  0.00    +0.000 OA
BRANCH   9  11
ATOM     10  O   UNL     1       7.429  16.979  18.335  0.00  0.00    +0.000 OA
ATOM     11  C   UNL     1       7.834  15.970  18.884  0.00  0.00    +0.000 C 
BRANCH  11  12
ATOM     12  C   UNL     1       8.676  14.951  18.194  0.00  0.00    +0.000 A 
ATOM     13  C   UNL     1       8.096  13.689  17.966  0.00  0.00    +0.000 A 
ATOM     14  C   UNL     1       8.845  12.631  17.451  0.00  0.00    +0.000 A 
ATOM     15  C   UNL     1      10.188  12.808  17.162  0.00  0.00    +0.000 A 
ATOM     16  C   UNL     1      10.773  14.058  17.359  0.00  0.00    +0.000 A 
ATOM     17  C   UNL     1      10.030  15.155  17.860  0.00  0.00    +0.000 A 
BRANCH  17  18
ATOM     18  C   UNL     1      10.782  16.462  17.956  0.00  0.00    +0.000 C 
ATOM     19  F   UNL     1      10.781  17.089  19.156  0.00  0.00    +0.000 F 
ATOM     20  F   UNL     1      12.085  16.338  17.575  0.00  0.00    +0.000 F 
ATOM     21  F   UNL     1      10.253  17.387  17.094  0.00  0.00    +0.000 F 
ENDBRANCH  17  18
ENDBRANCH  11  12
ENDBRANCH   9  11
ENDBRANCH   1   9
BRANCH   8  22
ATOM     22  C   UNL     1       7.614  13.790  22.614  0.00  0.00    +0.000 C 
BRANCH  22  23
ATOM     23  C   UNL     1       7.186  13.033  23.899  0.00  0.00    +0.000 A 
ATOM     24  C   UNL     1       7.760  13.349  25.143  0.00  0.00    +0.000 A 
ATOM     25  C   UNL     1       7.477  12.590  26.285  0.00  0.00    +0.000 A 
ATOM     26  C   UNL     1       6.595  11.514  26.194  0.00  0.00    +0.000 A 
ATOM     27  C   UNL     1       5.978  11.215  24.983  0.00  0.00    +0.000 A 
ATOM     28  C   UNL     1       6.267  11.971  23.838  0.00  0.00    +0.000 A 
ENDBRANCH  22  23
BRANCH  22  29
ATOM     29  C   UNL     1       8.758  13.041  21.915  0.00  0.00    +0.000 A 
ATOM     30  C   UNL     1       8.708  11.696  21.538  0.00  0.00    +0.000 A 
ATOM     31  C   UNL     1       9.705  11.133  20.735  0.00  0.00    +0.000 A 
ATOM     32  C   UNL     1      10.820  11.881  20.369  0.00  0.00    +0.000 A 
ATOM     33  C   UNL     1      10.945  13.191  20.816  0.00  0.00    +0.000 A 
ATOM     34  C   UNL     1       9.917  13.768  21.564  0.00  0.00    +0.000 A 
ENDBRANCH  22  29
ENDBRANCH   8  22
TORSDOF 7
ENDMDL
MODEL 8
REMARK VINA RESULT:      -5.8      2.803      5.672
REMARK  Name = 
REMARK  7 active torsions:
REMARK  status: ('A' for Active; 'I' for Inactive)
REMARK    1  A    between atoms: C_2  and  O_3
REMARK    2  A    between atoms: C_2  and  C_25
REMARK    3  A    between atoms: O_3  and  C_4
REMARK    4  A    between atoms: C_11  and  C_12
REMARK    5  A    between atoms: C_12  and  C_13
REMARK    6  A    between atoms: C_12  and  C_19
REMARK    7  A    between atoms: C_30  and  C_31
REMARK                            x       y       z     vdW  Elec       q    Type
REMARK                         _______ _______ _______ _____ _____    ______ ____
ROOT
ATOM      1  C   UNL     1      -3.160  12.190  18.611  0.00  0.00    +0.000 C 
ATOM      2  C   UNL     1      -4.268  11.289  18.016  0.00  0.00    +0.000 C 
ATOM      3  C   UNL     1      -4.362  11.556  16.502  0.00  0.00    +0.000 C 
ATOM      4  C   UNL     1      -3.010  11.263  15.844  0.00  0.00    +0.000 C 
ATOM      5  N   UNL     1      -2.028  10.786  16.836  0.00  0.00    +0.000 NA
ATOM      6  C   UNL     1      -2.555   9.555  17.460  0.00  0.00    +0.000 C 
ATOM      7  C   UNL     1      -3.853   9.827  18.225  0.00  0.00    +0.000 C 
ATOM      8  C   UNL     1      -1.794  11.864  17.881  0.00  0.00    +0.000 C 
ENDROOT
BRANCH   1   9
ATOM      9  O   UNL     1      -3.149  12.038  20.044  0.00  0.00    +0.000 OA
BRANCH   9  11
ATOM     10  O   UNL     1      -5.265  12.637  20.736  0.00  0.00    +0.000 OA
ATOM     11  C   UNL     1      -4.057  12.798  20.731  0.00  0.00    +0.000 C 
BRANCH  11  12
ATOM     12  C   UNL     1      -3.374  13.842  21.547  0.00  0.00    +0.000 A 
ATOM     13  C   UNL     1      -2.761  14.901  20.850  0.00  0.00    +0.000 A 
ATOM     14  C   UNL     1      -1.985  15.850  21.514  0.00  0.00    +0.000 A 
ATOM     15  C   UNL     1      -1.797  15.759  22.883  0.00  0.00    +0.000 A 
ATOM     16  C   UNL     1      -2.416  14.731  23.593  0.00  0.00    +0.000 A 
ATOM     17  C   UNL     1      -3.227  13.766  22.947  0.00  0.00    +0.000 A 
BRANCH  17  18
ATOM     18  C   UNL     1      -3.886  12.754  23.856  0.00  0.00    +0.000 C 
ATOM     19  F   UNL     1      -5.216  12.555  23.699  0.00  0.00    +0.000 F 
ATOM     20  F   UNL     1      -3.291  11.530  23.782  0.00  0.00    +0.000 F 
ATOM     21  F   UNL     1      -3.754  13.126  25.169  0.00  0.00    +0.000 F 
ENDBRANCH  17  18
ENDBRANCH  11  12
ENDBRANCH   9  11
ENDBRANCH   1   9
BRANCH   8  22
ATOM     22  C   UNL     1      -0.463  11.562  18.699  0.00  0.00    +0.000 C 
BRANCH  22  23
ATOM     23  C   UNL     1       0.411  12.845  18.674  0.00  0.00    +0.000 A 
ATOM     24  C   UNL     1       1.813  12.758  18.697  0.00  0.00    +0.000 A 
ATOM     25  C   UNL     1       2.608  13.906  18.802  0.00  0.00    +0.000 A 
ATOM     26  C   UNL     1       2.001  15.160  18.865  0.00  0.00    +0.000 A 
ATOM     27  C   UNL     1       0.615  15.270  18.793  0.00  0.00    +0.000 A 
ATOM     28  C   UNL     1      -0.180  14.120  18.695  0.00  0.00    +0.000 A 
ENDBRANCH  22  23
BRANCH  22  29
ATOM     29  C   UNL     1      -0.517  10.988  20.122  0.00  0.00    +0.000 A 
ATOM     30  C   UNL     1      -0.528   9.623  20.424  0.00  0.00    +0.000 A 
ATOM     31  C   UNL     1      -0.381   9.173  21.740  0.00  0.00    +0.000 A 
ATOM     32  C   UNL     1      -0.313  10.082  22.792  0.00  0.00    +0.000 A 
ATOM     33  C   UNL     1      -0.402  11.443  22.529  0.00  0.00    +0.000 A 
ATOM     34  C   UNL     1      -0.484  11.890  21.209  0.00  0.00    +0.000 A 
ENDBRANCH  22  29
ENDBRANCH   8  22
TORSDOF 7
ENDMDL
MODEL 9
REMARK VINA RESULT:      -5.7      2.545      6.189
REMARK  Name = 
REMARK  7 active torsions:
REMARK  status: ('A' for Active; 'I' for Inactive)
REMARK    1  A    between atoms: C_2  and  O_3
REMARK    2  A    between atoms: C_2  and  C_25
REMARK    3  A    between atoms: O_3  and  C_4
REMARK    4  A    between atoms: C_11  and  C_12
REMARK    5  A    between atoms: C_12  and  C_13
REMARK    6  A    between atoms: C_12  and  C_19
REMARK    7  A    between atoms: C_30  and  C_31
REMARK                            x       y       z     vdW  Elec       q    Type
REMARK                         _______ _______ _______ _____ _____    ______ ____
ROOT
ATOM      1  C   UNL     1      -3.032  12.220  18.700  0.00  0.00    +0.000 C 
ATOM      2  C   UNL     1      -4.133  11.271  18.169  0.00  0.00    +0.000 C 
ATOM      3  C   UNL     1      -4.314  11.520  16.660  0.00  0.00    +0.000 C 
ATOM      4  C   UNL     1      -2.988  11.274  15.935  0.00  0.00    +0.000 C 
ATOM      5  N   UNL     1      -1.938  10.845  16.879  0.00  0.00    +0.000 NA
ATOM      6  C   UNL     1      -2.383   9.600  17.537  0.00  0.00    +0.000 C 
ATOM      7  C   UNL     1      -3.650   9.828  18.366  0.00  0.00    +0.000 C 
ATOM      8  C   UNL     1      -1.693  11.940  17.903  0.00  0.00    +0.000 C 
ENDROOT
BRANCH   1   9
ATOM      9  O   UNL     1      -2.941  12.081  20.132  0.00  0.00    +0.000 OA
BRANCH   9  11
ATOM     10  O   UNL     1      -2.720  14.228  20.941  0.00  0.00    +0.000 OA
ATOM     11  C   UNL     1      -3.325  13.173  20.862  0.00  0.00    +0.000 C 
BRANCH  11  12
ATOM     12  C   UNL     1      -4.640  12.940  21.524  0.00  0.00    +0.000 A 
ATOM     13  C   UNL     1      -5.784  12.965  20.704  0.00  0.00    +0.000 A 
ATOM     14  C   UNL     1      -7.066  12.892  21.248  0.00  0.00    +0.000 A 
ATOM     15  C   UNL     1      -7.234  12.802  22.620  0.00  0.00    +0.000 A 
ATOM     16  C   UNL     1      -6.112  12.751  23.446  0.00  0.00    +0.000 A 
ATOM     17  C   UNL     1      -4.798  12.801  22.918  0.00  0.00    +0.000 A 
BRANCH  17  18
ATOM     18  C   UNL     1      -3.683  12.668  23.929  0.00  0.00    +0.000 C 
ATOM     19  F   UNL     1      -2.730  13.628  23.929  0.00  0.00    +0.000 F 
ATOM     20  F   UNL     1      -4.152  12.575  25.206  0.00  0.00    +0.000 F 
ATOM     21  F   UNL     1      -2.987  11.503  23.729  0.00  0.00    +0.000 F 
ENDBRANCH  17  18
ENDBRANCH  11  12
ENDBRANCH   9  11
ENDBRANCH   1   9
BRANCH   8  22
ATOM     22  C   UNL     1      -0.311  11.698  18.653  0.00  0.00    +0.000 C 
BRANCH  22  23
ATOM     23  C   UNL     1       0.476  13.036  18.643  0.00  0.00    +0.000 A 
ATOM     24  C   UNL     1       1.881  13.042  18.662  0.00  0.00    +0.000 A 
ATOM     25  C   UNL     1       2.598  14.239  18.781  0.00  0.00    +0.000 A 
ATOM     26  C   UNL     1       1.909  15.448  18.861  0.00  0.00    +0.000 A 
ATOM     27  C   UNL     1       0.520  15.467  18.795  0.00  0.00    +0.000 A 
ATOM     28  C   UNL     1      -0.198  14.268  18.682  0.00  0.00    +0.000 A 
ENDBRANCH  22  23
BRANCH  22  29
ATOM     29  C   UNL     1      -0.266  11.069  20.053  0.00  0.00    +0.000 A 
ATOM     30  C   UNL     1      -0.239  11.797  21.246  0.00  0.00    +0.000 A 
ATOM     31  C   UNL     1      -0.395  11.163  22.483  0.00  0.00    +0.000 A 
ATOM     32  C   UNL     1      -0.489   9.776  22.557  0.00  0.00    +0.000 A 
ATOM     33  C   UNL     1      -0.416   9.021  21.393  0.00  0.00    +0.000 A 
ATOM     34  C   UNL     1      -0.323   9.661  20.156  0.00  0.00    +0.000 A 
ENDBRANCH  22  29
ENDBRANCH   8  22
TORSDOF 7
ENDMDL
