MODEL 1
REMARK VINA RESULT:      -6.9      0.000      0.000
REMARK  Name = 
REMARK  5 active torsions:
REMARK  status: ('A' for Active; 'I' for Inactive)
REMARK    1  A    between atoms: C_1  and  C_2
REMARK    2  A    between atoms: C_2  and  C_3
REMARK    3  A    between atoms: C_3  and  S_4
REMARK    4  A    between atoms: S_4  and  C_5
REMARK    5  A    between atoms: N_12  and  C_13
REMARK                            x       y       z     vdW  Elec       q    Type
REMARK                         _______ _______ _______ _____ _____    ______ ____
ROOT
ATOM      1  C   UNL     1       7.180   5.895  17.261  0.00  0.00    +0.000 A 
ATOM      2  N   UNL     1       7.565   6.130  16.003  0.00  0.00    +0.000 NA
ATOM      3  S   UNL     1       6.711   5.052  15.042  0.00  0.00    +0.000 S 
ATOM      4  C   UNL     1       5.872   4.402  16.369  0.00  0.00    +0.000 A 
ATOM      5  N   UNL     1       4.950   3.422  16.154  0.00  0.00    +0.000 N 
ATOM      6  C   UNL     1       4.113   2.929  17.122  0.00  0.00    +0.000 C 
ATOM      7  O   UNL     1       3.405   1.963  16.842  0.00  0.00    +0.000 OA
ATOM      8  N   UNL     1       4.100   3.611  18.311  0.00  0.00    +0.000 N 
ATOM      9  N   UNL     1       6.201   4.953  17.512  0.00  0.00    +0.000 NA
ATOM     10  H   UNL     1       4.864   3.010  15.236  0.00  0.00    +0.000 HD
ATOM     11  H   UNL     1       4.639   4.482  18.341  0.00  0.00    +0.000 HD
ENDROOT
BRANCH   8  12
ATOM     12  C   UNL     1       3.308   3.375  19.446  0.00  0.00    +0.000 A 
ATOM     13  C   UNL     1       3.721   2.611  20.535  0.00  0.00    +0.000 A 
ATOM     14  C   UNL     1       2.848   2.406  21.607  0.00  0.00    +0.000 A 
ATOM     15  C   UNL     1       1.570   2.956  21.579  0.00  0.00    +0.000 A 
ATOM     16  F   UNL     1       0.732   2.727  22.598  0.00  0.00    +0.000 F 
ATOM     17  C   UNL     1       1.148   3.738  20.515  0.00  0.00    +0.000 A 
ATOM     18  C   UNL     1       2.028   3.953  19.462  0.00  0.00    +0.000 A 
ATOM     19  F   UNL     1       1.626   4.705  18.425  0.00  0.00    +0.000 F 
ENDBRANCH   8  12
BRANCH   1  20
ATOM     20  S   UNL     1       7.874   6.813  18.582  0.00  0.00    +0.000 S 
BRANCH  20  21
ATOM     21  C   UNL     1       8.034   8.459  17.812  0.00  0.00    +0.000 C 
BRANCH  21  23
ATOM     22  C   UNL     1       9.277  10.647  18.094  0.00  0.00    +0.000 C 
ATOM     23  C   UNL     1       8.731   9.406  18.787  0.00  0.00    +0.000 C 
ENDBRANCH  21  23
ENDBRANCH  20  21
ENDBRANCH   1  20
TORSDOF 4
ENDMDL
MODEL 2
REMARK VINA RESULT:      -6.8      3.516      5.482
REMARK  Name = 
REMARK  5 active torsions:
REMARK  status: ('A' for Active; 'I' for Inactive)
REMARK    1  A    between atoms: C_1  and  C_2
REMARK    2  A    between atoms: C_2  and  C_3
REMARK    3  A    between atoms: C_3  and  S_4
REMARK    4  A    between atoms: S_4  and  C_5
REMARK    5  A    between atoms: N_12  and  C_13
REMARK                            x       y       z     vdW  Elec       q    Type
REMARK                         _______ _______ _______ _____ _____    ______ ____
ROOT
ATOM      1  C   UNL     1       6.166   3.657  12.576  0.00  0.00    +0.000 A 
ATOM      2  N   UNL     1       7.315   4.115  12.071  0.00  0.00    +0.000 NA
ATOM      3  S   UNL     1       7.946   5.164  13.219  0.00  0.00    +0.000 S 
ATOM      4  C   UNL     1       6.668   4.881  14.303  0.00  0.00    +0.000 A 
ATOM      5  N   UNL     1       6.676   5.508  15.513  0.00  0.00    +0.000 N 
ATOM      6  C   UNL     1       5.782   5.247  16.520  0.00  0.00    +0.000 C 
ATOM      7  O   UNL     1       5.811   5.957  17.523  0.00  0.00    +0.000 OA
ATOM      8  N   UNL     1       4.967   4.160  16.333  0.00  0.00    +0.000 N 
ATOM      9  N   UNL     1       5.778   4.035  13.847  0.00  0.00    +0.000 NA
ATOM     10  H   UNL     1       7.367   6.220  15.703  0.00  0.00    +0.000 HD
ATOM     11  H   UNL     1       5.162   3.582  15.510  0.00  0.00    +0.000 HD
ENDROOT
BRANCH   8  12
ATOM     12  C   UNL     1       4.011   3.623  17.210  0.00  0.00    +0.000 A 
ATOM     13  C   UNL     1       4.036   2.309  17.674  0.00  0.00    +0.000 A 
ATOM     14  C   UNL     1       3.021   1.856  18.520  0.00  0.00    +0.000 A 
ATOM     15  C   UNL     1       1.988   2.712  18.889  0.00  0.00    +0.000 A 
ATOM     16  F   UNL     1       1.005   2.256  19.676  0.00  0.00    +0.000 F 
ATOM     17  C   UNL     1       1.957   4.029  18.458  0.00  0.00    +0.000 A 
ATOM     18  C   UNL     1       2.979   4.477  17.631  0.00  0.00    +0.000 A 
ATOM     19  F   UNL     1       2.955   5.750  17.204  0.00  0.00    +0.000 F 
ENDBRANCH   8  12
BRANCH   1  20
ATOM     20  S   UNL     1       5.180   2.539  11.654  0.00  0.00    +0.000 S 
BRANCH  20  21
ATOM     21  C   UNL     1       3.680   3.542  11.389  0.00  0.00    +0.000 C 
BRANCH  21  23
ATOM     22  C   UNL     1       2.694   4.572   9.295  0.00  0.00    +0.000 C 
ATOM     23  C   UNL     1       3.147   3.289   9.980  0.00  0.00    +0.000 C 
ENDBRANCH  21  23
ENDBRANCH  20  21
ENDBRANCH   1  20
TORSDOF 4
ENDMDL
MODEL 3
REMARK VINA RESULT:      -6.7      1.021      1.465
REMARK  Name = 
REMARK  5 active torsions:
REMARK  status: ('A' for Active; 'I' for Inactive)
REMARK    1  A    between atoms: C_1  and  C_2
REMARK    2  A    between atoms: C_2  and  C_3
REMARK    3  A    between atoms: C_3  and  S_4
REMARK    4  A    between atoms: S_4  and  C_5
REMARK    5  A    between atoms: N_12  and  C_13
REMARK                            x       y       z     vdW  Elec       q    Type
REMARK                         _______ _______ _______ _____ _____    ______ ____
ROOT
ATOM      1  C   UNL     1       6.891   5.815  17.122  0.00  0.00    +0.000 A 
ATOM      2  N   UNL     1       7.261   6.091  15.869  0.00  0.00    +0.000 NA
ATOM      3  S   UNL     1       6.296   5.145  14.875  0.00  0.00    +0.000 S 
ATOM      4  C   UNL     1       5.440   4.490  16.190  0.00  0.00    +0.000 A 
ATOM      5  N   UNL     1       4.434   3.603  15.948  0.00  0.00    +0.000 N 
ATOM      6  C   UNL     1       3.584   3.123  16.912  0.00  0.00    +0.000 C 
ATOM      7  O   UNL     1       2.791   2.237  16.600  0.00  0.00    +0.000 OA
ATOM      8  N   UNL     1       3.660   3.733  18.138  0.00  0.00    +0.000 N 
ATOM      9  N   UNL     1       5.844   4.943  17.350  0.00  0.00    +0.000 NA
ATOM     10  H   UNL     1       4.289   3.253  15.011  0.00  0.00    +0.000 HD
ATOM     11  H   UNL     1       4.270   4.554  18.200  0.00  0.00    +0.000 HD
ENDROOT
BRANCH   8  12
ATOM     12  C   UNL     1       2.880   3.497  19.281  0.00  0.00    +0.000 A 
ATOM     13  C   UNL     1       1.610   4.036  19.478  0.00  0.00    +0.000 A 
ATOM     14  C   UNL     1       0.923   3.770  20.665  0.00  0.00    +0.000 A 
ATOM     15  C   UNL     1       1.510   2.979  21.647  0.00  0.00    +0.000 A 
ATOM     16  F   UNL     1       0.853   2.757  22.793  0.00  0.00    +0.000 F 
ATOM     17  C   UNL     1       2.763   2.415  21.462  0.00  0.00    +0.000 A 
ATOM     18  C   UNL     1       3.432   2.669  20.272  0.00  0.00    +0.000 A 
ATOM     19  F   UNL     1       4.648   2.132  20.085  0.00  0.00    +0.000 F 
ENDBRANCH   8  12
BRANCH   1  20
ATOM     20  S   UNL     1       7.694   6.594  18.472  0.00  0.00    +0.000 S 
BRANCH  20  21
ATOM     21  C   UNL     1       7.914   8.281  17.813  0.00  0.00    +0.000 C 
BRANCH  21  23
ATOM     22  C   UNL     1       8.987  10.522  18.309  0.00  0.00    +0.000 C 
ATOM     23  C   UNL     1       8.816   9.076  18.757  0.00  0.00    +0.000 C 
ENDBRANCH  21  23
ENDBRANCH  20  21
ENDBRANCH   1  20
TORSDOF 4
ENDMDL
MODEL 4
REMARK VINA RESULT:      -6.7      3.108      3.692
REMARK  Name = 
REMARK  5 active torsions:
REMARK  status: ('A' for Active; 'I' for Inactive)
REMARK    1  A    between atoms: C_1  and  C_2
REMARK    2  A    between atoms: C_2  and  C_3
REMARK    3  A    between atoms: C_3  and  S_4
REMARK    4  A    between atoms: S_4  and  C_5
REMARK    5  A    between atoms: N_12  and  C_13
REMARK                            x       y       z     vdW  Elec       q    Type
REMARK                         _______ _______ _______ _____ _____    ______ ____
ROOT
ATOM      1  C   UNL     1       7.012   5.588  17.779  0.00  0.00    +0.000 A 
ATOM      2  N   UNL     1       7.499   4.771  16.841  0.00  0.00    +0.000 NA
ATOM      3  S   UNL     1       6.181   3.951  16.203  0.00  0.00    +0.000 S 
ATOM      4  C   UNL     1       5.078   4.784  17.191  0.00  0.00    +0.000 A 
ATOM      5  N   UNL     1       3.747   4.514  17.071  0.00  0.00    +0.000 N 
ATOM      6  C   UNL     1       2.758   5.222  17.706  0.00  0.00    +0.000 C 
ATOM      7  O   UNL     1       1.602   4.814  17.618  0.00  0.00    +0.000 OA
ATOM      8  N   UNL     1       3.154   6.372  18.338  0.00  0.00    +0.000 N 
ATOM      9  N   UNL     1       5.647   5.654  17.988  0.00  0.00    +0.000 NA
ATOM     10  H   UNL     1       3.443   3.743  16.492  0.00  0.00    +0.000 HD
ATOM     11  H   UNL     1       4.129   6.654  18.200  0.00  0.00    +0.000 HD
ENDROOT
BRANCH   8  12
ATOM     12  C   UNL     1       2.362   7.318  19.009  0.00  0.00    +0.000 A 
ATOM     13  C   UNL     1       1.984   8.541  18.459  0.00  0.00    +0.000 A 
ATOM     14  C   UNL     1       1.220   9.433  19.216  0.00  0.00    +0.000 A 
ATOM     15  C   UNL     1       0.849   9.101  20.516  0.00  0.00    +0.000 A 
ATOM     16  F   UNL     1       0.142   9.977  21.242  0.00  0.00    +0.000 F 
ATOM     17  C   UNL     1       1.195   7.880  21.073  0.00  0.00    +0.000 A 
ATOM     18  C   UNL     1       1.939   6.992  20.307  0.00  0.00    +0.000 A 
ATOM     19  F   UNL     1       2.284   5.809  20.840  0.00  0.00    +0.000 F 
ENDBRANCH   8  12
BRANCH   1  20
ATOM     20  S   UNL     1       8.091   6.610  18.707  0.00  0.00    +0.000 S 
BRANCH  20  21
ATOM     21  C   UNL     1       7.916   8.193  17.817  0.00  0.00    +0.000 C 
BRANCH  21  23
ATOM     22  C   UNL     1       8.696  10.603  17.823  0.00  0.00    +0.000 C 
ATOM     23  C   UNL     1       8.639   9.291  18.595  0.00  0.00    +0.000 C 
ENDBRANCH  21  23
ENDBRANCH  20  21
ENDBRANCH   1  20
TORSDOF 4
ENDMDL
MODEL 5
REMARK VINA RESULT:      -6.7      3.280      3.798
REMARK  Name = 
REMARK  5 active torsions:
REMARK  status: ('A' for Active; 'I' for Inactive)
REMARK    1  A    between atoms: C_1  and  C_2
REMARK    2  A    between atoms: C_2  and  C_3
REMARK    3  A    between atoms: C_3  and  S_4
REMARK    4  A    between atoms: S_4  and  C_5
REMARK    5  A    between atoms: N_12  and  C_13
REMARK                            x       y       z     vdW  Elec       q    Type
REMARK                         _______ _______ _______ _____ _____    ______ ____
ROOT
ATOM      1  C   UNL     1       6.902   5.758  17.721  0.00  0.00    +0.000 A 
ATOM      2  N   UNL     1       7.354   4.920  16.784  0.00  0.00    +0.000 NA
ATOM      3  S   UNL     1       6.027   4.030  16.270  0.00  0.00    +0.000 S 
ATOM      4  C   UNL     1       4.963   4.865  17.299  0.00  0.00    +0.000 A 
ATOM      5  N   UNL     1       3.638   4.545  17.282  0.00  0.00    +0.000 N 
ATOM      6  C   UNL     1       2.669   5.245  17.956  0.00  0.00    +0.000 C 
ATOM      7  O   UNL     1       1.526   4.794  17.964  0.00  0.00    +0.000 OA
ATOM      8  N   UNL     1       3.064   6.433  18.514  0.00  0.00    +0.000 N 
ATOM      9  N   UNL     1       5.553   5.787  18.020  0.00  0.00    +0.000 NA
ATOM     10  H   UNL     1       3.325   3.741  16.756  0.00  0.00    +0.000 HD
ATOM     11  H   UNL     1       4.017   6.743  18.297  0.00  0.00    +0.000 HD
ENDROOT
BRANCH   8  12
ATOM     12  C   UNL     1       2.286   7.378  19.199  0.00  0.00    +0.000 A 
ATOM     13  C   UNL     1       1.863   7.224  20.518  0.00  0.00    +0.000 A 
ATOM     14  C   UNL     1       1.062   8.206  21.107  0.00  0.00    +0.000 A 
ATOM     15  C   UNL     1       0.683   9.327  20.374  0.00  0.00    +0.000 A 
ATOM     16  F   UNL     1      -0.110  10.246  20.940  0.00  0.00    +0.000 F 
ATOM     17  C   UNL     1       1.112   9.511  19.069  0.00  0.00    +0.000 A 
ATOM     18  C   UNL     1       1.923   8.539  18.497  0.00  0.00    +0.000 A 
ATOM     19  F   UNL     1       2.339   8.705  17.231  0.00  0.00    +0.000 F 
ENDBRANCH   8  12
BRANCH   1  20
ATOM     20  S   UNL     1       8.003   6.854  18.531  0.00  0.00    +0.000 S 
BRANCH  20  21
ATOM     21  C   UNL     1       8.023   8.251  17.358  0.00  0.00    +0.000 C 
BRANCH  21  23
ATOM     22  C   UNL     1       9.225   9.764  18.996  0.00  0.00    +0.000 C 
ATOM     23  C   UNL     1       7.983   9.565  18.138  0.00  0.00    +0.000 C 
ENDBRANCH  21  23
ENDBRANCH  20  21
ENDBRANCH   1  20
TORSDOF 4
ENDMDL
MODEL 6
REMARK VINA RESULT:      -6.7      5.278      6.472
REMARK  Name = 
REMARK  5 active torsions:
REMARK  status: ('A' for Active; 'I' for Inactive)
REMARK    1  A    between atoms: C_1  and  C_2
REMARK    2  A    between atoms: C_2  and  C_3
REMARK    3  A    between atoms: C_3  and  S_4
REMARK    4  A    between atoms: S_4  and  C_5
REMARK    5  A    between atoms: N_12  and  C_13
REMARK                            x       y       z     vdW  Elec       q    Type
REMARK                         _______ _______ _______ _____ _____    ______ ____
ROOT
ATOM      1  C   UNL     1       0.599   9.178  20.291  0.00  0.00    +0.000 A 
ATOM      2  N   UNL     1       0.344  10.395  19.801  0.00  0.00    +0.000 NA
ATOM      3  S   UNL     1       1.345  10.583  18.467  0.00  0.00    +0.000 S 
ATOM      4  C   UNL     1       1.992   9.019  18.627  0.00  0.00    +0.000 A 
ATOM      5  N   UNL     1       2.916   8.589  17.722  0.00  0.00    +0.000 N 
ATOM      6  C   UNL     1       3.396   7.306  17.663  0.00  0.00    +0.000 C 
ATOM      7  O   UNL     1       4.313   7.063  16.882  0.00  0.00    +0.000 OA
ATOM      8  N   UNL     1       2.753   6.387  18.452  0.00  0.00    +0.000 N 
ATOM      9  N   UNL     1       1.497   8.353  19.641  0.00  0.00    +0.000 NA
ATOM     10  H   UNL     1       3.293   9.239  17.046  0.00  0.00    +0.000 HD
ATOM     11  H   UNL     1       1.912   6.715  18.939  0.00  0.00    +0.000 HD
ENDROOT
BRANCH   8  12
ATOM     12  C   UNL     1       2.983   5.006  18.550  0.00  0.00    +0.000 A 
ATOM     13  C   UNL     1       4.050   4.445  19.249  0.00  0.00    +0.000 A 
ATOM     14  C   UNL     1       4.215   3.058  19.263  0.00  0.00    +0.000 A 
ATOM     15  C   UNL     1       3.321   2.244  18.574  0.00  0.00    +0.000 A 
ATOM     16  F   UNL     1       3.508   0.918  18.570  0.00  0.00    +0.000 F 
ATOM     17  C   UNL     1       2.240   2.779  17.892  0.00  0.00    +0.000 A 
ATOM     18  C   UNL     1       2.072   4.158  17.898  0.00  0.00    +0.000 A 
ATOM     19  F   UNL     1       1.031   4.687  17.236  0.00  0.00    +0.000 F 
ENDBRANCH   8  12
BRANCH   1  20
ATOM     20  S   UNL     1      -0.238   8.609  21.721  0.00  0.00    +0.000 S 
BRANCH  20  21
ATOM     21  C   UNL     1       0.090   9.979  22.880  0.00  0.00    +0.000 C 
BRANCH  21  23
ATOM     22  C   UNL     1      -1.096  12.216  22.797  0.00  0.00    +0.000 C 
ATOM     23  C   UNL     1      -1.209  10.738  23.145  0.00  0.00    +0.000 C 
ENDBRANCH  21  23
ENDBRANCH  20  21
ENDBRANCH   1  20
TORSDOF 4
ENDMDL
MODEL 7
REMARK VINA RESULT:      -6.6      3.599      5.610
REMARK  Name = 
REMARK  5 active torsions:
REMARK  status: ('A' for Active; 'I' for Inactive)
REMARK    1  A    between atoms: C_1  and  C_2
REMARK    2  A    between atoms: C_2  and  C_3
REMARK    3  A    between atoms: C_3  and  S_4
REMARK    4  A    between atoms: S_4  and  C_5
REMARK    5  A    between atoms: N_12  and  C_13
REMARK                            x       y       z     vdW  Elec       q    Type
REMARK                         _______ _______ _______ _____ _____    ______ ____
ROOT
ATOM      1  C   UNL     1       6.119   3.685  12.690  0.00  0.00    +0.000 A 
ATOM      2  N   UNL     1       7.318   4.091  12.263  0.00  0.00    +0.000 NA
ATOM      3  S   UNL     1       7.881   5.177  13.411  0.00  0.00    +0.000 S 
ATOM      4  C   UNL     1       6.510   4.977  14.395  0.00  0.00    +0.000 A 
ATOM      5  N   UNL     1       6.435   5.660  15.573  0.00  0.00    +0.000 N 
ATOM      6  C   UNL     1       5.454   5.468  16.512  0.00  0.00    +0.000 C 
ATOM      7  O   UNL     1       5.420   6.223  17.481  0.00  0.00    +0.000 OA
ATOM      8  N   UNL     1       4.628   4.393  16.307  0.00  0.00    +0.000 N 
ATOM      9  N   UNL     1       5.638   4.131  13.906  0.00  0.00    +0.000 NA
ATOM     10  H   UNL     1       7.128   6.363  15.788  0.00  0.00    +0.000 HD
ATOM     11  H   UNL     1       4.874   3.772  15.530  0.00  0.00    +0.000 HD
ENDROOT
BRANCH   8  12
ATOM     12  C   UNL     1       3.588   3.921  17.123  0.00  0.00    +0.000 A 
ATOM     13  C   UNL     1       2.518   4.707  17.546  0.00  0.00    +0.000 A 
ATOM     14  C   UNL     1       1.546   4.157  18.386  0.00  0.00    +0.000 A 
ATOM     15  C   UNL     1       1.654   2.833  18.803  0.00  0.00    +0.000 A 
ATOM     16  F   UNL     1       0.732   2.327  19.632  0.00  0.00    +0.000 F 
ATOM     17  C   UNL     1       2.698   2.029  18.375  0.00  0.00    +0.000 A 
ATOM     18  C   UNL     1       3.651   2.578  17.526  0.00  0.00    +0.000 A 
ATOM     19  F   UNL     1       4.669   1.807  17.111  0.00  0.00    +0.000 F 
ENDBRANCH   8  12
BRANCH   1  20
ATOM     20  S   UNL     1       5.182   2.549  11.739  0.00  0.00    +0.000 S 
BRANCH  20  21
ATOM     21  C   UNL     1       3.668   3.520  11.437  0.00  0.00    +0.000 C 
BRANCH  21  23
ATOM     22  C   UNL     1       2.736   4.523   9.307  0.00  0.00    +0.000 C 
ATOM     23  C   UNL     1       3.170   3.249  10.018  0.00  0.00    +0.000 C 
ENDBRANCH  21  23
ENDBRANCH  20  21
ENDBRANCH   1  20
TORSDOF 4
ENDMDL
MODEL 8
REMARK VINA RESULT:      -6.5      5.248      6.529
REMARK  Name = 
REMARK  5 active torsions:
REMARK  status: ('A' for Active; 'I' for Inactive)
REMARK    1  A    between atoms: C_1  and  C_2
REMARK    2  A    between atoms: C_2  and  C_3
REMARK    3  A    between atoms: C_3  and  S_4
REMARK    4  A    between atoms: S_4  and  C_5
REMARK    5  A    between atoms: N_12  and  C_13
REMARK                            x       y       z     vdW  Elec       q    Type
REMARK                         _______ _______ _______ _____ _____    ______ ____
ROOT
ATOM      1  C   UNL     1       0.752   9.096  20.297  0.00  0.00    +0.000 A 
ATOM      2  N   UNL     1       0.527  10.343  19.873  0.00  0.00    +0.000 NA
ATOM      3  S   UNL     1       1.493  10.561  18.520  0.00  0.00    +0.000 S 
ATOM      4  C   UNL     1       2.089   8.971  18.585  0.00  0.00    +0.000 A 
ATOM      5  N   UNL     1       2.969   8.554  17.632  0.00  0.00    +0.000 N 
ATOM      6  C   UNL     1       3.402   7.259  17.498  0.00  0.00    +0.000 C 
ATOM      7  O   UNL     1       4.286   7.023  16.678  0.00  0.00    +0.000 OA
ATOM      8  N   UNL     1       2.750   6.326  18.262  0.00  0.00    +0.000 N 
ATOM      9  N   UNL     1       1.600   8.273  19.581  0.00  0.00    +0.000 NA
ATOM     10  H   UNL     1       3.350   9.222  16.976  0.00  0.00    +0.000 HD
ATOM     11  H   UNL     1       1.936   6.658  18.789  0.00  0.00    +0.000 HD
ENDROOT
BRANCH   8  12
ATOM     12  C   UNL     1       2.933   4.934  18.287  0.00  0.00    +0.000 A 
ATOM     13  C   UNL     1       2.101   4.031  17.628  0.00  0.00    +0.000 A 
ATOM     14  C   UNL     1       2.345   2.660  17.738  0.00  0.00    +0.000 A 
ATOM     15  C   UNL     1       3.409   2.202  18.510  0.00  0.00    +0.000 A 
ATOM     16  F   UNL     1       3.613   0.883  18.631  0.00  0.00    +0.000 F 
ATOM     17  C   UNL     1       4.262   3.084  19.154  0.00  0.00    +0.000 A 
ATOM     18  C   UNL     1       4.023   4.446  19.025  0.00  0.00    +0.000 A 
ATOM     19  F   UNL     1       4.841   5.309  19.650  0.00  0.00    +0.000 F 
ENDBRANCH   8  12
BRANCH   1  20
ATOM     20  S   UNL     1      -0.062   8.488  21.724  0.00  0.00    +0.000 S 
BRANCH  20  21
ATOM     21  C   UNL     1       0.175   9.881  22.877  0.00  0.00    +0.000 C 
BRANCH  21  23
ATOM     22  C   UNL     1      -1.161  12.033  22.814  0.00  0.00    +0.000 C 
ATOM     23  C   UNL     1      -1.173  10.547  23.148  0.00  0.00    +0.000 C 
ENDBRANCH  21  23
ENDBRANCH  20  21
ENDBRANCH   1  20
TORSDOF 4
ENDMDL
MODEL 9
REMARK VINA RESULT:      -6.5      3.513      6.202
REMARK  Name = 
REMARK  5 active torsions:
REMARK  status: ('A' for Active; 'I' for Inactive)
REMARK    1  A    between atoms: C_1  and  C_2
REMARK    2  A    between atoms: C_2  and  C_3
REMARK    3  A    between atoms: C_3  and  S_4
REMARK    4  A    between atoms: S_4  and  C_5
REMARK    5  A    between atoms: N_12  and  C_13
REMARK                            x       y       z     vdW  Elec       q    Type
REMARK                         _______ _______ _______ _____ _____    ______ ____
ROOT
ATOM      1  C   UNL     1       1.978   3.843  19.390  0.00  0.00    +0.000 A 
ATOM      2  N   UNL     1       1.428   2.631  19.282  0.00  0.00    +0.000 NA
ATOM      3  S   UNL     1       2.328   1.808  18.131  0.00  0.00    +0.000 S 
ATOM      4  C   UNL     1       3.396   3.112  17.912  0.00  0.00    +0.000 A 
ATOM      5  N   UNL     1       4.430   2.980  17.033  0.00  0.00    +0.000 N 
ATOM      6  C   UNL     1       5.433   3.904  16.883  0.00  0.00    +0.000 C 
ATOM      7  O   UNL     1       6.247   3.736  15.977  0.00  0.00    +0.000 OA
ATOM      8  N   UNL     1       5.469   4.910  17.814  0.00  0.00    +0.000 N 
ATOM      9  N   UNL     1       3.112   4.148  18.661  0.00  0.00    +0.000 NA
ATOM     10  H   UNL     1       4.479   2.166  16.437  0.00  0.00    +0.000 HD
ATOM     11  H   UNL     1       4.808   4.831  18.593  0.00  0.00    +0.000 HD
ENDROOT
BRANCH   8  12
ATOM     12  C   UNL     1       6.406   5.946  17.945  0.00  0.00    +0.000 A 
ATOM     13  C   UNL     1       7.484   5.909  18.827  0.00  0.00    +0.000 A 
ATOM     14  C   UNL     1       8.348   7.004  18.911  0.00  0.00    +0.000 A 
ATOM     15  C   UNL     1       8.124   8.129  18.122  0.00  0.00    +0.000 A 
ATOM     16  F   UNL     1       8.941   9.184  18.233  0.00  0.00    +0.000 F 
ATOM     17  C   UNL     1       7.071   8.177  17.221  0.00  0.00    +0.000 A 
ATOM     18  C   UNL     1       6.228   7.077  17.131  0.00  0.00    +0.000 A 
ATOM     19  F   UNL     1       5.202   7.116  16.266  0.00  0.00    +0.000 F 
ENDBRANCH   8  12
BRANCH   1  20
ATOM     20  S   UNL     1       1.298   5.027  20.489  0.00  0.00    +0.000 S 
BRANCH  20  21
ATOM     21  C   UNL     1       2.536   6.361  20.367  0.00  0.00    +0.000 C 
BRANCH  21  23
ATOM     22  C   UNL     1       2.652   7.727  18.237  0.00  0.00    +0.000 C 
ATOM     23  C   UNL     1       1.946   7.525  19.571  0.00  0.00    +0.000 C 
ENDBRANCH  21  23
ENDBRANCH  20  21
ENDBRANCH   1  20
TORSDOF 4
ENDMDL
