MODEL 1
REMARK VINA RESULT:      -6.9      0.000      0.000
REMARK  Name = 
REMARK  6 active torsions:
REMARK  status: ('A' for Active; 'I' for Inactive)
REMARK    1  A    between atoms: C_1  and  O_2
REMARK    2  A    between atoms: O_2  and  C_3
REMARK    3  A    between atoms: C_8  and  N_9
REMARK    4  A    between atoms: C_13  and  C_14
REMARK    5  A    between atoms: N_16  and  C_17
REMARK    6  A    between atoms: N_21  and  C_22
REMARK                            x       y       z     vdW  Elec       q    Type
REMARK                         _______ _______ _______ _____ _____    ______ ____
ROOT
ATOM      1  N   UNL     1       4.267   3.802  17.543  0.00  0.00    +0.000 N 
ATOM      2  C   UNL     1       3.611   4.725  18.333  0.00  0.00    +0.000 A 
ATOM      3  N   UNL     1       3.432   5.945  17.878  0.00  0.00    +0.000 NA
ATOM      4  C   UNL     1       2.715   6.795  18.711  0.00  0.00    +0.000 A 
ATOM      5  C   UNL     1       2.308   8.130  18.528  0.00  0.00    +0.000 A 
ATOM      6  C   UNL     1       2.526   9.040  17.380  0.00  0.00    +0.000 C 
ATOM      7  N   UNL     1       1.609   8.559  19.593  0.00  0.00    +0.000 NA
ATOM      8  N   UNL     1       1.576   7.488  20.419  0.00  0.00    +0.000 N 
ATOM      9  C   UNL     1       0.813   7.543  21.642  0.00  0.00    +0.000 C 
ATOM     10  C   UNL     1       2.237   6.409  19.918  0.00  0.00    +0.000 A 
ATOM     11  C   UNL     1       2.422   5.112  20.454  0.00  0.00    +0.000 A 
ATOM     12  O   UNL     1       1.998   4.768  21.552  0.00  0.00    +0.000 OA
ATOM     13  N   UNL     1       3.135   4.279  19.586  0.00  0.00    +0.000 N 
ATOM     14  C   UNL     1       3.376   2.921  20.046  0.00  0.00    +0.000 C 
ATOM     15  H   UNL     1       4.297   2.830  17.815  0.00  0.00    +0.000 HD
ENDROOT
BRANCH   1  21
ATOM     16  C   UNL     1       6.578   4.396  16.995  0.00  0.00    +0.000 A 
ATOM     17  C   UNL     1       7.517   4.819  16.047  0.00  0.00    +0.000 A 
ATOM     18  C   UNL     1       7.175   4.899  14.695  0.00  0.00    +0.000 A 
ATOM     19  C   UNL     1       5.894   4.545  14.282  0.00  0.00    +0.000 A 
ATOM     20  C   UNL     1       4.956   4.118  15.221  0.00  0.00    +0.000 A 
ATOM     21  C   UNL     1       5.269   4.072  16.588  0.00  0.00    +0.000 A 
BRANCH  16  23
ATOM     22  C   UNL     1       7.583   5.731  18.677  0.00  0.00    +0.000 C 
ATOM     23  O   UNL     1       6.967   4.497  18.309  0.00  0.00    +0.000 OA
ENDBRANCH  16  23
ENDBRANCH   1  21
TORSDOF 2
ENDMDL
MODEL 2
REMARK VINA RESULT:      -6.7      3.063      5.370
REMARK  Name = 
REMARK  6 active torsions:
REMARK  status: ('A' for Active; 'I' for Inactive)
REMARK    1  A    between atoms: C_1  and  O_2
REMARK    2  A    between atoms: O_2  and  C_3
REMARK    3  A    between atoms: C_8  and  N_9
REMARK    4  A    between atoms: C_13  and  C_14
REMARK    5  A    between atoms: N_16  and  C_17
REMARK    6  A    between atoms: N_21  and  C_22
REMARK                            x       y       z     vdW  Elec       q    Type
REMARK                         _______ _______ _______ _____ _____    ______ ____
ROOT
ATOM      1  N   UNL     1       2.965   5.981  19.409  0.00  0.00    +0.000 N 
ATOM      2  C   UNL     1       2.315   7.198  19.436  0.00  0.00    +0.000 A 
ATOM      3  N   UNL     1       1.519   7.478  20.444  0.00  0.00    +0.000 NA
ATOM      4  C   UNL     1       0.948   8.744  20.422  0.00  0.00    +0.000 A 
ATOM      5  C   UNL     1       0.097   9.382  21.345  0.00  0.00    +0.000 A 
ATOM      6  C   UNL     1      -0.452   8.888  22.628  0.00  0.00    +0.000 C 
ATOM      7  N   UNL     1      -0.198  10.626  20.929  0.00  0.00    +0.000 NA
ATOM      8  N   UNL     1       0.480  10.755  19.765  0.00  0.00    +0.000 N 
ATOM      9  C   UNL     1       0.481  12.018  19.068  0.00  0.00    +0.000 C 
ATOM     10  C   UNL     1       1.178   9.636  19.429  0.00  0.00    +0.000 A 
ATOM     11  C   UNL     1       2.012   9.371  18.317  0.00  0.00    +0.000 A 
ATOM     12  O   UNL     1       2.210  10.176  17.413  0.00  0.00    +0.000 OA
ATOM     13  N   UNL     1       2.581   8.095  18.376  0.00  0.00    +0.000 N 
ATOM     14  C   UNL     1       3.458   7.726  17.277  0.00  0.00    +0.000 C 
ATOM     15  H   UNL     1       3.679   5.801  18.718  0.00  0.00    +0.000 HD
ENDROOT
BRANCH   1  21
ATOM     16  C   UNL     1       1.859   3.813  19.151  0.00  0.00    +0.000 A 
ATOM     17  C   UNL     1       1.264   2.690  19.738  0.00  0.00    +0.000 A 
ATOM     18  C   UNL     1       1.324   2.496  21.120  0.00  0.00    +0.000 A 
ATOM     19  C   UNL     1       1.992   3.417  21.922  0.00  0.00    +0.000 A 
ATOM     20  C   UNL     1       2.591   4.534  21.341  0.00  0.00    +0.000 A 
ATOM     21  C   UNL     1       2.504   4.768  19.960  0.00  0.00    +0.000 A 
BRANCH  16  23
ATOM     22  C   UNL     1       2.606   3.465  16.927  0.00  0.00    +0.000 C 
ATOM     23  O   UNL     1       1.613   3.988  17.810  0.00  0.00    +0.000 OA
ENDBRANCH  16  23
ENDBRANCH   1  21
TORSDOF 2
ENDMDL
MODEL 3
REMARK VINA RESULT:      -6.5      2.304      6.335
REMARK  Name = 
REMARK  6 active torsions:
REMARK  status: ('A' for Active; 'I' for Inactive)
REMARK    1  A    between atoms: C_1  and  O_2
REMARK    2  A    between atoms: O_2  and  C_3
REMARK    3  A    between atoms: C_8  and  N_9
REMARK    4  A    between atoms: C_13  and  C_14
REMARK    5  A    between atoms: N_16  and  C_17
REMARK    6  A    between atoms: N_21  and  C_22
REMARK                            x       y       z     vdW  Elec       q    Type
REMARK                         _______ _______ _______ _____ _____    ______ ____
ROOT
ATOM      1  N   UNL     1       2.212   7.113  18.906  0.00  0.00    +0.000 N 
ATOM      2  C   UNL     1       3.280   6.594  18.202  0.00  0.00    +0.000 A 
ATOM      3  N   UNL     1       4.384   7.300  18.098  0.00  0.00    +0.000 NA
ATOM      4  C   UNL     1       5.427   6.682  17.421  0.00  0.00    +0.000 A 
ATOM      5  C   UNL     1       6.741   7.120  17.166  0.00  0.00    +0.000 A 
ATOM      6  C   UNL     1       7.409   8.386  17.544  0.00  0.00    +0.000 C 
ATOM      7  N   UNL     1       7.425   6.183  16.488  0.00  0.00    +0.000 NA
ATOM      8  N   UNL     1       6.541   5.169  16.340  0.00  0.00    +0.000 N 
ATOM      9  C   UNL     1       6.959   3.929  15.735  0.00  0.00    +0.000 C 
ATOM     10  C   UNL     1       5.325   5.441  16.889  0.00  0.00    +0.000 A 
ATOM     11  C   UNL     1       4.151   4.653  16.962  0.00  0.00    +0.000 A 
ATOM     12  O   UNL     1       4.057   3.533  16.469  0.00  0.00    +0.000 OA
ATOM     13  N   UNL     1       3.125   5.298  17.660  0.00  0.00    +0.000 N 
ATOM     14  C   UNL     1       1.874   4.568  17.791  0.00  0.00    +0.000 C 
ATOM     15  H   UNL     1       1.409   6.536  19.111  0.00  0.00    +0.000 HD
ENDROOT
BRANCH   1  21
ATOM     16  C   UNL     1       1.241   8.939  20.216  0.00  0.00    +0.000 A 
ATOM     17  C   UNL     1       0.774  10.257  20.278  0.00  0.00    +0.000 A 
ATOM     18  C   UNL     1       0.960  11.127  19.200  0.00  0.00    +0.000 A 
ATOM     19  C   UNL     1       1.626  10.687  18.060  0.00  0.00    +0.000 A 
ATOM     20  C   UNL     1       2.097   9.377  17.996  0.00  0.00    +0.000 A 
ATOM     21  C   UNL     1       1.882   8.476  19.051  0.00  0.00    +0.000 A 
BRANCH  16  23
ATOM     22  C   UNL     1      -0.321   8.500  21.945  0.00  0.00    +0.000 C 
ATOM     23  O   UNL     1       0.875   8.126  21.261  0.00  0.00    +0.000 OA
ENDBRANCH  16  23
ENDBRANCH   1  21
TORSDOF 2
ENDMDL
MODEL 4
REMARK VINA RESULT:      -6.3      2.407      5.072
REMARK  Name = 
REMARK  6 active torsions:
REMARK  status: ('A' for Active; 'I' for Inactive)
REMARK    1  A    between atoms: C_1  and  O_2
REMARK    2  A    between atoms: O_2  and  C_3
REMARK    3  A    between atoms: C_8  and  N_9
REMARK    4  A    between atoms: C_13  and  C_14
REMARK    5  A    between atoms: N_16  and  C_17
REMARK    6  A    between atoms: N_21  and  C_22
REMARK                            x       y       z     vdW  Elec       q    Type
REMARK                         _______ _______ _______ _____ _____    ______ ____
ROOT
ATOM      1  N   UNL     1       3.097   6.211  19.476  0.00  0.00    +0.000 N 
ATOM      2  C   UNL     1       2.353   7.373  19.497  0.00  0.00    +0.000 A 
ATOM      3  N   UNL     1       1.572   7.615  20.526  0.00  0.00    +0.000 NA
ATOM      4  C   UNL     1       0.901   8.831  20.495  0.00  0.00    +0.000 A 
ATOM      5  C   UNL     1       0.033   9.423  21.432  0.00  0.00    +0.000 A 
ATOM      6  C   UNL     1      -0.433   8.920  22.744  0.00  0.00    +0.000 C 
ATOM      7  N   UNL     1      -0.374  10.629  21.000  0.00  0.00    +0.000 NA
ATOM      8  N   UNL     1       0.253  10.782  19.810  0.00  0.00    +0.000 N 
ATOM      9  C   UNL     1       0.131  12.023  19.085  0.00  0.00    +0.000 C 
ATOM     10  C   UNL     1       1.026   9.713  19.475  0.00  0.00    +0.000 A 
ATOM     11  C   UNL     1       1.842   9.487  18.341  0.00  0.00    +0.000 A 
ATOM     12  O   UNL     1       1.945  10.282  17.413  0.00  0.00    +0.000 OA
ATOM     13  N   UNL     1       2.512   8.261  18.409  0.00  0.00    +0.000 N 
ATOM     14  C   UNL     1       3.380   7.935  17.288  0.00  0.00    +0.000 C 
ATOM     15  H   UNL     1       3.800   6.070  18.764  0.00  0.00    +0.000 HD
ENDROOT
BRANCH   1  21
ATOM     16  C   UNL     1       3.640   3.887  20.022  0.00  0.00    +0.000 A 
ATOM     17  C   UNL     1       3.221   2.629  20.470  0.00  0.00    +0.000 A 
ATOM     18  C   UNL     1       1.934   2.451  20.985  0.00  0.00    +0.000 A 
ATOM     19  C   UNL     1       1.065   3.535  21.069  0.00  0.00    +0.000 A 
ATOM     20  C   UNL     1       1.479   4.791  20.629  0.00  0.00    +0.000 A 
ATOM     21  C   UNL     1       2.752   4.979  20.069  0.00  0.00    +0.000 A 
BRANCH  16  23
ATOM     22  C   UNL     1       4.845   3.650  17.994  0.00  0.00    +0.000 C 
ATOM     23  O   UNL     1       4.862   3.922  19.395  0.00  0.00    +0.000 OA
ENDBRANCH  16  23
ENDBRANCH   1  21
TORSDOF 2
ENDMDL
MODEL 5
REMARK VINA RESULT:      -6.1      3.410      5.659
REMARK  Name = 
REMARK  6 active torsions:
REMARK  status: ('A' for Active; 'I' for Inactive)
REMARK    1  A    between atoms: C_1  and  O_2
REMARK    2  A    between atoms: O_2  and  C_3
REMARK    3  A    between atoms: C_8  and  N_9
REMARK    4  A    between atoms: C_13  and  C_14
REMARK    5  A    between atoms: N_16  and  C_17
REMARK    6  A    between atoms: N_21  and  C_22
REMARK                            x       y       z     vdW  Elec       q    Type
REMARK                         _______ _______ _______ _____ _____    ______ ____
ROOT
ATOM      1  N   UNL     1       1.581   7.789  20.703  0.00  0.00    +0.000 N 
ATOM      2  C   UNL     1       0.785   8.913  20.616  0.00  0.00    +0.000 A 
ATOM      3  N   UNL     1       0.112   9.138  19.509  0.00  0.00    +0.000 NA
ATOM      4  C   UNL     1      -0.706  10.260  19.524  0.00  0.00    +0.000 A 
ATOM      5  C   UNL     1      -1.583  10.769  18.546  0.00  0.00    +0.000 A 
ATOM      6  C   UNL     1      -1.896  10.255  17.194  0.00  0.00    +0.000 C 
ATOM      7  N   UNL     1      -2.198  11.876  18.997  0.00  0.00    +0.000 NA
ATOM      8  N   UNL     1      -1.712  12.038  20.249  0.00  0.00    +0.000 N 
ATOM      9  C   UNL     1      -2.227  13.088  21.093  0.00  0.00    +0.000 C 
ATOM     10  C   UNL     1      -0.807  11.082  20.596  0.00  0.00    +0.000 A 
ATOM     11  C   UNL     1      -0.089  10.888  21.800  0.00  0.00    +0.000 A 
ATOM     12  O   UNL     1      -0.172  11.640  22.766  0.00  0.00    +0.000 OA
ATOM     13  N   UNL     1       0.715   9.744  21.757  0.00  0.00    +0.000 N 
ATOM     14  C   UNL     1       1.494   9.456  22.950  0.00  0.00    +0.000 C 
ATOM     15  H   UNL     1       1.997   7.528  21.585  0.00  0.00    +0.000 HD
ENDROOT
BRANCH   1  21
ATOM     16  C   UNL     1       2.523   5.765  19.699  0.00  0.00    +0.000 A 
ATOM     17  C   UNL     1       3.326   5.173  18.716  0.00  0.00    +0.000 A 
ATOM     18  C   UNL     1       3.837   5.935  17.663  0.00  0.00    +0.000 A 
ATOM     19  C   UNL     1       3.537   7.292  17.579  0.00  0.00    +0.000 A 
ATOM     20  C   UNL     1       2.735   7.885  18.552  0.00  0.00    +0.000 A 
ATOM     21  C   UNL     1       2.247   7.145  19.641  0.00  0.00    +0.000 A 
BRANCH  16  23
ATOM     22  C   UNL     1       1.176   3.999  20.528  0.00  0.00    +0.000 C 
ATOM     23  O   UNL     1       2.199   4.965  20.768  0.00  0.00    +0.000 OA
ENDBRANCH  16  23
ENDBRANCH   1  21
TORSDOF 2
ENDMDL
MODEL 6
REMARK VINA RESULT:      -6.0      2.793      5.402
REMARK  Name = 
REMARK  6 active torsions:
REMARK  status: ('A' for Active; 'I' for Inactive)
REMARK    1  A    between atoms: C_1  and  O_2
REMARK    2  A    between atoms: O_2  and  C_3
REMARK    3  A    between atoms: C_8  and  N_9
REMARK    4  A    between atoms: C_13  and  C_14
REMARK    5  A    between atoms: N_16  and  C_17
REMARK    6  A    between atoms: N_21  and  C_22
REMARK                            x       y       z     vdW  Elec       q    Type
REMARK                         _______ _______ _______ _____ _____    ______ ____
ROOT
ATOM      1  N   UNL     1       2.546   6.957  19.403  0.00  0.00    +0.000 N 
ATOM      2  C   UNL     1       1.845   8.076  19.803  0.00  0.00    +0.000 A 
ATOM      3  N   UNL     1       1.441   8.168  21.051  0.00  0.00    +0.000 NA
ATOM      4  C   UNL     1       0.792   9.350  21.384  0.00  0.00    +0.000 A 
ATOM      5  C   UNL     1       0.274   9.796  22.616  0.00  0.00    +0.000 A 
ATOM      6  C   UNL     1       0.265   9.129  23.938  0.00  0.00    +0.000 C 
ATOM      7  N   UNL     1      -0.256  11.024  22.485  0.00  0.00    +0.000 NA
ATOM      8  N   UNL     1      -0.053  11.335  21.184  0.00  0.00    +0.000 N 
ATOM      9  C   UNL     1      -0.410  12.643  20.691  0.00  0.00    +0.000 C 
ATOM     10  C   UNL     1       0.574  10.345  20.492  0.00  0.00    +0.000 A 
ATOM     11  C   UNL     1       0.975  10.282  19.136  0.00  0.00    +0.000 A 
ATOM     12  O   UNL     1       0.767  11.179  18.327  0.00  0.00    +0.000 OA
ATOM     13  N   UNL     1       1.636   9.086  18.837  0.00  0.00    +0.000 N 
ATOM     14  C   UNL     1       2.092   8.925  17.465  0.00  0.00    +0.000 C 
ATOM     15  H   UNL     1       2.979   6.927  18.491  0.00  0.00    +0.000 HD
ENDROOT
BRANCH   1  21
ATOM     16  C   UNL     1       3.526   4.783  19.958  0.00  0.00    +0.000 A 
ATOM     17  C   UNL     1       3.349   3.444  20.325  0.00  0.00    +0.000 A 
ATOM     18  C   UNL     1       2.086   2.967  20.683  0.00  0.00    +0.000 A 
ATOM     19  C   UNL     1       0.994   3.831  20.688  0.00  0.00    +0.000 A 
ATOM     20  C   UNL     1       1.166   5.166  20.328  0.00  0.00    +0.000 A 
ATOM     21  C   UNL     1       2.419   5.653  19.925  0.00  0.00    +0.000 A 
BRANCH  16  23
ATOM     22  C   UNL     1       5.285   4.260  18.456  0.00  0.00    +0.000 C 
ATOM     23  O   UNL     1       4.772   5.113  19.480  0.00  0.00    +0.000 OA
ENDBRANCH  16  23
ENDBRANCH   1  21
TORSDOF 2
ENDMDL
MODEL 7
REMARK VINA RESULT:      -6.0      2.346      4.059
REMARK  Name = 
REMARK  6 active torsions:
REMARK  status: ('A' for Active; 'I' for Inactive)
REMARK    1  A    between atoms: C_1  and  O_2
REMARK    2  A    between atoms: O_2  and  C_3
REMARK    3  A    between atoms: C_8  and  N_9
REMARK    4  A    between atoms: C_13  and  C_14
REMARK    5  A    between atoms: N_16  and  C_17
REMARK    6  A    between atoms: N_21  and  C_22
REMARK                            x       y       z     vdW  Elec       q    Type
REMARK                         _______ _______ _______ _____ _____    ______ ____
ROOT
ATOM      1  N   UNL     1       5.620   5.445  15.558  0.00  0.00    +0.000 N 
ATOM      2  C   UNL     1       4.821   5.109  16.633  0.00  0.00    +0.000 A 
ATOM      3  N   UNL     1       4.671   3.842  16.948  0.00  0.00    +0.000 NA
ATOM      4  C   UNL     1       3.898   3.594  18.075  0.00  0.00    +0.000 A 
ATOM      5  C   UNL     1       3.569   2.382  18.713  0.00  0.00    +0.000 A 
ATOM      6  C   UNL     1       3.952   0.994  18.368  0.00  0.00    +0.000 C 
ATOM      7  N   UNL     1       2.807   2.613  19.796  0.00  0.00    +0.000 NA
ATOM      8  N   UNL     1       2.680   3.960  19.829  0.00  0.00    +0.000 N 
ATOM      9  C   UNL     1       1.996   4.592  20.931  0.00  0.00    +0.000 C 
ATOM     10  C   UNL     1       3.323   4.580  18.803  0.00  0.00    +0.000 A 
ATOM     11  C   UNL     1       3.444   5.956  18.490  0.00  0.00    +0.000 A 
ATOM     12  O   UNL     1       2.913   6.847  19.145  0.00  0.00    +0.000 OA
ATOM     13  N   UNL     1       4.238   6.172  17.359  0.00  0.00    +0.000 N 
ATOM     14  C   UNL     1       4.426   7.556  16.956  0.00  0.00    +0.000 C 
ATOM     15  H   UNL     1       5.855   6.411  15.381  0.00  0.00    +0.000 HD
ENDROOT
BRANCH   1  21
ATOM     16  C   UNL     1       7.067   4.753  13.708  0.00  0.00    +0.000 A 
ATOM     17  C   UNL     1       7.215   4.106  12.476  0.00  0.00    +0.000 A 
ATOM     18  C   UNL     1       6.165   3.357  11.937  0.00  0.00    +0.000 A 
ATOM     19  C   UNL     1       4.966   3.241  12.634  0.00  0.00    +0.000 A 
ATOM     20  C   UNL     1       4.815   3.880  13.864  0.00  0.00    +0.000 A 
ATOM     21  C   UNL     1       5.843   4.671  14.401  0.00  0.00    +0.000 A 
BRANCH  16  23
ATOM     22  C   UNL     1       8.959   6.003  13.017  0.00  0.00    +0.000 C 
ATOM     23  O   UNL     1       8.098   5.583  14.076  0.00  0.00    +0.000 OA
ENDBRANCH  16  23
ENDBRANCH   1  21
TORSDOF 2
ENDMDL
MODEL 8
REMARK VINA RESULT:      -5.9      7.754     10.391
REMARK  Name = 
REMARK  6 active torsions:
REMARK  status: ('A' for Active; 'I' for Inactive)
REMARK    1  A    between atoms: C_1  and  O_2
REMARK    2  A    between atoms: O_2  and  C_3
REMARK    3  A    between atoms: C_8  and  N_9
REMARK    4  A    between atoms: C_13  and  C_14
REMARK    5  A    between atoms: N_16  and  C_17
REMARK    6  A    between atoms: N_21  and  C_22
REMARK                            x       y       z     vdW  Elec       q    Type
REMARK                         _______ _______ _______ _____ _____    ______ ____
ROOT
ATOM      1  N   UNL     1      -2.588  12.208  18.255  0.00  0.00    +0.000 N 
ATOM      2  C   UNL     1      -3.611  12.237  19.181  0.00  0.00    +0.000 A 
ATOM      3  N   UNL     1      -3.324  12.441  20.448  0.00  0.00    +0.000 NA
ATOM      4  C   UNL     1      -4.415  12.512  21.304  0.00  0.00    +0.000 A 
ATOM      5  C   UNL     1      -4.478  12.757  22.690  0.00  0.00    +0.000 A 
ATOM      6  C   UNL     1      -3.389  13.014  23.658  0.00  0.00    +0.000 C 
ATOM      7  N   UNL     1      -5.755  12.757  23.109  0.00  0.00    +0.000 NA
ATOM      8  N   UNL     1      -6.472  12.527  21.984  0.00  0.00    +0.000 N 
ATOM      9  C   UNL     1      -7.914  12.557  22.029  0.00  0.00    +0.000 C 
ATOM     10  C   UNL     1      -5.693  12.371  20.879  0.00  0.00    +0.000 A 
ATOM     11  C   UNL     1      -6.047  12.132  19.530  0.00  0.00    +0.000 A 
ATOM     12  O   UNL     1      -7.204  11.994  19.148  0.00  0.00    +0.000 OA
ATOM     13  N   UNL     1      -4.928  12.080  18.692  0.00  0.00    +0.000 N 
ATOM     14  C   UNL     1      -5.186  11.840  17.281  0.00  0.00    +0.000 C 
ATOM     15  H   UNL     1      -2.796  12.186  17.267  0.00  0.00    +0.000 HD
ENDROOT
BRANCH   1  21
ATOM     16  C   UNL     1      -0.229  12.738  18.640  0.00  0.00    +0.000 A 
ATOM     17  C   UNL     1       1.104  12.314  18.700  0.00  0.00    +0.000 A 
ATOM     18  C   UNL     1       1.420  10.955  18.628  0.00  0.00    +0.000 A 
ATOM     19  C   UNL     1       0.403  10.011  18.509  0.00  0.00    +0.000 A 
ATOM     20  C   UNL     1      -0.926  10.429  18.453  0.00  0.00    +0.000 A 
ATOM     21  C   UNL     1      -1.259  11.792  18.481  0.00  0.00    +0.000 A 
BRANCH  16  23
ATOM     22  C   UNL     1       0.452  14.888  19.372  0.00  0.00    +0.000 C 
ATOM     23  O   UNL     1      -0.421  14.097  18.566  0.00  0.00    +0.000 OA
ENDBRANCH  16  23
ENDBRANCH   1  21
TORSDOF 2
ENDMDL
MODEL 9
REMARK VINA RESULT:      -5.9      2.116      6.121
REMARK  Name = 
REMARK  6 active torsions:
REMARK  status: ('A' for Active; 'I' for Inactive)
REMARK    1  A    between atoms: C_1  and  O_2
REMARK    2  A    between atoms: O_2  and  C_3
REMARK    3  A    between atoms: C_8  and  N_9
REMARK    4  A    between atoms: C_13  and  C_14
REMARK    5  A    between atoms: N_16  and  C_17
REMARK    6  A    between atoms: N_21  and  C_22
REMARK                            x       y       z     vdW  Elec       q    Type
REMARK                         _______ _______ _______ _____ _____    ______ ____
ROOT
ATOM      1  N   UNL     1       2.057   6.977  20.464  0.00  0.00    +0.000 N 
ATOM      2  C   UNL     1       2.562   5.989  19.643  0.00  0.00    +0.000 A 
ATOM      3  N   UNL     1       3.268   6.331  18.588  0.00  0.00    +0.000 NA
ATOM      4  C   UNL     1       3.785   5.277  17.847  0.00  0.00    +0.000 A 
ATOM      5  C   UNL     1       4.606   5.276  16.703  0.00  0.00    +0.000 A 
ATOM      6  C   UNL     1       5.170   6.412  15.939  0.00  0.00    +0.000 C 
ATOM      7  N   UNL     1       4.886   4.017  16.326  0.00  0.00    +0.000 NA
ATOM      8  N   UNL     1       4.251   3.249  17.242  0.00  0.00    +0.000 N 
ATOM      9  C   UNL     1       4.409   1.815  17.216  0.00  0.00    +0.000 C 
ATOM     10  C   UNL     1       3.574   3.979  18.170  0.00  0.00    +0.000 A 
ATOM     11  C   UNL     1       2.807   3.565  19.285  0.00  0.00    +0.000 A 
ATOM     12  O   UNL     1       2.608   2.389  19.570  0.00  0.00    +0.000 OA
ATOM     13  N   UNL     1       2.312   4.649  20.017  0.00  0.00    +0.000 N 
ATOM     14  C   UNL     1       1.510   4.329  21.187  0.00  0.00    +0.000 C 
ATOM     15  H   UNL     1       1.629   6.735  21.346  0.00  0.00    +0.000 HD
ENDROOT
BRANCH   1  21
ATOM     16  C   UNL     1       1.105   9.164  21.014  0.00  0.00    +0.000 A 
ATOM     17  C   UNL     1       0.584  10.391  20.583  0.00  0.00    +0.000 A 
ATOM     18  C   UNL     1       0.650  10.756  19.236  0.00  0.00    +0.000 A 
ATOM     19  C   UNL     1       1.248   9.902  18.314  0.00  0.00    +0.000 A 
ATOM     20  C   UNL     1       1.772   8.682  18.738  0.00  0.00    +0.000 A 
ATOM     21  C   UNL     1       1.677   8.280  20.080  0.00  0.00    +0.000 A 
BRANCH  16  23
ATOM     22  C   UNL     1      -0.056   9.692  23.012  0.00  0.00    +0.000 C 
ATOM     23  O   UNL     1       0.855   8.836  22.324  0.00  0.00    +0.000 OA
ENDBRANCH  16  23
ENDBRANCH   1  21
TORSDOF 2
ENDMDL
