MODEL 1
REMARK VINA RESULT:      -7.5      0.000      0.000
REMARK  Name = 
REMARK  4 active torsions:
REMARK  status: ('A' for Active; 'I' for Inactive)
REMARK    1  A    between atoms: C_5  and  O_6
REMARK    2  A    between atoms: C_13  and  O_14
REMARK    3  A    between atoms: N_17  and  C_18
REMARK    4  A    between atoms: C_18  and  C_19
REMARK                            x       y       z     vdW  Elec       q    Type
REMARK                         _______ _______ _______ _____ _____    ______ ____
ROOT
ATOM      1  O   UNL     1       2.268  10.187  17.418  0.00  0.00    +0.000 OA
ATOM      2  C   UNL     1       2.025   9.411  18.320  0.00  0.00    +0.000 C 
ATOM      3  C   UNL     1       2.500   8.027  18.416  0.00  0.00    +0.000 A 
ATOM      4  C   UNL     1       2.037   7.519  19.608  0.00  0.00    +0.000 A 
ATOM      5  C   UNL     1       2.325   6.233  20.024  0.00  0.00    +0.000 A 
ATOM      6  C   UNL     1       3.109   5.411  19.201  0.00  0.00    +0.000 A 
ATOM      7  N   UNL     1       3.423   4.143  19.556  0.00  0.00    +0.000 NA
ATOM      8  C   UNL     1       4.176   3.424  18.697  0.00  0.00    +0.000 A 
ATOM      9  C   UNL     1       4.618   3.940  17.498  0.00  0.00    +0.000 A 
ATOM     10  N   UNL     1       4.331   5.202  17.107  0.00  0.00    +0.000 NA
ATOM     11  C   UNL     1       3.580   5.935  17.957  0.00  0.00    +0.000 A 
ATOM     12  C   UNL     1       3.268   7.244  17.585  0.00  0.00    +0.000 A 
ATOM     13  C   UNL     1       1.257   8.556  20.266  0.00  0.00    +0.000 C 
ATOM     14  O   UNL     1       0.719   8.379  21.343  0.00  0.00    +0.000 OA
ATOM     15  N   UNL     1       1.295   9.650  19.456  0.00  0.00    +0.000 N 
ENDROOT
BRANCH   5  16
ATOM     16  O   UNL     1       1.856   5.764  21.224  0.00  0.00    +0.000 OA
ATOM     17  H   UNL     1       2.347   6.183  21.960  0.00  0.00    +0.000 HD
ENDBRANCH   5  16
BRANCH  12  18
ATOM     18  O   UNL     1       3.731   7.727  16.392  0.00  0.00    +0.000 OA
ATOM     19  H   UNL     1       2.999   7.595  15.752  0.00  0.00    +0.000 HD
ENDBRANCH  12  18
BRANCH  15  20
ATOM     20  C   UNL     1       0.702  10.936  19.785  0.00  0.00    +0.000 C 
BRANCH  20  21
ATOM     21  C   UNL     1      -0.708  11.044  19.257  0.00  0.00    +0.000 A 
ATOM     22  C   UNL     1      -1.083  10.423  18.055  0.00  0.00    +0.000 A 
ATOM     23  C   UNL     1      -2.358  10.628  17.526  0.00  0.00    +0.000 A 
ATOM     24 BR   UNL     1      -2.818   9.850  15.865  0.00  0.00    +0.000 Br
ATOM     25  C   UNL     1      -3.287  11.423  18.197  0.00  0.00    +0.000 A 
ATOM     26  C   UNL     1      -2.941  11.998  19.419  0.00  0.00    +0.000 A 
ATOM     27  C   UNL     1      -1.663  11.804  19.940  0.00  0.00    +0.000 A 
ATOM     28  F   UNL     1      -1.356  12.371  21.114  0.00  0.00    +0.000 F 
ENDBRANCH  20  21
ENDBRANCH  15  20
TORSDOF 4
ENDMDL
MODEL 2
REMARK VINA RESULT:      -7.5      3.482      7.187
REMARK  Name = 
REMARK  4 active torsions:
REMARK  status: ('A' for Active; 'I' for Inactive)
REMARK    1  A    between atoms: C_5  and  O_6
REMARK    2  A    between atoms: C_13  and  O_14
REMARK    3  A    between atoms: N_17  and  C_18
REMARK    4  A    between atoms: C_18  and  C_19
REMARK                            x       y       z     vdW  Elec       q    Type
REMARK                         _______ _______ _______ _____ _____    ______ ____
ROOT
ATOM      1  O   UNL     1       2.955   7.994  16.716  0.00  0.00    +0.000 OA
ATOM      2  C   UNL     1       2.551   7.837  17.851  0.00  0.00    +0.000 C 
ATOM      3  C   UNL     1       1.998   8.882  18.719  0.00  0.00    +0.000 A 
ATOM      4  C   UNL     1       1.623   8.277  19.896  0.00  0.00    +0.000 A 
ATOM      5  C   UNL     1       1.038   8.979  20.933  0.00  0.00    +0.000 A 
ATOM      6  C   UNL     1       0.826  10.358  20.787  0.00  0.00    +0.000 A 
ATOM      7  N   UNL     1       0.257  11.096  21.769  0.00  0.00    +0.000 NA
ATOM      8  C   UNL     1       0.101  12.418  21.543  0.00  0.00    +0.000 A 
ATOM      9  C   UNL     1       0.498  13.014  20.365  0.00  0.00    +0.000 A 
ATOM     10  N   UNL     1       1.065  12.312  19.358  0.00  0.00    +0.000 NA
ATOM     11  C   UNL     1       1.227  10.988  19.568  0.00  0.00    +0.000 A 
ATOM     12  C   UNL     1       1.807  10.234  18.547  0.00  0.00    +0.000 A 
ATOM     13  C   UNL     1       1.946   6.862  19.797  0.00  0.00    +0.000 C 
ATOM     14  O   UNL     1       1.727   6.080  20.704  0.00  0.00    +0.000 OA
ATOM     15  N   UNL     1       2.487   6.667  18.562  0.00  0.00    +0.000 N 
ENDROOT
BRANCH   5  16
ATOM     16  O   UNL     1       0.666   8.340  22.088  0.00  0.00    +0.000 OA
ATOM     17  H   UNL     1      -0.048   8.843  22.532  0.00  0.00    +0.000 HD
ENDBRANCH   5  16
BRANCH  12  18
ATOM     18  O   UNL     1       2.181  10.856  17.387  0.00  0.00    +0.000 OA
ATOM     19  H   UNL     1       2.078  11.817  17.559  0.00  0.00    +0.000 HD
ENDBRANCH  12  18
BRANCH  15  20
ATOM     20  C   UNL     1       2.875   5.371  18.032  0.00  0.00    +0.000 C 
BRANCH  20  21
ATOM     21  C   UNL     1       4.355   5.317  17.738  0.00  0.00    +0.000 A 
ATOM     22  C   UNL     1       4.830   5.176  16.424  0.00  0.00    +0.000 A 
ATOM     23  C   UNL     1       6.195   5.014  16.183  0.00  0.00    +0.000 A 
ATOM     24 BR   UNL     1       6.808   4.744  14.415  0.00  0.00    +0.000 Br
ATOM     25  C   UNL     1       7.108   5.023  17.236  0.00  0.00    +0.000 A 
ATOM     26  C   UNL     1       6.651   5.218  18.539  0.00  0.00    +0.000 A 
ATOM     27  C   UNL     1       5.287   5.366  18.780  0.00  0.00    +0.000 A 
ATOM     28  F   UNL     1       4.874   5.549  20.041  0.00  0.00    +0.000 F 
ENDBRANCH  20  21
ENDBRANCH  15  20
TORSDOF 4
ENDMDL
MODEL 3
REMARK VINA RESULT:      -7.3      3.464      7.551
REMARK  Name = 
REMARK  4 active torsions:
REMARK  status: ('A' for Active; 'I' for Inactive)
REMARK    1  A    between atoms: C_5  and  O_6
REMARK    2  A    between atoms: C_13  and  O_14
REMARK    3  A    between atoms: N_17  and  C_18
REMARK    4  A    between atoms: C_18  and  C_19
REMARK                            x       y       z     vdW  Elec       q    Type
REMARK                         _______ _______ _______ _____ _____    ______ ____
ROOT
ATOM      1  O   UNL     1       1.785   5.898  20.762  0.00  0.00    +0.000 OA
ATOM      2  C   UNL     1       1.925   6.707  19.868  0.00  0.00    +0.000 C 
ATOM      3  C   UNL     1       1.609   8.138  19.946  0.00  0.00    +0.000 A 
ATOM      4  C   UNL     1       1.954   8.698  18.738  0.00  0.00    +0.000 A 
ATOM      5  C   UNL     1       1.807  10.047  18.480  0.00  0.00    +0.000 A 
ATOM      6  C   UNL     1       1.278  10.877  19.480  0.00  0.00    +0.000 A 
ATOM      7  N   UNL     1       1.110  12.206  19.284  0.00  0.00    +0.000 NA
ATOM      8  C   UNL     1       0.587  12.924  20.300  0.00  0.00    +0.000 A 
ATOM      9  C   UNL     1       0.229  12.347  21.499  0.00  0.00    +0.000 A 
ATOM     10  N   UNL     1       0.384  11.025  21.737  0.00  0.00    +0.000 NA
ATOM     11  C   UNL     1       0.908  10.293  20.731  0.00  0.00    +0.000 A 
ATOM     12  C   UNL     1       1.084   8.924  20.945  0.00  0.00    +0.000 A 
ATOM     13  C   UNL     1       2.470   7.639  17.883  0.00  0.00    +0.000 C 
ATOM     14  O   UNL     1       2.847   7.848  16.745  0.00  0.00    +0.000 OA
ATOM     15  N   UNL     1       2.431   6.490  18.613  0.00  0.00    +0.000 N 
ENDROOT
BRANCH   5  16
ATOM     16  O   UNL     1       2.173  10.572  17.267  0.00  0.00    +0.000 OA
ATOM     17  H   UNL     1       3.074  10.951  17.326  0.00  0.00    +0.000 HD
ENDBRANCH   5  16
BRANCH  12  18
ATOM     18  O   UNL     1       0.727   8.386  22.151  0.00  0.00    +0.000 OA
ATOM     19  H   UNL     1      -0.135   7.943  21.996  0.00  0.00    +0.000 HD
ENDBRANCH  12  18
BRANCH  15  20
ATOM     20  C   UNL     1       2.934   5.207  18.151  0.00  0.00    +0.000 C 
BRANCH  20  21
ATOM     21  C   UNL     1       4.397   5.287  17.789  0.00  0.00    +0.000 A 
ATOM     22  C   UNL     1       4.826   5.127  16.462  0.00  0.00    +0.000 A 
ATOM     23  C   UNL     1       6.189   5.091  16.163  0.00  0.00    +0.000 A 
ATOM     24 BR   UNL     1       6.749   4.793  14.382  0.00  0.00    +0.000 Br
ATOM     25  C   UNL     1       7.142   5.246  17.169  0.00  0.00    +0.000 A 
ATOM     26  C   UNL     1       6.723   5.461  18.482  0.00  0.00    +0.000 A 
ATOM     27  C   UNL     1       5.363   5.482  18.781  0.00  0.00    +0.000 A 
ATOM     28  F   UNL     1       4.988   5.687  20.051  0.00  0.00    +0.000 F 
ENDBRANCH  20  21
ENDBRANCH  15  20
TORSDOF 4
ENDMDL
MODEL 4
REMARK VINA RESULT:      -7.2      0.172      2.463
REMARK  Name = 
REMARK  4 active torsions:
REMARK  status: ('A' for Active; 'I' for Inactive)
REMARK    1  A    between atoms: C_5  and  O_6
REMARK    2  A    between atoms: C_13  and  O_14
REMARK    3  A    between atoms: N_17  and  C_18
REMARK    4  A    between atoms: C_18  and  C_19
REMARK                            x       y       z     vdW  Elec       q    Type
REMARK                         _______ _______ _______ _____ _____    ______ ____
ROOT
ATOM      1  O   UNL     1       0.658   8.563  21.427  0.00  0.00    +0.000 OA
ATOM      2  C   UNL     1       1.240   8.639  20.364  0.00  0.00    +0.000 C 
ATOM      3  C   UNL     1       1.965   7.550  19.700  0.00  0.00    +0.000 A 
ATOM      4  C   UNL     1       2.437   8.042  18.506  0.00  0.00    +0.000 A 
ATOM      5  C   UNL     1       3.150   7.263  17.616  0.00  0.00    +0.000 A 
ATOM      6  C   UNL     1       3.412   5.924  17.942  0.00  0.00    +0.000 A 
ATOM      7  N   UNL     1       4.106   5.113  17.109  0.00  0.00    +0.000 NA
ATOM      8  C   UNL     1       4.317   3.841  17.511  0.00  0.00    +0.000 A 
ATOM      9  C   UNL     1       3.853   3.366  18.718  0.00  0.00    +0.000 A 
ATOM     10  N   UNL     1       3.153   4.141  19.576  0.00  0.00    +0.000 NA
ATOM     11  C   UNL     1       2.931   5.416  19.189  0.00  0.00    +0.000 A 
ATOM     12  C   UNL     1       2.209   6.242  20.051  0.00  0.00    +0.000 A 
ATOM     13  C   UNL     1       2.038   9.439  18.407  0.00  0.00    +0.000 C 
ATOM     14  O   UNL     1       2.329  10.131  17.449  0.00  0.00    +0.000 OA
ATOM     15  N   UNL     1       1.330   9.726  19.534  0.00  0.00    +0.000 N 
ENDROOT
BRANCH   5  16
ATOM     16  O   UNL     1       3.595   7.785  16.429  0.00  0.00    +0.000 OA
ATOM     17  H   UNL     1       3.639   8.762  16.490  0.00  0.00    +0.000 HD
ENDBRANCH   5  16
BRANCH  12  18
ATOM     18  O   UNL     1       1.755   5.734  21.238  0.00  0.00    +0.000 OA
ATOM     19  H   UNL     1       1.508   6.514  21.780  0.00  0.00    +0.000 HD
ENDBRANCH  12  18
BRANCH  15  20
ATOM     20  C   UNL     1       0.682  11.001  19.793  0.00  0.00    +0.000 C 
BRANCH  20  21
ATOM     21  C   UNL     1      -0.716  11.034  19.224  0.00  0.00    +0.000 A 
ATOM     22  C   UNL     1      -1.021  10.398  18.010  0.00  0.00    +0.000 A 
ATOM     23  C   UNL     1      -2.289  10.534  17.443  0.00  0.00    +0.000 A 
ATOM     24 BR   UNL     1      -2.657   9.739  15.768  0.00  0.00    +0.000 Br
ATOM     25  C   UNL     1      -3.280  11.274  18.089  0.00  0.00    +0.000 A 
ATOM     26  C   UNL     1      -3.003  11.862  19.322  0.00  0.00    +0.000 A 
ATOM     27  C   UNL     1      -1.732  11.737  19.880  0.00  0.00    +0.000 A 
ATOM     28  F   UNL     1      -1.491  12.315  21.064  0.00  0.00    +0.000 F 
ENDBRANCH  20  21
ENDBRANCH  15  20
TORSDOF 4
ENDMDL
MODEL 5
REMARK VINA RESULT:      -7.1      3.532      7.269
REMARK  Name = 
REMARK  4 active torsions:
REMARK  status: ('A' for Active; 'I' for Inactive)
REMARK    1  A    between atoms: C_5  and  O_6
REMARK    2  A    between atoms: C_13  and  O_14
REMARK    3  A    between atoms: N_17  and  C_18
REMARK    4  A    between atoms: C_18  and  C_19
REMARK                            x       y       z     vdW  Elec       q    Type
REMARK                         _______ _______ _______ _____ _____    ______ ____
ROOT
ATOM      1  O   UNL     1       2.195   9.250  17.075  0.00  0.00    +0.000 OA
ATOM      2  C   UNL     1       1.905   8.926  18.209  0.00  0.00    +0.000 C 
ATOM      3  C   UNL     1       1.334   9.804  19.236  0.00  0.00    +0.000 A 
ATOM      4  C   UNL     1       1.117   9.035  20.355  0.00  0.00    +0.000 A 
ATOM      5  C   UNL     1       0.560   9.552  21.509  0.00  0.00    +0.000 A 
ATOM      6  C   UNL     1       0.212  10.911  21.548  0.00  0.00    +0.000 A 
ATOM      7  N   UNL     1      -0.336  11.472  22.651  0.00  0.00    +0.000 NA
ATOM      8  C   UNL     1      -0.631  12.789  22.598  0.00  0.00    +0.000 A 
ATOM      9  C   UNL     1      -0.392  13.551  21.476  0.00  0.00    +0.000 A 
ATOM     10  N   UNL     1       0.149  13.028  20.352  0.00  0.00    +0.000 NA
ATOM     11  C   UNL     1       0.449  11.712  20.388  0.00  0.00    +0.000 A 
ATOM     12  C   UNL     1       1.007  11.141  19.243  0.00  0.00    +0.000 A 
ATOM     13  C   UNL     1       1.559   7.680  20.063  0.00  0.00    +0.000 C 
ATOM     14  O   UNL     1       1.490   6.783  20.882  0.00  0.00    +0.000 OA
ATOM     15  N   UNL     1       2.008   7.682  18.777  0.00  0.00    +0.000 N 
ENDROOT
BRANCH   5  16
ATOM     16  O   UNL     1       0.348   8.753  22.603  0.00  0.00    +0.000 OA
ATOM     17  H   UNL     1       0.573   9.241  23.422  0.00  0.00    +0.000 HD
ENDBRANCH   5  16
BRANCH  12  18
ATOM     18  O   UNL     1       1.222  11.925  18.143  0.00  0.00    +0.000 OA
ATOM     19  H   UNL     1       0.546  12.634  18.189  0.00  0.00    +0.000 HD
ENDBRANCH  12  18
BRANCH  15  20
ATOM     20  C   UNL     1       2.467   6.500  18.066  0.00  0.00    +0.000 C 
BRANCH  20  21
ATOM     21  C   UNL     1       3.907   6.185  18.393  0.00  0.00    +0.000 A 
ATOM     22  C   UNL     1       4.954   6.975  17.892  0.00  0.00    +0.000 A 
ATOM     23  C   UNL     1       6.282   6.602  18.111  0.00  0.00    +0.000 A 
ATOM     24 BR   UNL     1       7.678   7.632  17.360  0.00  0.00    +0.000 Br
ATOM     25  C   UNL     1       6.587   5.464  18.855  0.00  0.00    +0.000 A 
ATOM     26  C   UNL     1       5.553   4.705  19.403  0.00  0.00    +0.000 A 
ATOM     27  C   UNL     1       4.229   5.069  19.173  0.00  0.00    +0.000 A 
ATOM     28  F   UNL     1       3.255   4.321  19.708  0.00  0.00    +0.000 F 
ENDBRANCH  20  21
ENDBRANCH  15  20
TORSDOF 4
ENDMDL
MODEL 6
REMARK VINA RESULT:      -7.0      3.333      7.581
REMARK  Name = 
REMARK  4 active torsions:
REMARK  status: ('A' for Active; 'I' for Inactive)
REMARK    1  A    between atoms: C_5  and  O_6
REMARK    2  A    between atoms: C_13  and  O_14
REMARK    3  A    between atoms: N_17  and  C_18
REMARK    4  A    between atoms: C_18  and  C_19
REMARK                            x       y       z     vdW  Elec       q    Type
REMARK                         _______ _______ _______ _____ _____    ______ ____
ROOT
ATOM      1  O   UNL     1       1.770   8.454  22.297  0.00  0.00    +0.000 OA
ATOM      2  C   UNL     1       1.330   8.863  21.242  0.00  0.00    +0.000 C 
ATOM      3  C   UNL     1       0.281   9.876  21.082  0.00  0.00    +0.000 A 
ATOM      4  C   UNL     1       0.112  10.079  19.732  0.00  0.00    +0.000 A 
ATOM      5  C   UNL     1      -0.792  10.995  19.230  0.00  0.00    +0.000 A 
ATOM      6  C   UNL     1      -1.574  11.740  20.125  0.00  0.00    +0.000 A 
ATOM      7  N   UNL     1      -2.476  12.652  19.691  0.00  0.00    +0.000 NA
ATOM      8  C   UNL     1      -3.189  13.316  20.626  0.00  0.00    +0.000 A 
ATOM      9  C   UNL     1      -3.022  13.090  21.975  0.00  0.00    +0.000 A 
ATOM     10  N   UNL     1      -2.129  12.192  22.450  0.00  0.00    +0.000 NA
ATOM     11  C   UNL     1      -1.407  11.521  21.528  0.00  0.00    +0.000 A 
ATOM     12  C   UNL     1      -0.474  10.588  21.985  0.00  0.00    +0.000 A 
ATOM     13  C   UNL     1       1.028   9.194  19.026  0.00  0.00    +0.000 C 
ATOM     14  O   UNL     1       1.089   9.156  17.812  0.00  0.00    +0.000 OA
ATOM     15  N   UNL     1       1.721   8.507  19.977  0.00  0.00    +0.000 N 
ENDROOT
BRANCH   5  16
ATOM     16  O   UNL     1      -0.925  11.178  17.877  0.00  0.00    +0.000 OA
ATOM     17  H   UNL     1      -0.091  10.935  17.425  0.00  0.00    +0.000 HD
ENDBRANCH   5  16
BRANCH  12  18
ATOM     18  O   UNL     1      -0.327  10.396  23.332  0.00  0.00    +0.000 OA
ATOM     19  H   UNL     1       0.271   9.624  23.424  0.00  0.00    +0.000 HD
ENDBRANCH  12  18
BRANCH  15  20
ATOM     20  C   UNL     1       2.797   7.572  19.692  0.00  0.00    +0.000 C 
BRANCH  20  21
ATOM     21  C   UNL     1       2.265   6.183  19.435  0.00  0.00    +0.000 A 
ATOM     22  C   UNL     1       2.013   5.295  20.494  0.00  0.00    +0.000 A 
ATOM     23  C   UNL     1       1.631   3.979  20.231  0.00  0.00    +0.000 A 
ATOM     24 BR   UNL     1       1.374   2.775  21.666  0.00  0.00    +0.000 Br
ATOM     25  C   UNL     1       1.462   3.536  18.920  0.00  0.00    +0.000 A 
ATOM     26  C   UNL     1       1.656   4.427  17.864  0.00  0.00    +0.000 A 
ATOM     27  C   UNL     1       2.052   5.736  18.127  0.00  0.00    +0.000 A 
ATOM     28  F   UNL     1       2.235   6.571  17.095  0.00  0.00    +0.000 F 
ENDBRANCH  20  21
ENDBRANCH  15  20
TORSDOF 4
ENDMDL
MODEL 7
REMARK VINA RESULT:      -7.0      3.409      5.072
REMARK  Name = 
REMARK  4 active torsions:
REMARK  status: ('A' for Active; 'I' for Inactive)
REMARK    1  A    between atoms: C_5  and  O_6
REMARK    2  A    between atoms: C_13  and  O_14
REMARK    3  A    between atoms: N_17  and  C_18
REMARK    4  A    between atoms: C_18  and  C_19
REMARK                            x       y       z     vdW  Elec       q    Type
REMARK                         _______ _______ _______ _____ _____    ______ ____
ROOT
ATOM      1  O   UNL     1      -1.558  13.655  19.815  0.00  0.00    +0.000 OA
ATOM      2  C   UNL     1      -1.299  12.729  20.557  0.00  0.00    +0.000 C 
ATOM      3  C   UNL     1      -0.484  11.558  20.219  0.00  0.00    +0.000 A 
ATOM      4  C   UNL     1      -0.404  10.777  21.348  0.00  0.00    +0.000 A 
ATOM      5  C   UNL     1       0.316   9.598  21.381  0.00  0.00    +0.000 A 
ATOM      6  C   UNL     1       0.984   9.175  20.222  0.00  0.00    +0.000 A 
ATOM      7  N   UNL     1       1.704   8.029  20.196  0.00  0.00    +0.000 NA
ATOM      8  C   UNL     1       2.305   7.699  19.033  0.00  0.00    +0.000 A 
ATOM      9  C   UNL     1       2.202   8.482  17.904  0.00  0.00    +0.000 A 
ATOM     10  N   UNL     1       1.497   9.635  17.889  0.00  0.00    +0.000 NA
ATOM     11  C   UNL     1       0.890   9.981  19.045  0.00  0.00    +0.000 A 
ATOM     12  C   UNL     1       0.156  11.168  19.064  0.00  0.00    +0.000 A 
ATOM     13  C   UNL     1      -1.174  11.426  22.399  0.00  0.00    +0.000 C 
ATOM     14  O   UNL     1      -1.283  10.949  23.513  0.00  0.00    +0.000 OA
ATOM     15  N   UNL     1      -1.672  12.577  21.868  0.00  0.00    +0.000 N 
ENDROOT
BRANCH   5  16
ATOM     16  O   UNL     1       0.383   8.851  22.529  0.00  0.00    +0.000 OA
ATOM     17  H   UNL     1      -0.279   9.172  23.175  0.00  0.00    +0.000 HD
ENDBRANCH   5  16
BRANCH  12  18
ATOM     18  O   UNL     1       0.082  11.926  17.928  0.00  0.00    +0.000 OA
ATOM     19  H   UNL     1      -0.004  12.854  18.236  0.00  0.00    +0.000 HD
ENDBRANCH  12  18
BRANCH  15  20
ATOM     20  C   UNL     1      -2.436  13.562  22.615  0.00  0.00    +0.000 C 
BRANCH  20  21
ATOM     21  C   UNL     1      -3.889  13.165  22.723  0.00  0.00    +0.000 A 
ATOM     22  C   UNL     1      -4.678  12.982  21.576  0.00  0.00    +0.000 A 
ATOM     23  C   UNL     1      -6.045  12.728  21.697  0.00  0.00    +0.000 A 
ATOM     24 BR   UNL     1      -7.108  12.565  20.142  0.00  0.00    +0.000 Br
ATOM     25  C   UNL     1      -6.639  12.619  22.954  0.00  0.00    +0.000 A 
ATOM     26  C   UNL     1      -5.852  12.744  24.098  0.00  0.00    +0.000 A 
ATOM     27  C   UNL     1      -4.490  13.012  23.976  0.00  0.00    +0.000 A 
ATOM     28  F   UNL     1      -3.757  13.131  25.091  0.00  0.00    +0.000 F 
ENDBRANCH  20  21
ENDBRANCH  15  20
TORSDOF 4
ENDMDL
MODEL 8
REMARK VINA RESULT:      -6.9      3.737      7.338
REMARK  Name = 
REMARK  4 active torsions:
REMARK  status: ('A' for Active; 'I' for Inactive)
REMARK    1  A    between atoms: C_5  and  O_6
REMARK    2  A    between atoms: C_13  and  O_14
REMARK    3  A    between atoms: N_17  and  C_18
REMARK    4  A    between atoms: C_18  and  C_19
REMARK                            x       y       z     vdW  Elec       q    Type
REMARK                         _______ _______ _______ _____ _____    ______ ____
ROOT
ATOM      1  O   UNL     1       2.759   7.245  17.049  0.00  0.00    +0.000 OA
ATOM      2  C   UNL     1       2.404   7.307  18.209  0.00  0.00    +0.000 C 
ATOM      3  C   UNL     1       1.931   8.510  18.900  0.00  0.00    +0.000 A 
ATOM      4  C   UNL     1       1.589   8.137  20.180  0.00  0.00    +0.000 A 
ATOM      5  C   UNL     1       1.080   9.034  21.099  0.00  0.00    +0.000 A 
ATOM      6  C   UNL     1       0.912  10.374  20.722  0.00  0.00    +0.000 A 
ATOM      7  N   UNL     1       0.418  11.297  21.580  0.00  0.00    +0.000 NA
ATOM      8  C   UNL     1       0.299  12.565  21.131  0.00  0.00    +0.000 A 
ATOM      9  C   UNL     1       0.661  12.928  19.852  0.00  0.00    +0.000 A 
ATOM     10  N   UNL     1       1.154  12.037  18.963  0.00  0.00    +0.000 NA
ATOM     11  C   UNL     1       1.278  10.764  19.396  0.00  0.00    +0.000 A 
ATOM     12  C   UNL     1       1.781   9.818  18.501  0.00  0.00    +0.000 A 
ATOM     13  C   UNL     1       1.856   6.713  20.319  0.00  0.00    +0.000 C 
ATOM     14  O   UNL     1       1.652   6.112  21.357  0.00  0.00    +0.000 OA
ATOM     15  N   UNL     1       2.331   6.283  19.117  0.00  0.00    +0.000 N 
ENDROOT
BRANCH   5  16
ATOM     16  O   UNL     1       0.740   8.623  22.363  0.00  0.00    +0.000 OA
ATOM     17  H   UNL     1       1.517   8.690  22.955  0.00  0.00    +0.000 HD
ENDBRANCH   5  16
BRANCH  12  18
ATOM     18  O   UNL     1       2.122  10.212  17.236  0.00  0.00    +0.000 OA
ATOM     19  H   UNL     1       2.898  10.802  17.344  0.00  0.00    +0.000 HD
ENDBRANCH  12  18
BRANCH  15  20
ATOM     20  C   UNL     1       2.646   4.898  18.808  0.00  0.00    +0.000 C 
BRANCH  20  21
ATOM     21  C   UNL     1       4.043   4.762  18.251  0.00  0.00    +0.000 A 
ATOM     22  C   UNL     1       5.155   5.247  18.957  0.00  0.00    +0.000 A 
ATOM     23  C   UNL     1       6.425   5.216  18.377  0.00  0.00    +0.000 A 
ATOM     24 BR   UNL     1       7.898   5.947  19.308  0.00  0.00    +0.000 Br
ATOM     25  C   UNL     1       6.611   4.673  17.106  0.00  0.00    +0.000 A 
ATOM     26  C   UNL     1       5.520   4.139  16.421  0.00  0.00    +0.000 A 
ATOM     27  C   UNL     1       4.252   4.184  16.995  0.00  0.00    +0.000 A 
ATOM     28  F   UNL     1       3.221   3.667  16.314  0.00  0.00    +0.000 F 
ENDBRANCH  20  21
ENDBRANCH  15  20
TORSDOF 4
ENDMDL
MODEL 9
REMARK VINA RESULT:      -6.9      0.938      1.031
REMARK  Name = 
REMARK  4 active torsions:
REMARK  status: ('A' for Active; 'I' for Inactive)
REMARK    1  A    between atoms: C_5  and  O_6
REMARK    2  A    between atoms: C_13  and  O_14
REMARK    3  A    between atoms: N_17  and  C_18
REMARK    4  A    between atoms: C_18  and  C_19
REMARK                            x       y       z     vdW  Elec       q    Type
REMARK                         _______ _______ _______ _____ _____    ______ ____
ROOT
ATOM      1  O   UNL     1       2.915   9.004  16.996  0.00  0.00    +0.000 OA
ATOM      2  C   UNL     1       2.529   8.458  18.010  0.00  0.00    +0.000 C 
ATOM      3  C   UNL     1       2.799   7.068  18.394  0.00  0.00    +0.000 A 
ATOM      4  C   UNL     1       2.221   6.866  19.626  0.00  0.00    +0.000 A 
ATOM      5  C   UNL     1       2.308   5.660  20.293  0.00  0.00    +0.000 A 
ATOM      6  C   UNL     1       3.001   4.598  19.693  0.00  0.00    +0.000 A 
ATOM      7  N   UNL     1       3.118   3.394  20.300  0.00  0.00    +0.000 NA
ATOM      8  C   UNL     1       3.796   2.429  19.643  0.00  0.00    +0.000 A 
ATOM      9  C   UNL     1       4.355   2.639  18.401  0.00  0.00    +0.000 A 
ATOM     10  N   UNL     1       4.265   3.828  17.763  0.00  0.00    +0.000 NA
ATOM     11  C   UNL     1       3.591   4.805  18.408  0.00  0.00    +0.000 A 
ATOM     12  C   UNL     1       3.482   6.045  17.777  0.00  0.00    +0.000 A 
ATOM     13  C   UNL     1       1.569   8.105  20.025  0.00  0.00    +0.000 C 
ATOM     14  O   UNL     1       0.967   8.213  21.077  0.00  0.00    +0.000 OA
ATOM     15  N   UNL     1       1.793   9.006  19.028  0.00  0.00    +0.000 N 
ENDROOT
BRANCH   5  16
ATOM     16  O   UNL     1       1.728   5.499  21.526  0.00  0.00    +0.000 OA
ATOM     17  H   UNL     1       1.049   6.190  21.668  0.00  0.00    +0.000 HD
ENDBRANCH   5  16
BRANCH  12  18
ATOM     18  O   UNL     1       4.057   6.222  16.549  0.00  0.00    +0.000 OA
ATOM     19  H   UNL     1       4.999   5.970  16.660  0.00  0.00    +0.000 HD
ENDBRANCH  12  18
BRANCH  15  20
ATOM     20  C   UNL     1       1.376  10.397  19.071  0.00  0.00    +0.000 C 
BRANCH  20  21
ATOM     21  C   UNL     1      -0.105  10.536  18.808  0.00  0.00    +0.000 A 
ATOM     22  C   UNL     1      -0.679  10.057  17.620  0.00  0.00    +0.000 A 
ATOM     23  C   UNL     1      -2.026  10.295  17.344  0.00  0.00    +0.000 A 
ATOM     24 BR   UNL     1      -2.763   9.714  15.703  0.00  0.00    +0.000 Br
ATOM     25  C   UNL     1      -2.828  10.981  18.256  0.00  0.00    +0.000 A 
ATOM     26  C   UNL     1      -2.279  11.412  19.464  0.00  0.00    +0.000 A 
ATOM     27  C   UNL     1      -0.930  11.186  19.731  0.00  0.00    +0.000 A 
ATOM     28  F   UNL     1      -0.427  11.613  20.897  0.00  0.00    +0.000 F 
ENDBRANCH  20  21
ENDBRANCH  15  20
TORSDOF 4
ENDMDL
