MODEL 1
REMARK VINA RESULT:      -7.7      0.000      0.000
REMARK  Name = 
REMARK  9 active torsions:
REMARK  status: ('A' for Active; 'I' for Inactive)
REMARK    1  A    between atoms: C_1  and  O_2
REMARK    2  A    between atoms: O_2  and  C_3
REMARK    3  A    between atoms: C_7  and  C_8
REMARK    4  A    between atoms: C_8  and  N_9
REMARK    5  A    between atoms: C_10  and  C_12
REMARK    6  A    between atoms: C_12  and  C_13
REMARK    7  A    between atoms: C_13  and  C_14
REMARK    8  A    between atoms: C_14  and  S_15
REMARK    9  A    between atoms: S_15  and  C_16
REMARK                            x       y       z     vdW  Elec       q    Type
REMARK                         _______ _______ _______ _____ _____    ______ ____
ROOT
ATOM      1  N   UNL     1       8.399   8.462  18.464  0.00  0.00    +0.000 N 
ATOM      2  C   UNL     1       7.719   7.432  17.860  0.00  0.00    +0.000 C 
ATOM      3  O   UNL     1       7.139   7.550  16.784  0.00  0.00    +0.000 OA
ATOM      4  H   UNL     1       8.658   8.385  19.438  0.00  0.00    +0.000 HD
ENDROOT
BRANCH   1   5
ATOM      5  C   UNL     1       8.455   9.767  17.849  0.00  0.00    +0.000 C 
BRANCH   5  10
ATOM      6  C   UNL     1      11.307  12.213  18.494  0.00  0.00    +0.000 A 
ATOM      7  C   UNL     1      11.291  12.281  19.888  0.00  0.00    +0.000 A 
ATOM      8  C   UNL     1      10.348  11.562  20.623  0.00  0.00    +0.000 A 
ATOM      9  C   UNL     1       9.416  10.762  19.962  0.00  0.00    +0.000 A 
ATOM     10  C   UNL     1       9.417  10.679  18.563  0.00  0.00    +0.000 A 
ATOM     11  C   UNL     1      10.368  11.416  17.837  0.00  0.00    +0.000 A 
BRANCH   6  13
ATOM     12  C   UNL     1      11.865  14.045  17.086  0.00  0.00    +0.000 C 
ATOM     13  O   UNL     1      12.288  12.953  17.893  0.00  0.00    +0.000 OA
ENDBRANCH   6  13
ENDBRANCH   5  10
ENDBRANCH   1   5
BRANCH   2  14
ATOM     14  C   UNL     1       7.753   6.134  18.642  0.00  0.00    +0.000 C 
BRANCH  14  15
ATOM     15  C   UNL     1       6.610   5.192  18.254  0.00  0.00    +0.000 C 
BRANCH  15  16
ATOM     16  C   UNL     1       5.403   5.341  19.187  0.00  0.00    +0.000 C 
BRANCH  16  17
ATOM     17  S   UNL     1       3.925   5.792  18.218  0.00  0.00    +0.000 S 
BRANCH  17  18
ATOM     18  C   UNL     1       2.664   4.737  18.922  0.00  0.00    +0.000 A 
ATOM     19  C   UNL     1       2.009   3.849  18.058  0.00  0.00    +0.000 A 
ATOM     20  C   UNL     1       1.035   2.970  18.537  0.00  0.00    +0.000 A 
ATOM     21  C   UNL     1       0.708   2.965  19.890  0.00  0.00    +0.000 A 
ATOM     22  C   UNL     1       1.361   3.831  20.763  0.00  0.00    +0.000 A 
ATOM     23  C   UNL     1       2.338   4.709  20.282  0.00  0.00    +0.000 A 
ENDBRANCH  17  18
ENDBRANCH  16  17
ENDBRANCH  15  16
ENDBRANCH  14  15
ENDBRANCH   2  14
TORSDOF 8
ENDMDL
MODEL 2
REMARK VINA RESULT:      -7.4      0.861      1.115
REMARK  Name = 
REMARK  9 active torsions:
REMARK  status: ('A' for Active; 'I' for Inactive)
REMARK    1  A    between atoms: C_1  and  O_2
REMARK    2  A    between atoms: O_2  and  C_3
REMARK    3  A    between atoms: C_7  and  C_8
REMARK    4  A    between atoms: C_8  and  N_9
REMARK    5  A    between atoms: C_10  and  C_12
REMARK    6  A    between atoms: C_12  and  C_13
REMARK    7  A    between atoms: C_13  and  C_14
REMARK    8  A    between atoms: C_14  and  S_15
REMARK    9  A    between atoms: S_15  and  C_16
REMARK                            x       y       z     vdW  Elec       q    Type
REMARK                         _______ _______ _______ _____ _____    ______ ____
ROOT
ATOM      1  N   UNL     1       8.311   8.286  18.649  0.00  0.00    +0.000 N 
ATOM      2  C   UNL     1       7.886   7.142  18.019  0.00  0.00    +0.000 C 
ATOM      3  O   UNL     1       7.613   7.096  16.823  0.00  0.00    +0.000 OA
ATOM      4  H   UNL     1       8.301   8.332  19.659  0.00  0.00    +0.000 HD
ENDROOT
BRANCH   1   5
ATOM      5  C   UNL     1       8.447   9.523  17.916  0.00  0.00    +0.000 C 
BRANCH   5  10
ATOM      6  C   UNL     1      10.948  12.305  18.651  0.00  0.00    +0.000 A 
ATOM      7  C   UNL     1      10.943  12.307  20.047  0.00  0.00    +0.000 A 
ATOM      8  C   UNL     1      10.117  11.433  20.755  0.00  0.00    +0.000 A 
ATOM      9  C   UNL     1       9.294  10.544  20.066  0.00  0.00    +0.000 A 
ATOM     10  C   UNL     1       9.286  10.525  18.664  0.00  0.00    +0.000 A 
ATOM     11  C   UNL     1      10.117  11.417  17.965  0.00  0.00    +0.000 A 
BRANCH   6  13
ATOM     12  C   UNL     1      11.751  13.329  16.663  0.00  0.00    +0.000 C 
ATOM     13  O   UNL     1      11.810  13.199  18.077  0.00  0.00    +0.000 OA
ENDBRANCH   6  13
ENDBRANCH   5  10
ENDBRANCH   1   5
BRANCH   2  14
ATOM     14  C   UNL     1       7.791   5.938  18.935  0.00  0.00    +0.000 C 
BRANCH  14  15
ATOM     15  C   UNL     1       6.340   5.533  19.213  0.00  0.00    +0.000 C 
BRANCH  15  16
ATOM     16  C   UNL     1       5.851   4.455  18.240  0.00  0.00    +0.000 C 
BRANCH  16  17
ATOM     17  S   UNL     1       4.179   4.875  17.642  0.00  0.00    +0.000 S 
BRANCH  17  18
ATOM     18  C   UNL     1       3.132   4.251  18.951  0.00  0.00    +0.000 A 
ATOM     19  C   UNL     1       2.221   5.144  19.529  0.00  0.00    +0.000 A 
ATOM     20  C   UNL     1       1.347   4.725  20.535  0.00  0.00    +0.000 A 
ATOM     21  C   UNL     1       1.371   3.403  20.972  0.00  0.00    +0.000 A 
ATOM     22  C   UNL     1       2.262   2.501  20.397  0.00  0.00    +0.000 A 
ATOM     23  C   UNL     1       3.134   2.921  19.387  0.00  0.00    +0.000 A 
ENDBRANCH  17  18
ENDBRANCH  16  17
ENDBRANCH  15  16
ENDBRANCH  14  15
ENDBRANCH   2  14
TORSDOF 8
ENDMDL
MODEL 3
REMARK VINA RESULT:      -7.0      5.121      7.275
REMARK  Name = 
REMARK  9 active torsions:
REMARK  status: ('A' for Active; 'I' for Inactive)
REMARK    1  A    between atoms: C_1  and  O_2
REMARK    2  A    between atoms: O_2  and  C_3
REMARK    3  A    between atoms: C_7  and  C_8
REMARK    4  A    between atoms: C_8  and  N_9
REMARK    5  A    between atoms: C_10  and  C_12
REMARK    6  A    between atoms: C_12  and  C_13
REMARK    7  A    between atoms: C_13  and  C_14
REMARK    8  A    between atoms: C_14  and  S_15
REMARK    9  A    between atoms: S_15  and  C_16
REMARK                            x       y       z     vdW  Elec       q    Type
REMARK                         _______ _______ _______ _____ _____    ______ ____
ROOT
ATOM      1  N   UNL     1       3.068   2.745  18.683  0.00  0.00    +0.000 N 
ATOM      2  C   UNL     1       1.766   3.177  18.603  0.00  0.00    +0.000 C 
ATOM      3  O   UNL     1       1.245   3.548  17.554  0.00  0.00    +0.000 OA
ATOM      4  H   UNL     1       3.514   2.672  19.587  0.00  0.00    +0.000 HD
ENDROOT
BRANCH   1   5
ATOM      5  C   UNL     1       3.908   2.719  17.508  0.00  0.00    +0.000 C 
BRANCH   5  10
ATOM      6  C   UNL     1       6.641   5.146  16.424  0.00  0.00    +0.000 A 
ATOM      7  C   UNL     1       7.026   5.682  17.654  0.00  0.00    +0.000 A 
ATOM      8  C   UNL     1       6.392   5.284  18.831  0.00  0.00    +0.000 A 
ATOM      9  C   UNL     1       5.368   4.339  18.783  0.00  0.00    +0.000 A 
ATOM     10  C   UNL     1       4.968   3.787  17.558  0.00  0.00    +0.000 A 
ATOM     11  C   UNL     1       5.611   4.204  16.381  0.00  0.00    +0.000 A 
BRANCH   6  13
ATOM     12  C   UNL     1       7.188   4.901  14.124  0.00  0.00    +0.000 C 
ATOM     13  O   UNL     1       7.349   5.607  15.348  0.00  0.00    +0.000 OA
ENDBRANCH   6  13
ENDBRANCH   5  10
ENDBRANCH   1   5
BRANCH   2  14
ATOM     14  C   UNL     1       1.029   3.148  19.927  0.00  0.00    +0.000 C 
BRANCH  14  15
ATOM     15  C   UNL     1       1.682   4.055  20.974  0.00  0.00    +0.000 C 
BRANCH  15  16
ATOM     16  C   UNL     1       1.345   5.532  20.743  0.00  0.00    +0.000 C 
BRANCH  16  17
ATOM     17  S   UNL     1       2.653   6.316  19.741  0.00  0.00    +0.000 S 
BRANCH  17  18
ATOM     18  C   UNL     1       1.965   7.931  19.403  0.00  0.00    +0.000 A 
ATOM     19  C   UNL     1       1.264   8.564  20.438  0.00  0.00    +0.000 A 
ATOM     20  C   UNL     1       0.724   9.840  20.263  0.00  0.00    +0.000 A 
ATOM     21  C   UNL     1       0.885  10.503  19.049  0.00  0.00    +0.000 A 
ATOM     22  C   UNL     1       1.591   9.892  18.016  0.00  0.00    +0.000 A 
ATOM     23  C   UNL     1       2.134   8.615  18.193  0.00  0.00    +0.000 A 
ENDBRANCH  17  18
ENDBRANCH  16  17
ENDBRANCH  15  16
ENDBRANCH  14  15
ENDBRANCH   2  14
TORSDOF 8
ENDMDL
MODEL 4
REMARK VINA RESULT:      -6.9      5.155      7.224
REMARK  Name = 
REMARK  9 active torsions:
REMARK  status: ('A' for Active; 'I' for Inactive)
REMARK    1  A    between atoms: C_1  and  O_2
REMARK    2  A    between atoms: O_2  and  C_3
REMARK    3  A    between atoms: C_7  and  C_8
REMARK    4  A    between atoms: C_8  and  N_9
REMARK    5  A    between atoms: C_10  and  C_12
REMARK    6  A    between atoms: C_12  and  C_13
REMARK    7  A    between atoms: C_13  and  C_14
REMARK    8  A    between atoms: C_14  and  S_15
REMARK    9  A    between atoms: S_15  and  C_16
REMARK                            x       y       z     vdW  Elec       q    Type
REMARK                         _______ _______ _______ _____ _____    ______ ____
ROOT
ATOM      1  N   UNL     1       3.072   3.046  18.666  0.00  0.00    +0.000 N 
ATOM      2  C   UNL     1       1.725   3.291  18.547  0.00  0.00    +0.000 C 
ATOM      3  O   UNL     1       1.149   3.364  17.466  0.00  0.00    +0.000 OA
ATOM      4  H   UNL     1       3.535   3.223  19.548  0.00  0.00    +0.000 HD
ENDROOT
BRANCH   1   5
ATOM      5  C   UNL     1       3.894   2.870  17.492  0.00  0.00    +0.000 C 
BRANCH   5  10
ATOM      6  C   UNL     1       6.812   4.980  16.240  0.00  0.00    +0.000 A 
ATOM      7  C   UNL     1       7.270   5.540  17.434  0.00  0.00    +0.000 A 
ATOM      8  C   UNL     1       6.626   5.262  18.641  0.00  0.00    +0.000 A 
ATOM      9  C   UNL     1       5.520   4.412  18.658  0.00  0.00    +0.000 A 
ATOM     10  C   UNL     1       5.047   3.838  17.469  0.00  0.00    +0.000 A 
ATOM     11  C   UNL     1       5.701   4.135  16.262  0.00  0.00    +0.000 A 
BRANCH   6  13
ATOM     12  C   UNL     1       7.059   4.841  13.881  0.00  0.00    +0.000 C 
ATOM     13  O   UNL     1       7.537   5.320  15.131  0.00  0.00    +0.000 OA
ENDBRANCH   6  13
ENDBRANCH   5  10
ENDBRANCH   1   5
BRANCH   2  14
ATOM     14  C   UNL     1       1.014   3.459  19.875  0.00  0.00    +0.000 C 
BRANCH  14  15
ATOM     15  C   UNL     1       1.893   4.153  20.921  0.00  0.00    +0.000 C 
BRANCH  15  16
ATOM     16  C   UNL     1       1.693   5.672  20.918  0.00  0.00    +0.000 C 
BRANCH  16  17
ATOM     17  S   UNL     1       2.631   6.417  19.541  0.00  0.00    +0.000 S 
BRANCH  17  18
ATOM     18  C   UNL     1       1.903   8.046  19.415  0.00  0.00    +0.000 A 
ATOM     19  C   UNL     1       1.982   8.693  18.175  0.00  0.00    +0.000 A 
ATOM     20  C   UNL     1       1.411   9.954  17.987  0.00  0.00    +0.000 A 
ATOM     21  C   UNL     1       0.748  10.581  19.039  0.00  0.00    +0.000 A 
ATOM     22  C   UNL     1       0.650   9.944  20.272  0.00  0.00    +0.000 A 
ATOM     23  C   UNL     1       1.219   8.680  20.459  0.00  0.00    +0.000 A 
ENDBRANCH  17  18
ENDBRANCH  16  17
ENDBRANCH  15  16
ENDBRANCH  14  15
ENDBRANCH   2  14
TORSDOF 8
ENDMDL
MODEL 5
REMARK VINA RESULT:      -6.9      4.870      7.839
REMARK  Name = 
REMARK  9 active torsions:
REMARK  status: ('A' for Active; 'I' for Inactive)
REMARK    1  A    between atoms: C_1  and  O_2
REMARK    2  A    between atoms: O_2  and  C_3
REMARK    3  A    between atoms: C_7  and  C_8
REMARK    4  A    between atoms: C_8  and  N_9
REMARK    5  A    between atoms: C_10  and  C_12
REMARK    6  A    between atoms: C_12  and  C_13
REMARK    7  A    between atoms: C_13  and  C_14
REMARK    8  A    between atoms: C_14  and  S_15
REMARK    9  A    between atoms: S_15  and  C_16
REMARK                            x       y       z     vdW  Elec       q    Type
REMARK                         _______ _______ _______ _____ _____    ______ ____
ROOT
ATOM      1  N   UNL     1       2.781   5.452  20.489  0.00  0.00    +0.000 N 
ATOM      2  C   UNL     1       2.372   4.211  20.065  0.00  0.00    +0.000 C 
ATOM      3  O   UNL     1       1.191   3.901  19.937  0.00  0.00    +0.000 OA
ATOM      4  H   UNL     1       3.736   5.584  20.795  0.00  0.00    +0.000 HD
ENDROOT
BRANCH   1   5
ATOM      5  C   UNL     1       1.815   6.471  20.824  0.00  0.00    +0.000 C 
BRANCH   5  10
ATOM      6  C   UNL     1       1.132   9.848  19.193  0.00  0.00    +0.000 A 
ATOM      7  C   UNL     1       1.794   9.696  17.974  0.00  0.00    +0.000 A 
ATOM      8  C   UNL     1       2.483   8.517  17.683  0.00  0.00    +0.000 A 
ATOM      9  C   UNL     1       2.506   7.480  18.614  0.00  0.00    +0.000 A 
ATOM     10  C   UNL     1       1.846   7.613  19.843  0.00  0.00    +0.000 A 
ATOM     11  C   UNL     1       1.164   8.809  20.124  0.00  0.00    +0.000 A 
BRANCH   6  13
ATOM     12  C   UNL     1      -0.622  11.060  20.243  0.00  0.00    +0.000 C 
ATOM     13  O   UNL     1       0.484  11.043  19.350  0.00  0.00    +0.000 OA
ENDBRANCH   6  13
ENDBRANCH   5  10
ENDBRANCH   1   5
BRANCH   2  14
ATOM     14  C   UNL     1       3.513   3.261  19.762  0.00  0.00    +0.000 C 
BRANCH  14  15
ATOM     15  C   UNL     1       3.599   2.911  18.273  0.00  0.00    +0.000 C 
BRANCH  15  16
ATOM     16  C   UNL     1       3.615   4.164  17.392  0.00  0.00    +0.000 C 
BRANCH  16  17
ATOM     17  S   UNL     1       5.072   4.128  16.294  0.00  0.00    +0.000 S 
BRANCH  17  18
ATOM     18  C   UNL     1       6.225   5.198  17.146  0.00  0.00    +0.000 A 
ATOM     19  C   UNL     1       6.288   6.536  16.735  0.00  0.00    +0.000 A 
ATOM     20  C   UNL     1       7.140   7.441  17.371  0.00  0.00    +0.000 A 
ATOM     21  C   UNL     1       7.936   7.019  18.433  0.00  0.00    +0.000 A 
ATOM     22  C   UNL     1       7.874   5.696  18.861  0.00  0.00    +0.000 A 
ATOM     23  C   UNL     1       7.018   4.791  18.225  0.00  0.00    +0.000 A 
ENDBRANCH  17  18
ENDBRANCH  16  17
ENDBRANCH  15  16
ENDBRANCH  14  15
ENDBRANCH   2  14
TORSDOF 8
ENDMDL
MODEL 6
REMARK VINA RESULT:      -6.8      5.159      7.834
REMARK  Name = 
REMARK  9 active torsions:
REMARK  status: ('A' for Active; 'I' for Inactive)
REMARK    1  A    between atoms: C_1  and  O_2
REMARK    2  A    between atoms: O_2  and  C_3
REMARK    3  A    between atoms: C_7  and  C_8
REMARK    4  A    between atoms: C_8  and  N_9
REMARK    5  A    between atoms: C_10  and  C_12
REMARK    6  A    between atoms: C_12  and  C_13
REMARK    7  A    between atoms: C_13  and  C_14
REMARK    8  A    between atoms: C_14  and  S_15
REMARK    9  A    between atoms: S_15  and  C_16
REMARK                            x       y       z     vdW  Elec       q    Type
REMARK                         _______ _______ _______ _____ _____    ______ ____
ROOT
ATOM      1  N   UNL     1       2.619   4.753  20.383  0.00  0.00    +0.000 N 
ATOM      2  C   UNL     1       2.650   3.534  21.015  0.00  0.00    +0.000 C 
ATOM      3  O   UNL     1       2.047   3.303  22.059  0.00  0.00    +0.000 OA
ATOM      4  H   UNL     1       3.303   4.961  19.667  0.00  0.00    +0.000 HD
ENDROOT
BRANCH   1   5
ATOM      5  C   UNL     1       1.866   5.852  20.940  0.00  0.00    +0.000 C 
BRANCH   5  10
ATOM      6  C   UNL     1       1.259   9.368  19.598  0.00  0.00    +0.000 A 
ATOM      7  C   UNL     1       1.852   9.280  18.337  0.00  0.00    +0.000 A 
ATOM      8  C   UNL     1       2.471   8.099  17.925  0.00  0.00    +0.000 A 
ATOM      9  C   UNL     1       2.493   6.994  18.776  0.00  0.00    +0.000 A 
ATOM     10  C   UNL     1       1.900   7.062  20.045  0.00  0.00    +0.000 A 
ATOM     11  C   UNL     1       1.289   8.261  20.448  0.00  0.00    +0.000 A 
BRANCH   6  13
ATOM     12  C   UNL     1       0.038  11.241  18.794  0.00  0.00    +0.000 C 
ATOM     13  O   UNL     1       0.674  10.574  19.875  0.00  0.00    +0.000 OA
ENDBRANCH   6  13
ENDBRANCH   5  10
ENDBRANCH   1   5
BRANCH   2  14
ATOM     14  C   UNL     1       3.493   2.496  20.301  0.00  0.00    +0.000 C 
BRANCH  14  15
ATOM     15  C   UNL     1       3.062   2.299  18.844  0.00  0.00    +0.000 C 
BRANCH  15  16
ATOM     16  C   UNL     1       4.214   2.550  17.867  0.00  0.00    +0.000 C 
BRANCH  16  17
ATOM     17  S   UNL     1       3.962   4.140  17.008  0.00  0.00    +0.000 S 
BRANCH  17  18
ATOM     18  C   UNL     1       5.394   5.084  17.513  0.00  0.00    +0.000 A 
ATOM     19  C   UNL     1       5.873   4.884  18.814  0.00  0.00    +0.000 A 
ATOM     20  C   UNL     1       7.006   5.560  19.273  0.00  0.00    +0.000 A 
ATOM     21  C   UNL     1       7.678   6.442  18.432  0.00  0.00    +0.000 A 
ATOM     22  C   UNL     1       7.223   6.640  17.131  0.00  0.00    +0.000 A 
ATOM     23  C   UNL     1       6.090   5.960  16.672  0.00  0.00    +0.000 A 
ENDBRANCH  17  18
ENDBRANCH  16  17
ENDBRANCH  15  16
ENDBRANCH  14  15
ENDBRANCH   2  14
TORSDOF 8
ENDMDL
MODEL 7
REMARK VINA RESULT:      -6.8      5.454      6.430
REMARK  Name = 
REMARK  9 active torsions:
REMARK  status: ('A' for Active; 'I' for Inactive)
REMARK    1  A    between atoms: C_1  and  O_2
REMARK    2  A    between atoms: O_2  and  C_3
REMARK    3  A    between atoms: C_7  and  C_8
REMARK    4  A    between atoms: C_8  and  N_9
REMARK    5  A    between atoms: C_10  and  C_12
REMARK    6  A    between atoms: C_12  and  C_13
REMARK    7  A    between atoms: C_13  and  C_14
REMARK    8  A    between atoms: C_14  and  S_15
REMARK    9  A    between atoms: S_15  and  C_16
REMARK                            x       y       z     vdW  Elec       q    Type
REMARK                         _______ _______ _______ _____ _____    ______ ____
ROOT
ATOM      1  N   UNL     1       3.141   6.710  18.525  0.00  0.00    +0.000 N 
ATOM      2  C   UNL     1       2.317   7.633  19.121  0.00  0.00    +0.000 C 
ATOM      3  O   UNL     1       2.102   8.746  18.647  0.00  0.00    +0.000 OA
ATOM      4  H   UNL     1       3.464   5.913  19.057  0.00  0.00    +0.000 HD
ENDROOT
BRANCH   1   5
ATOM      5  C   UNL     1       3.820   7.019  17.288  0.00  0.00    +0.000 C 
BRANCH   5  10
ATOM      6  C   UNL     1       6.644   5.001  15.713  0.00  0.00    +0.000 A 
ATOM      7  C   UNL     1       7.371   4.627  16.845  0.00  0.00    +0.000 A 
ATOM      8  C   UNL     1       6.969   5.043  18.115  0.00  0.00    +0.000 A 
ATOM      9  C   UNL     1       5.830   5.835  18.258  0.00  0.00    +0.000 A 
ATOM     10  C   UNL     1       5.086   6.219  17.133  0.00  0.00    +0.000 A 
ATOM     11  C   UNL     1       5.508   5.798  15.861  0.00  0.00    +0.000 A 
BRANCH   6  13
ATOM     12  C   UNL     1       6.203   3.879  13.664  0.00  0.00    +0.000 C 
ATOM     13  O   UNL     1       7.133   4.516  14.530  0.00  0.00    +0.000 OA
ENDBRANCH   6  13
ENDBRANCH   5  10
ENDBRANCH   1   5
BRANCH   2  14
ATOM     14  C   UNL     1       1.691   7.151  20.414  0.00  0.00    +0.000 C 
BRANCH  14  15
ATOM     15  C   UNL     1       2.012   5.681  20.702  0.00  0.00    +0.000 C 
BRANCH  15  16
ATOM     16  C   UNL     1       0.758   4.802  20.659  0.00  0.00    +0.000 C 
BRANCH  16  17
ATOM     17  S   UNL     1       1.233   3.042  20.725  0.00  0.00    +0.000 S 
BRANCH  17  18
ATOM     18  C   UNL     1       2.337   2.887  19.327  0.00  0.00    +0.000 A 
ATOM     19  C   UNL     1       1.881   3.358  18.089  0.00  0.00    +0.000 A 
ATOM     20  C   UNL     1       2.696   3.301  16.956  0.00  0.00    +0.000 A 
ATOM     21  C   UNL     1       3.982   2.776  17.050  0.00  0.00    +0.000 A 
ATOM     22  C   UNL     1       4.454   2.318  18.276  0.00  0.00    +0.000 A 
ATOM     23  C   UNL     1       3.638   2.378  19.411  0.00  0.00    +0.000 A 
ENDBRANCH  17  18
ENDBRANCH  16  17
ENDBRANCH  15  16
ENDBRANCH  14  15
ENDBRANCH   2  14
TORSDOF 8
ENDMDL
MODEL 8
REMARK VINA RESULT:      -6.8      4.200      7.087
REMARK  Name = 
REMARK  9 active torsions:
REMARK  status: ('A' for Active; 'I' for Inactive)
REMARK    1  A    between atoms: C_1  and  O_2
REMARK    2  A    between atoms: O_2  and  C_3
REMARK    3  A    between atoms: C_7  and  C_8
REMARK    4  A    between atoms: C_8  and  N_9
REMARK    5  A    between atoms: C_10  and  C_12
REMARK    6  A    between atoms: C_12  and  C_13
REMARK    7  A    between atoms: C_13  and  C_14
REMARK    8  A    between atoms: C_14  and  S_15
REMARK    9  A    between atoms: S_15  and  C_16
REMARK                            x       y       z     vdW  Elec       q    Type
REMARK                         _______ _______ _______ _____ _____    ______ ____
ROOT
ATOM      1  N   UNL     1       2.996   2.876  18.941  0.00  0.00    +0.000 N 
ATOM      2  C   UNL     1       3.203   2.658  20.282  0.00  0.00    +0.000 C 
ATOM      3  O   UNL     1       4.252   2.209  20.735  0.00  0.00    +0.000 OA
ATOM      4  H   UNL     1       2.056   3.024  18.599  0.00  0.00    +0.000 HD
ENDROOT
BRANCH   1   5
ATOM      5  C   UNL     1       4.027   2.567  17.978  0.00  0.00    +0.000 C 
BRANCH   5  10
ATOM      6  C   UNL     1       6.397   5.553  18.024  0.00  0.00    +0.000 A 
ATOM      7  C   UNL     1       6.082   6.164  16.809  0.00  0.00    +0.000 A 
ATOM      8  C   UNL     1       5.125   5.605  15.961  0.00  0.00    +0.000 A 
ATOM      9  C   UNL     1       4.473   4.429  16.330  0.00  0.00    +0.000 A 
ATOM     10  C   UNL     1       4.774   3.801  17.547  0.00  0.00    +0.000 A 
ATOM     11  C   UNL     1       5.746   4.372  18.385  0.00  0.00    +0.000 A 
BRANCH   6  13
ATOM     12  C   UNL     1       7.954   7.342  18.173  0.00  0.00    +0.000 C 
ATOM     13  O   UNL     1       7.340   6.207  18.769  0.00  0.00    +0.000 OA
ENDBRANCH   6  13
ENDBRANCH   5  10
ENDBRANCH   1   5
BRANCH   2  14
ATOM     14  C   UNL     1       2.018   3.029  21.152  0.00  0.00    +0.000 C 
BRANCH  14  15
ATOM     15  C   UNL     1       1.155   4.126  20.521  0.00  0.00    +0.000 C 
BRANCH  15  16
ATOM     16  C   UNL     1       1.643   5.527  20.902  0.00  0.00    +0.000 C 
BRANCH  16  17
ATOM     17  S   UNL     1       2.676   6.209  19.561  0.00  0.00    +0.000 S 
BRANCH  17  18
ATOM     18  C   UNL     1       2.013   7.859  19.364  0.00  0.00    +0.000 A 
ATOM     19  C   UNL     1       2.154   8.465  18.109  0.00  0.00    +0.000 A 
ATOM     20  C   UNL     1       1.636   9.739  17.865  0.00  0.00    +0.000 A 
ATOM     21  C   UNL     1       0.964  10.421  18.876  0.00  0.00    +0.000 A 
ATOM     22  C   UNL     1       0.803   9.825  20.124  0.00  0.00    +0.000 A 
ATOM     23  C   UNL     1       1.320   8.548  20.365  0.00  0.00    +0.000 A 
ENDBRANCH  17  18
ENDBRANCH  16  17
ENDBRANCH  15  16
ENDBRANCH  14  15
ENDBRANCH   2  14
TORSDOF 8
ENDMDL
MODEL 9
REMARK VINA RESULT:      -6.8      4.800      6.526
REMARK  Name = 
REMARK  9 active torsions:
REMARK  status: ('A' for Active; 'I' for Inactive)
REMARK    1  A    between atoms: C_1  and  O_2
REMARK    2  A    between atoms: O_2  and  C_3
REMARK    3  A    between atoms: C_7  and  C_8
REMARK    4  A    between atoms: C_8  and  N_9
REMARK    5  A    between atoms: C_10  and  C_12
REMARK    6  A    between atoms: C_12  and  C_13
REMARK    7  A    between atoms: C_13  and  C_14
REMARK    8  A    between atoms: C_14  and  S_15
REMARK    9  A    between atoms: S_15  and  C_16
REMARK                            x       y       z     vdW  Elec       q    Type
REMARK                         _______ _______ _______ _____ _____    ______ ____
ROOT
ATOM      1  N   UNL     1       4.491   7.210  17.557  0.00  0.00    +0.000 N 
ATOM      2  C   UNL     1       5.404   6.829  16.603  0.00  0.00    +0.000 C 
ATOM      3  O   UNL     1       5.145   6.793  15.403  0.00  0.00    +0.000 OA
ATOM      4  H   UNL     1       4.673   7.005  18.531  0.00  0.00    +0.000 HD
ENDROOT
BRANCH   1   5
ATOM      5  C   UNL     1       3.148   7.585  17.182  0.00  0.00    +0.000 C 
BRANCH   5  10
ATOM      6  C   UNL     1       0.933   9.684  19.468  0.00  0.00    +0.000 A 
ATOM      7  C   UNL     1       0.933   8.908  20.628  0.00  0.00    +0.000 A 
ATOM      8  C   UNL     1       1.624   7.696  20.671  0.00  0.00    +0.000 A 
ATOM      9  C   UNL     1       2.326   7.257  19.549  0.00  0.00    +0.000 A 
ATOM     10  C   UNL     1       2.339   8.024  18.375  0.00  0.00    +0.000 A 
ATOM     11  C   UNL     1       1.632   9.237  18.345  0.00  0.00    +0.000 A 
BRANCH   6  13
ATOM     12  C   UNL     1      -0.773  11.078  18.578  0.00  0.00    +0.000 C 
ATOM     13  O   UNL     1       0.231  10.855  19.559  0.00  0.00    +0.000 OA
ENDBRANCH   6  13
ENDBRANCH   5  10
ENDBRANCH   1   5
BRANCH   2  14
ATOM     14  C   UNL     1       6.761   6.460  17.167  0.00  0.00    +0.000 C 
BRANCH  14  15
ATOM     15  C   UNL     1       7.029   4.953  17.097  0.00  0.00    +0.000 C 
BRANCH  15  16
ATOM     16  C   UNL     1       5.762   4.134  17.362  0.00  0.00    +0.000 C 
BRANCH  16  17
ATOM     17  S   UNL     1       5.422   4.082  19.154  0.00  0.00    +0.000 S 
BRANCH  17  18
ATOM     18  C   UNL     1       3.645   3.889  19.205  0.00  0.00    +0.000 A 
ATOM     19  C   UNL     1       2.956   3.929  17.985  0.00  0.00    +0.000 A 
ATOM     20  C   UNL     1       1.572   3.755  17.937  0.00  0.00    +0.000 A 
ATOM     21  C   UNL     1       0.858   3.533  19.112  0.00  0.00    +0.000 A 
ATOM     22  C   UNL     1       1.530   3.476  20.329  0.00  0.00    +0.000 A 
ATOM     23  C   UNL     1       2.918   3.648  20.375  0.00  0.00    +0.000 A 
ENDBRANCH  17  18
ENDBRANCH  16  17
ENDBRANCH  15  16
ENDBRANCH  14  15
ENDBRANCH   2  14
TORSDOF 8
ENDMDL
