MODEL 1
REMARK VINA RESULT:      -8.1      0.000      0.000
REMARK  Name = 
REMARK  5 active torsions:
REMARK  status: ('A' for Active; 'I' for Inactive)
REMARK    1  A    between atoms: C_2  and  C_12
REMARK    2  A    between atoms: N_3  and  C_4
REMARK    3  A    between atoms: C_4  and  C_5
REMARK    4  A    between atoms: C_5  and  C_6
REMARK    5  A    between atoms: N_16  and  C_17
REMARK                            x       y       z     vdW  Elec       q    Type
REMARK                         _______ _______ _______ _____ _____    ______ ____
ROOT
ATOM      1  C   UNL     1       7.101   5.772  17.795  0.00  0.00    +0.000 C 
ATOM      2  C   UNL     1       6.826   4.926  16.532  0.00  0.00    +0.000 C 
ATOM      3  C   UNL     1       5.330   4.800  16.231  0.00  0.00    +0.000 C 
ATOM      4  C   UNL     1       4.531   4.296  17.439  0.00  0.00    +0.000 C 
ATOM      5  N   UNL     1       4.748   5.240  18.522  0.00  0.00    +0.000 N 
ATOM      6  C   UNL     1       6.154   5.341  18.955  0.00  0.00    +0.000 C 
ENDROOT
BRANCH   5   7
ATOM      7  C   UNL     1       3.654   5.607  19.319  0.00  0.00    +0.000 A 
ATOM      8  N   UNL     1       3.281   4.891  20.412  0.00  0.00    +0.000 NA
ATOM      9  C   UNL     1       2.199   5.314  21.134  0.00  0.00    +0.000 A 
ATOM     10  N   UNL     1       1.418   6.426  21.000  0.00  0.00    +0.000 NA
ATOM     11  C   UNL     1       1.758   7.090  19.886  0.00  0.00    +0.000 A 
ATOM     12  C   UNL     1       2.781   6.682  19.004  0.00  0.00    +0.000 A 
ATOM     13  N   UNL     1       2.783   7.434  17.899  0.00  0.00    +0.000 NA
ATOM     14  C   UNL     1       2.100   8.485  18.267  0.00  0.00    +0.000 A 
ATOM     15  N   UNL     1       1.258   8.296  19.379  0.00  0.00    +0.000 N 
ATOM     16  C   UNL     1       0.214   9.295  19.900  0.00  0.00    +0.000 C 
ATOM     17  C   UNL     1       0.465  10.987  20.537  0.00  0.00    +0.000 C 
ATOM     18  C   UNL     1       1.367  12.388  19.600  0.00  0.00    +0.000 C 
ATOM     19  C   UNL     1       2.737  11.885  18.221  0.00  0.00    +0.000 C 
ATOM     20  C   UNL     1       2.411   9.836  17.557  0.00  0.00    +0.000 C 
ENDBRANCH   5   7
BRANCH   1  22
ATOM     21  O   UNL     1       6.384   7.785  16.594  0.00  0.00    +0.000 OA
ATOM     22  C   UNL     1       7.110   7.282  17.445  0.00  0.00    +0.000 C 
ATOM     23  N   UNL     1       8.132   8.000  18.041  0.00  0.00    +0.000 N 
ATOM     24  H   UNL     1       8.696   7.541  18.746  0.00  0.00    +0.000 HD
BRANCH  23  25
ATOM     25  C   UNL     1       8.286   9.448  17.907  0.00  0.00    +0.000 C 
BRANCH  25  26
ATOM     26  C   UNL     1       9.164  10.131  18.970  0.00  0.00    +0.000 C 
BRANCH  26  27
ATOM     27  C   UNL     1       9.850  11.449  18.343  0.00  0.00    +0.000 A 
ATOM     28  C   UNL     1       8.815  12.979  18.488  0.00  0.00    +0.000 A 
ATOM     29  C   UNL     1       9.361  14.434  19.564  0.00  0.00    +0.000 A 
ATOM     30  C   UNL     1      11.297  14.344  20.110  0.00  0.00    +0.000 A 
ATOM     31  C   UNL     1      12.333  12.909  19.641  0.00  0.00    +0.000 A 
ATOM     32  C   UNL     1      11.606  11.449  18.884  0.00  0.00    +0.000 A 
ENDBRANCH  26  27
ENDBRANCH  25  26
ENDBRANCH  23  25
ENDBRANCH   1  22
TORSDOF 5
ENDMDL
MODEL 2
REMARK VINA RESULT:      -7.9      1.014      1.552
REMARK  Name = 
REMARK  5 active torsions:
REMARK  status: ('A' for Active; 'I' for Inactive)
REMARK    1  A    between atoms: C_2  and  C_12
REMARK    2  A    between atoms: N_3  and  C_4
REMARK    3  A    between atoms: C_4  and  C_5
REMARK    4  A    between atoms: C_5  and  C_6
REMARK    5  A    between atoms: N_16  and  C_17
REMARK                            x       y       z     vdW  Elec       q    Type
REMARK                         _______ _______ _______ _____ _____    ______ ____
ROOT
ATOM      1  C   UNL     1       7.295   6.200  17.596  0.00  0.00    +0.000 C 
ATOM      2  C   UNL     1       6.971   5.909  16.115  0.00  0.00    +0.000 C 
ATOM      3  C   UNL     1       5.487   6.107  15.793  0.00  0.00    +0.000 C 
ATOM      4  C   UNL     1       4.573   5.320  16.740  0.00  0.00    +0.000 C 
ATOM      5  N   UNL     1       4.861   5.773  18.091  0.00  0.00    +0.000 N 
ATOM      6  C   UNL     1       6.247   5.518  18.526  0.00  0.00    +0.000 C 
ENDROOT
BRANCH   5   7
ATOM      7  C   UNL     1       3.788   5.978  18.970  0.00  0.00    +0.000 A 
ATOM      8  N   UNL     1       3.508   5.117  19.984  0.00  0.00    +0.000 NA
ATOM      9  C   UNL     1       2.440   5.387  20.796  0.00  0.00    +0.000 A 
ATOM     10  N   UNL     1       1.594   6.458  20.828  0.00  0.00    +0.000 NA
ATOM     11  C   UNL     1       1.843   7.268  19.789  0.00  0.00    +0.000 A 
ATOM     12  C   UNL     1       2.844   7.028  18.823  0.00  0.00    +0.000 A 
ATOM     13  N   UNL     1       2.752   7.904  17.817  0.00  0.00    +0.000 NA
ATOM     14  C   UNL     1       2.031   8.861  18.336  0.00  0.00    +0.000 A 
ATOM     15  N   UNL     1       1.255   8.493  19.452  0.00  0.00    +0.000 N 
ATOM     16  C   UNL     1       0.184   9.359  20.131  0.00  0.00    +0.000 C 
ATOM     17  C   UNL     1       0.373  10.977  20.956  0.00  0.00    +0.000 C 
ATOM     18  C   UNL     1       1.150  12.530  20.157  0.00  0.00    +0.000 C 
ATOM     19  C   UNL     1       2.478  12.276  18.673  0.00  0.00    +0.000 C 
ATOM     20  C   UNL     1       2.233  10.303  17.782  0.00  0.00    +0.000 C 
ENDBRANCH   5   7
BRANCH   1  22
ATOM     21  O   UNL     1       6.985   8.587  17.131  0.00  0.00    +0.000 OA
ATOM     22  C   UNL     1       7.517   7.718  17.815  0.00  0.00    +0.000 C 
ATOM     23  N   UNL     1       8.506   8.023  18.733  0.00  0.00    +0.000 N 
ATOM     24  H   UNL     1       8.905   7.271  19.281  0.00  0.00    +0.000 HD
BRANCH  23  25
ATOM     25  C   UNL     1       8.832   9.389  19.146  0.00  0.00    +0.000 C 
BRANCH  25  26
ATOM     26  C   UNL     1       9.282  10.340  18.024  0.00  0.00    +0.000 C 
BRANCH  26  27
ATOM     27  C   UNL     1      10.078  11.591  18.659  0.00  0.00    +0.000 A 
ATOM     28  C   UNL     1      11.814  11.773  18.038  0.00  0.00    +0.000 A 
ATOM     29  C   UNL     1      12.333  13.264  16.998  0.00  0.00    +0.000 A 
ATOM     30  C   UNL     1      11.004  14.777  17.051  0.00  0.00    +0.000 A 
ATOM     31  C   UNL     1       9.429  14.605  17.968  0.00  0.00    +0.000 A 
ATOM     32  C   UNL     1       8.924  13.021  18.653  0.00  0.00    +0.000 A 
ENDBRANCH  26  27
ENDBRANCH  25  26
ENDBRANCH  23  25
ENDBRANCH   1  22
TORSDOF 5
ENDMDL
MODEL 3
REMARK VINA RESULT:      -7.7      5.129      9.484
REMARK  Name = 
REMARK  5 active torsions:
REMARK  status: ('A' for Active; 'I' for Inactive)
REMARK    1  A    between atoms: C_2  and  C_12
REMARK    2  A    between atoms: N_3  and  C_4
REMARK    3  A    between atoms: C_4  and  C_5
REMARK    4  A    between atoms: C_5  and  C_6
REMARK    5  A    between atoms: N_16  and  C_17
REMARK                            x       y       z     vdW  Elec       q    Type
REMARK                         _______ _______ _______ _____ _____    ______ ____
ROOT
ATOM      1  C   UNL     1      -0.442   9.803  19.035  0.00  0.00    +0.000 C 
ATOM      2  C   UNL     1      -1.357  10.271  17.882  0.00  0.00    +0.000 C 
ATOM      3  C   UNL     1      -1.392  11.796  17.749  0.00  0.00    +0.000 C 
ATOM      4  C   UNL     1      -1.741  12.491  19.071  0.00  0.00    +0.000 C 
ATOM      5  N   UNL     1      -0.737  12.093  20.044  0.00  0.00    +0.000 N 
ATOM      6  C   UNL     1      -0.711  10.645  20.318  0.00  0.00    +0.000 C 
ENDROOT
BRANCH   5   7
ATOM      7  C   UNL     1      -0.229  13.066  20.915  0.00  0.00    +0.000 A 
ATOM      8  N   UNL     1       0.975  13.664  20.712  0.00  0.00    +0.000 NA
ATOM      9  C   UNL     1       1.400  14.601  21.613  0.00  0.00    +0.000 A 
ATOM     10  N   UNL     1       0.778  15.136  22.704  0.00  0.00    +0.000 NA
ATOM     11  C   UNL     1      -0.379  14.498  22.928  0.00  0.00    +0.000 A 
ATOM     12  C   UNL     1      -0.863  13.437  22.132  0.00  0.00    +0.000 A 
ATOM     13  N   UNL     1      -1.946  12.884  22.685  0.00  0.00    +0.000 NA
ATOM     14  C   UNL     1      -2.342  13.804  23.523  0.00  0.00    +0.000 A 
ATOM     15  N   UNL     1      -1.356  14.736  23.902  0.00  0.00    +0.000 N 
ATOM     16  C   UNL     1      -1.493  15.795  25.006  0.00  0.00    +0.000 C 
ATOM     17  C   UNL     1      -2.670  17.185  25.119  0.00  0.00    +0.000 C 
ATOM     18  C   UNL     1      -4.572  17.023  25.012  0.00  0.00    +0.000 C 
ATOM     19  C   UNL     1      -5.340  15.458  24.018  0.00  0.00    +0.000 C 
ATOM     20  C   UNL     1      -3.859  13.867  23.868  0.00  0.00    +0.000 C 
ENDBRANCH   5   7
BRANCH   1  22
ATOM     21  O   UNL     1       1.752  10.715  18.430  0.00  0.00    +0.000 OA
ATOM     22  C   UNL     1       1.032   9.730  18.561  0.00  0.00    +0.000 C 
ATOM     23  N   UNL     1       1.428   8.479  18.121  0.00  0.00    +0.000 N 
ATOM     24  H   UNL     1       0.802   7.697  18.263  0.00  0.00    +0.000 HD
BRANCH  23  25
ATOM     25  C   UNL     1       2.794   8.167  17.699  0.00  0.00    +0.000 C 
BRANCH  25  26
ATOM     26  C   UNL     1       3.338   6.799  18.142  0.00  0.00    +0.000 C 
BRANCH  26  27
ATOM     27  C   UNL     1       2.110   5.817  18.505  0.00  0.00    +0.000 A 
ATOM     28  C   UNL     1       2.037   4.287  17.463  0.00  0.00    +0.000 A 
ATOM     29  C   UNL     1       2.309   2.574  18.216  0.00  0.00    +0.000 A 
ATOM     30  C   UNL     1       2.209   2.559  20.227  0.00  0.00    +0.000 A 
ATOM     31  C   UNL     1       1.964   4.114  21.162  0.00  0.00    +0.000 A 
ATOM     32  C   UNL     1       2.031   5.711  20.338  0.00  0.00    +0.000 A 
ENDBRANCH  26  27
ENDBRANCH  25  26
ENDBRANCH  23  25
ENDBRANCH   1  22
TORSDOF 5
ENDMDL
MODEL 4
REMARK VINA RESULT:      -7.6      4.423      9.239
REMARK  Name = 
REMARK  5 active torsions:
REMARK  status: ('A' for Active; 'I' for Inactive)
REMARK    1  A    between atoms: C_2  and  C_12
REMARK    2  A    between atoms: N_3  and  C_4
REMARK    3  A    between atoms: C_4  and  C_5
REMARK    4  A    between atoms: C_5  and  C_6
REMARK    5  A    between atoms: N_16  and  C_17
REMARK                            x       y       z     vdW  Elec       q    Type
REMARK                         _______ _______ _______ _____ _____    ______ ____
ROOT
ATOM      1  C   UNL     1      10.263  11.673  17.860  0.00  0.00    +0.000 C 
ATOM      2  C   UNL     1      11.754  11.641  18.260  0.00  0.00    +0.000 C 
ATOM      3  C   UNL     1      12.036  12.461  19.523  0.00  0.00    +0.000 C 
ATOM      4  C   UNL     1      11.506  13.896  19.418  0.00  0.00    +0.000 C 
ATOM      5  N   UNL     1      10.075  13.811  19.183  0.00  0.00    +0.000 N 
ATOM      6  C   UNL     1       9.715  13.131  17.925  0.00  0.00    +0.000 C 
ENDROOT
BRANCH   5   7
ATOM      7  C   UNL     1       9.232  14.700  19.863  0.00  0.00    +0.000 A 
ATOM      8  N   UNL     1       8.670  15.777  19.253  0.00  0.00    +0.000 NA
ATOM      9  C   UNL     1       7.862  16.598  19.990  0.00  0.00    +0.000 A 
ATOM     10  N   UNL     1       7.426  16.497  21.280  0.00  0.00    +0.000 NA
ATOM     11  C   UNL     1       8.031  15.466  21.886  0.00  0.00    +0.000 A 
ATOM     12  C   UNL     1       8.972  14.622  21.257  0.00  0.00    +0.000 A 
ATOM     13  N   UNL     1       9.533  13.794  22.144  0.00  0.00    +0.000 NA
ATOM     14  C   UNL     1       8.696  13.836  23.145  0.00  0.00    +0.000 A 
ATOM     15  N   UNL     1       7.860  14.968  23.184  0.00  0.00    +0.000 N 
ATOM     16  C   UNL     1       6.927  15.363  24.338  0.00  0.00    +0.000 C 
ATOM     17  C   UNL     1       5.506  14.447  25.026  0.00  0.00    +0.000 C 
ATOM     18  C   UNL     1       5.567  12.646  25.665  0.00  0.00    +0.000 C 
ATOM     19  C   UNL     1       6.973  11.419  24.924  0.00  0.00    +0.000 C 
ATOM     20  C   UNL     1       8.603  12.583  24.066  0.00  0.00    +0.000 C 
ENDBRANCH   5   7
BRANCH   1  22
ATOM     21  O   UNL     1       9.354  10.613  19.875  0.00  0.00    +0.000 OA
ATOM     22  C   UNL     1       9.464  10.608  18.653  0.00  0.00    +0.000 C 
ATOM     23  N   UNL     1       9.029   9.538  17.891  0.00  0.00    +0.000 N 
ATOM     24  H   UNL     1       9.133   9.588  16.885  0.00  0.00    +0.000 HD
BRANCH  23  25
ATOM     25  C   UNL     1       8.198   8.456  18.419  0.00  0.00    +0.000 C 
BRANCH  25  26
ATOM     26  C   UNL     1       7.243   7.790  17.414  0.00  0.00    +0.000 C 
BRANCH  26  27
ATOM     27  C   UNL     1       7.307   6.187  17.582  0.00  0.00    +0.000 A 
ATOM     28  C   UNL     1       6.518   5.562  19.137  0.00  0.00    +0.000 A 
ATOM     29  C   UNL     1       4.965   4.484  19.084  0.00  0.00    +0.000 A 
ATOM     30  C   UNL     1       4.573   3.735  17.256  0.00  0.00    +0.000 A 
ATOM     31  C   UNL     1       5.619   4.179  15.821  0.00  0.00    +0.000 A 
ATOM     32  C   UNL     1       6.877   5.459  15.951  0.00  0.00    +0.000 A 
ENDBRANCH  26  27
ENDBRANCH  25  26
ENDBRANCH  23  25
ENDBRANCH   1  22
TORSDOF 5
ENDMDL
MODEL 5
REMARK VINA RESULT:      -7.5      5.186      8.971
REMARK  Name = 
REMARK  5 active torsions:
REMARK  status: ('A' for Active; 'I' for Inactive)
REMARK    1  A    between atoms: C_2  and  C_12
REMARK    2  A    between atoms: N_3  and  C_4
REMARK    3  A    between atoms: C_4  and  C_5
REMARK    4  A    between atoms: C_5  and  C_6
REMARK    5  A    between atoms: N_16  and  C_17
REMARK                            x       y       z     vdW  Elec       q    Type
REMARK                         _______ _______ _______ _____ _____    ______ ____
ROOT
ATOM      1  C   UNL     1       1.900   9.466  19.605  0.00  0.00    +0.000 C 
ATOM      2  C   UNL     1       1.559   8.852  20.980  0.00  0.00    +0.000 C 
ATOM      3  C   UNL     1       0.082   8.463  21.094  0.00  0.00    +0.000 C 
ATOM      4  C   UNL     1      -0.858   9.622  20.739  0.00  0.00    +0.000 C 
ATOM      5  N   UNL     1      -0.547  10.026  19.378  0.00  0.00    +0.000 N 
ATOM      6  C   UNL     1       0.830  10.524  19.201  0.00  0.00    +0.000 C 
ENDROOT
BRANCH   5   7
ATOM      7  C   UNL     1      -1.607  10.326  18.511  0.00  0.00    +0.000 A 
ATOM      8  N   UNL     1      -1.725   9.753  17.285  0.00  0.00    +0.000 NA
ATOM      9  C   UNL     1      -2.787  10.103  16.497  0.00  0.00    +0.000 A 
ATOM     10  N   UNL     1      -3.856  10.914  16.752  0.00  0.00    +0.000 NA
ATOM     11  C   UNL     1      -3.698  11.518  17.939  0.00  0.00    +0.000 A 
ATOM     12  C   UNL     1      -2.584  11.321  18.783  0.00  0.00    +0.000 A 
ATOM     13  N   UNL     1      -2.611  12.174  19.811  0.00  0.00    +0.000 NA
ATOM     14  C   UNL     1      -3.857  12.566  19.826  0.00  0.00    +0.000 A 
ATOM     15  N   UNL     1      -4.556  12.392  18.616  0.00  0.00    +0.000 N 
ATOM     16  C   UNL     1      -5.959  12.932  18.299  0.00  0.00    +0.000 C 
ATOM     17  C   UNL     1      -7.544  12.557  19.124  0.00  0.00    +0.000 C 
ATOM     18  C   UNL     1      -7.876  12.740  20.997  0.00  0.00    +0.000 C 
ATOM     19  C   UNL     1      -6.318  12.616  22.257  0.00  0.00    +0.000 C 
ATOM     20  C   UNL     1      -4.460  13.013  21.190  0.00  0.00    +0.000 C 
ENDBRANCH   5   7
BRANCH   1  22
ATOM     21  O   UNL     1       2.065   8.503  17.356  0.00  0.00    +0.000 OA
ATOM     22  C   UNL     1       2.181   8.349  18.567  0.00  0.00    +0.000 C 
ATOM     23  N   UNL     1       2.404   7.100  19.120  0.00  0.00    +0.000 N 
ATOM     24  H   UNL     1       2.503   7.028  20.125  0.00  0.00    +0.000 HD
BRANCH  23  25
ATOM     25  C   UNL     1       2.759   5.920  18.332  0.00  0.00    +0.000 C 
BRANCH  25  26
ATOM     26  C   UNL     1       1.580   5.118  17.755  0.00  0.00    +0.000 C 
BRANCH  26  27
ATOM     27  C   UNL     1       1.621   3.608  18.322  0.00  0.00    +0.000 A 
ATOM     28  C   UNL     1       3.283   2.801  18.196  0.00  0.00    +0.000 A 
ATOM     29  C   UNL     1       4.267   2.335  19.742  0.00  0.00    +0.000 A 
ATOM     30  C   UNL     1       3.167   2.364  21.429  0.00  0.00    +0.000 A 
ATOM     31  C   UNL     1       1.415   2.891  21.392  0.00  0.00    +0.000 A 
ATOM     32  C   UNL     1       0.692   3.605  19.908  0.00  0.00    +0.000 A 
ENDBRANCH  26  27
ENDBRANCH  25  26
ENDBRANCH  23  25
ENDBRANCH   1  22
TORSDOF 5
ENDMDL
MODEL 6
REMARK VINA RESULT:      -7.5      3.999      9.084
REMARK  Name = 
REMARK  5 active torsions:
REMARK  status: ('A' for Active; 'I' for Inactive)
REMARK    1  A    between atoms: C_2  and  C_12
REMARK    2  A    between atoms: N_3  and  C_4
REMARK    3  A    between atoms: C_4  and  C_5
REMARK    4  A    between atoms: C_5  and  C_6
REMARK    5  A    between atoms: N_16  and  C_17
REMARK                            x       y       z     vdW  Elec       q    Type
REMARK                         _______ _______ _______ _____ _____    ______ ____
ROOT
ATOM      1  C   UNL     1      -0.395  10.013  19.281  0.00  0.00    +0.000 C 
ATOM      2  C   UNL     1      -1.417  10.294  18.157  0.00  0.00    +0.000 C 
ATOM      3  C   UNL     1      -1.512  11.784  17.816  0.00  0.00    +0.000 C 
ATOM      4  C   UNL     1      -1.774  12.652  19.053  0.00  0.00    +0.000 C 
ATOM      5  N   UNL     1      -0.682  12.417  19.982  0.00  0.00    +0.000 N 
ATOM      6  C   UNL     1      -0.585  11.023  20.452  0.00  0.00    +0.000 C 
ENDROOT
BRANCH   5   7
ATOM      7  C   UNL     1      -0.136  13.514  20.663  0.00  0.00    +0.000 A 
ATOM      8  N   UNL     1      -0.516  13.846  21.925  0.00  0.00    +0.000 NA
ATOM      9  C   UNL     1       0.063  14.935  22.518  0.00  0.00    +0.000 A 
ATOM     10  N   UNL     1       1.062  15.759  22.086  0.00  0.00    +0.000 NA
ATOM     11  C   UNL     1       1.385  15.459  20.820  0.00  0.00    +0.000 A 
ATOM     12  C   UNL     1       0.772  14.432  20.070  0.00  0.00    +0.000 A 
ATOM     13  N   UNL     1       1.172  14.472  18.796  0.00  0.00    +0.000 NA
ATOM     14  C   UNL     1       2.260  15.190  18.859  0.00  0.00    +0.000 A 
ATOM     15  N   UNL     1       2.375  16.011  19.997  0.00  0.00    +0.000 N 
ATOM     16  C   UNL     1       3.446  17.086  20.230  0.00  0.00    +0.000 C 
ATOM     17  C   UNL     1       5.258  16.891  20.344  0.00  0.00    +0.000 C 
ATOM     18  C   UNL     1       6.356  16.056  19.021  0.00  0.00    +0.000 C 
ATOM     19  C   UNL     1       5.521  14.685  17.817  0.00  0.00    +0.000 C 
ATOM     20  C   UNL     1       3.357  14.940  17.781  0.00  0.00    +0.000 C 
ENDBRANCH   5   7
BRANCH   1  22
ATOM     21  O   UNL     1       1.757  10.875  18.483  0.00  0.00    +0.000 OA
ATOM     22  C   UNL     1       1.037   9.905  18.697  0.00  0.00    +0.000 C 
ATOM     23  N   UNL     1       1.382   8.637  18.264  0.00  0.00    +0.000 N 
ATOM     24  H   UNL     1       0.758   7.868  18.476  0.00  0.00    +0.000 HD
BRANCH  23  25
ATOM     25  C   UNL     1       2.707   8.293  17.747  0.00  0.00    +0.000 C 
BRANCH  25  26
ATOM     26  C   UNL     1       3.253   6.917  18.163  0.00  0.00    +0.000 C 
BRANCH  26  27
ATOM     27  C   UNL     1       2.031   5.950  18.579  0.00  0.00    +0.000 A 
ATOM     28  C   UNL     1       1.854   4.453  17.502  0.00  0.00    +0.000 A 
ATOM     29  C   UNL     1       2.139   2.714  18.184  0.00  0.00    +0.000 A 
ATOM     30  C   UNL     1       2.173   2.640  20.197  0.00  0.00    +0.000 A 
ATOM     31  C   UNL     1       2.026   4.170  21.190  0.00  0.00    +0.000 A 
ATOM     32  C   UNL     1       2.073   5.790  20.409  0.00  0.00    +0.000 A 
ENDBRANCH  26  27
ENDBRANCH  25  26
ENDBRANCH  23  25
ENDBRANCH   1  22
TORSDOF 5
ENDMDL
MODEL 7
REMARK VINA RESULT:      -7.5      3.454      5.634
REMARK  Name = 
REMARK  5 active torsions:
REMARK  status: ('A' for Active; 'I' for Inactive)
REMARK    1  A    between atoms: C_2  and  C_12
REMARK    2  A    between atoms: N_3  and  C_4
REMARK    3  A    between atoms: C_4  and  C_5
REMARK    4  A    between atoms: C_5  and  C_6
REMARK    5  A    between atoms: N_16  and  C_17
REMARK                            x       y       z     vdW  Elec       q    Type
REMARK                         _______ _______ _______ _____ _____    ______ ____
ROOT
ATOM      1  C   UNL     1       2.952   3.171  20.880  0.00  0.00    +0.000 C 
ATOM      2  C   UNL     1       1.563   2.499  20.941  0.00  0.00    +0.000 C 
ATOM      3  C   UNL     1       0.523   3.233  20.089  0.00  0.00    +0.000 C 
ATOM      4  C   UNL     1       0.447   4.728  20.418  0.00  0.00    +0.000 C 
ATOM      5  N   UNL     1       1.769   5.287  20.191  0.00  0.00    +0.000 N 
ATOM      6  C   UNL     1       2.818   4.714  21.054  0.00  0.00    +0.000 C 
ENDROOT
BRANCH   5   7
ATOM      7  C   UNL     1       1.868   6.535  19.560  0.00  0.00    +0.000 A 
ATOM      8  N   UNL     1       2.188   6.659  18.245  0.00  0.00    +0.000 NA
ATOM      9  C   UNL     1       2.268   7.914  17.706  0.00  0.00    +0.000 A 
ATOM     10  N   UNL     1       2.001   9.137  18.252  0.00  0.00    +0.000 NA
ATOM     11  C   UNL     1       1.744   9.006  19.561  0.00  0.00    +0.000 A 
ATOM     12  C   UNL     1       1.749   7.772  20.247  0.00  0.00    +0.000 A 
ATOM     13  N   UNL     1       1.629   7.962  21.565  0.00  0.00    +0.000 NA
ATOM     14  C   UNL     1       1.159   9.178  21.638  0.00  0.00    +0.000 A 
ATOM     15  N   UNL     1       1.381   9.979  20.501  0.00  0.00    +0.000 N 
ATOM     16  C   UNL     1       1.107  11.486  20.391  0.00  0.00    +0.000 C 
ATOM     17  C   UNL     1      -0.479  12.375  20.551  0.00  0.00    +0.000 C 
ATOM     18  C   UNL     1      -1.660  12.251  22.049  0.00  0.00    +0.000 C 
ATOM     19  C   UNL     1      -1.611  10.582  23.164  0.00  0.00    +0.000 C 
ATOM     20  C   UNL     1       0.282   9.544  22.872  0.00  0.00    +0.000 C 
ENDBRANCH   5   7
BRANCH   1  22
ATOM     21  O   UNL     1       4.536   1.763  19.647  0.00  0.00    +0.000 OA
ATOM     22  C   UNL     1       3.732   2.691  19.630  0.00  0.00    +0.000 C 
ATOM     23  N   UNL     1       3.590   3.505  18.520  0.00  0.00    +0.000 N 
ATOM     24  H   UNL     1       2.905   4.250  18.553  0.00  0.00    +0.000 HD
BRANCH  23  25
ATOM     25  C   UNL     1       4.179   3.203  17.216  0.00  0.00    +0.000 C 
BRANCH  25  26
ATOM     26  C   UNL     1       5.264   4.176  16.727  0.00  0.00    +0.000 C 
BRANCH  26  27
ATOM     27  C   UNL     1       5.399   5.405  17.764  0.00  0.00    +0.000 A 
ATOM     28  C   UNL     1       6.422   5.019  19.260  0.00  0.00    +0.000 A 
ATOM     29  C   UNL     1       8.069   5.891  19.573  0.00  0.00    +0.000 A 
ATOM     30  C   UNL     1       8.337   7.529  18.434  0.00  0.00    +0.000 A 
ATOM     31  C   UNL     1       7.094   8.006  17.176  0.00  0.00    +0.000 A 
ATOM     32  C   UNL     1       5.724   6.915  16.768  0.00  0.00    +0.000 A 
ENDBRANCH  26  27
ENDBRANCH  25  26
ENDBRANCH  23  25
ENDBRANCH   1  22
TORSDOF 5
ENDMDL
MODEL 8
REMARK VINA RESULT:      -7.4      0.607      1.225
REMARK  Name = 
REMARK  5 active torsions:
REMARK  status: ('A' for Active; 'I' for Inactive)
REMARK    1  A    between atoms: C_2  and  C_12
REMARK    2  A    between atoms: N_3  and  C_4
REMARK    3  A    between atoms: C_4  and  C_5
REMARK    4  A    between atoms: C_5  and  C_6
REMARK    5  A    between atoms: N_16  and  C_17
REMARK                            x       y       z     vdW  Elec       q    Type
REMARK                         _______ _______ _______ _____ _____    ______ ____
ROOT
ATOM      1  C   UNL     1       7.261   5.863  17.880  0.00  0.00    +0.000 C 
ATOM      2  C   UNL     1       7.088   4.975  16.629  0.00  0.00    +0.000 C 
ATOM      3  C   UNL     1       5.615   4.717  16.297  0.00  0.00    +0.000 C 
ATOM      4  C   UNL     1       4.833   4.167  17.497  0.00  0.00    +0.000 C 
ATOM      5  N   UNL     1       4.945   5.144  18.567  0.00  0.00    +0.000 N 
ATOM      6  C   UNL     1       6.327   5.373  19.027  0.00  0.00    +0.000 C 
ENDROOT
BRANCH   5   7
ATOM      7  C   UNL     1       3.806   5.430  19.332  0.00  0.00    +0.000 A 
ATOM      8  N   UNL     1       3.423   4.654  20.381  0.00  0.00    +0.000 NA
ATOM      9  C   UNL     1       2.296   5.000  21.074  0.00  0.00    +0.000 A 
ATOM     10  N   UNL     1       1.471   6.081  20.952  0.00  0.00    +0.000 NA
ATOM     11  C   UNL     1       1.824   6.805  19.880  0.00  0.00    +0.000 A 
ATOM     12  C   UNL     1       2.898   6.478  19.025  0.00  0.00    +0.000 A 
ATOM     13  N   UNL     1       2.909   7.275  17.952  0.00  0.00    +0.000 NA
ATOM     14  C   UNL     1       2.165   8.279  18.332  0.00  0.00    +0.000 A 
ATOM     15  N   UNL     1       1.290   8.008  19.401  0.00  0.00    +0.000 N 
ATOM     16  C   UNL     1       0.182   8.938  19.919  0.00  0.00    +0.000 C 
ATOM     17  C   UNL     1       0.333  10.611  20.631  0.00  0.00    +0.000 C 
ATOM     18  C   UNL     1       1.205  12.088  19.787  0.00  0.00    +0.000 C 
ATOM     19  C   UNL     1       2.649  11.703  18.447  0.00  0.00    +0.000 C 
ATOM     20  C   UNL     1       2.442   9.670  17.689  0.00  0.00    +0.000 C 
ENDBRANCH   5   7
BRANCH   1  22
ATOM     21  O   UNL     1       6.395   7.788  16.634  0.00  0.00    +0.000 OA
ATOM     22  C   UNL     1       7.150   7.362  17.502  0.00  0.00    +0.000 C 
ATOM     23  N   UNL     1       8.101   8.172  18.096  0.00  0.00    +0.000 N 
ATOM     24  H   UNL     1       8.692   7.774  18.816  0.00  0.00    +0.000 HD
BRANCH  23  25
ATOM     25  C   UNL     1       8.138   9.626  17.937  0.00  0.00    +0.000 C 
BRANCH  25  26
ATOM     26  C   UNL     1       9.537  10.264  17.913  0.00  0.00    +0.000 C 
BRANCH  26  27
ATOM     27  C   UNL     1       9.560  11.560  18.873  0.00  0.00    +0.000 A 
ATOM     28  C   UNL     1      11.042  11.649  19.981  0.00  0.00    +0.000 A 
ATOM     29  C   UNL     1      12.330  13.019  19.787  0.00  0.00    +0.000 A 
ATOM     30  C   UNL     1      11.703  14.550  18.639  0.00  0.00    +0.000 A 
ATOM     31  C   UNL     1      10.064  14.498  17.826  0.00  0.00    +0.000 A 
ATOM     32  C   UNL     1       9.069  13.000  17.842  0.00  0.00    +0.000 A 
ENDBRANCH  26  27
ENDBRANCH  25  26
ENDBRANCH  23  25
ENDBRANCH   1  22
TORSDOF 5
ENDMDL
MODEL 9
REMARK VINA RESULT:      -7.3      1.362      1.429
REMARK  Name = 
REMARK  5 active torsions:
REMARK  status: ('A' for Active; 'I' for Inactive)
REMARK    1  A    between atoms: C_2  and  C_12
REMARK    2  A    between atoms: N_3  and  C_4
REMARK    3  A    between atoms: C_4  and  C_5
REMARK    4  A    between atoms: C_5  and  C_6
REMARK    5  A    between atoms: N_16  and  C_17
REMARK                            x       y       z     vdW  Elec       q    Type
REMARK                         _______ _______ _______ _____ _____    ______ ____
ROOT
ATOM      1  C   UNL     1       6.935   5.037  17.721  0.00  0.00    +0.000 C 
ATOM      2  C   UNL     1       6.748   5.533  16.270  0.00  0.00    +0.000 C 
ATOM      3  C   UNL     1       5.561   6.492  16.132  0.00  0.00    +0.000 C 
ATOM      4  C   UNL     1       4.265   5.905  16.705  0.00  0.00    +0.000 C 
ATOM      5  N   UNL     1       4.511   5.607  18.106  0.00  0.00    +0.000 N 
ATOM      6  C   UNL     1       5.568   4.603  18.328  0.00  0.00    +0.000 C 
ENDROOT
BRANCH   5   7
ATOM      7  C   UNL     1       3.511   5.912  19.040  0.00  0.00    +0.000 A 
ATOM      8  N   UNL     1       3.246   5.112  20.106  0.00  0.00    +0.000 NA
ATOM      9  C   UNL     1       2.250   5.481  20.969  0.00  0.00    +0.000 A 
ATOM     10  N   UNL     1       1.473   6.602  21.007  0.00  0.00    +0.000 NA
ATOM     11  C   UNL     1       1.702   7.353  19.920  0.00  0.00    +0.000 A 
ATOM     12  C   UNL     1       2.622   7.012  18.905  0.00  0.00    +0.000 A 
ATOM     13  N   UNL     1       2.518   7.851  17.869  0.00  0.00    +0.000 NA
ATOM     14  C   UNL     1       1.890   8.871  18.389  0.00  0.00    +0.000 A 
ATOM     15  N   UNL     1       1.166   8.597  19.565  0.00  0.00    +0.000 N 
ATOM     16  C   UNL     1       0.194   9.554  20.271  0.00  0.00    +0.000 C 
ATOM     17  C   UNL     1       0.531  11.189  21.010  0.00  0.00    +0.000 C 
ATOM     18  C   UNL     1       1.346  12.658  20.097  0.00  0.00    +0.000 C 
ATOM     19  C   UNL     1       2.558  12.262  18.547  0.00  0.00    +0.000 C 
ATOM     20  C   UNL     1       2.140  10.274  17.760  0.00  0.00    +0.000 C 
ENDBRANCH   5   7
BRANCH   1  22
ATOM     21  O   UNL     1       8.186   5.841  19.670  0.00  0.00    +0.000 OA
ATOM     22  C   UNL     1       7.753   6.065  18.544  0.00  0.00    +0.000 C 
ATOM     23  N   UNL     1       7.808   7.329  17.984  0.00  0.00    +0.000 N 
ATOM     24  H   UNL     1       7.447   7.458  17.047  0.00  0.00    +0.000 HD
BRANCH  23  25
ATOM     25  C   UNL     1       8.584   8.431  18.554  0.00  0.00    +0.000 C 
BRANCH  25  26
ATOM     26  C   UNL     1       8.263   9.831  18.006  0.00  0.00    +0.000 C 
BRANCH  26  27
ATOM     27  C   UNL     1       9.384  10.880  18.503  0.00  0.00    +0.000 A 
ATOM     28  C   UNL     1       9.300  12.528  17.661  0.00  0.00    +0.000 A 
ATOM     29  C   UNL     1       8.853  14.096  18.616  0.00  0.00    +0.000 A 
ATOM     30  C   UNL     1       8.952  13.871  20.615  0.00  0.00    +0.000 A 
ATOM     31  C   UNL     1       9.355  12.244  21.353  0.00  0.00    +0.000 A 
ATOM     32  C   UNL     1       9.452  10.764  20.336  0.00  0.00    +0.000 A 
ENDBRANCH  26  27
ENDBRANCH  25  26
ENDBRANCH  23  25
ENDBRANCH   1  22
TORSDOF 5
ENDMDL
