MODEL 1
REMARK VINA RESULT:      -6.9      0.000      0.000
REMARK  Name = 
REMARK  15 active torsions:
REMARK  status: ('A' for Active; 'I' for Inactive)
REMARK    1  A    between atoms: C_1  and  C_2
REMARK    2  A    between atoms: C_2  and  C_3
REMARK    3  A    between atoms: C_3  and  C_4
REMARK    4  A    between atoms: C_4  and  C_5
REMARK    5  A    between atoms: C_5  and  C_6
REMARK    6  A    between atoms: C_6  and  C_7
REMARK    7  A    between atoms: C_7  and  C_8
REMARK    8  A    between atoms: C_8  and  O_9
REMARK    9  A    between atoms: C_8  and  C_10
REMARK   10  A    between atoms: C_11  and  C_12
REMARK   11  A    between atoms: C_13  and  O_14
REMARK   12  A    between atoms: C_15  and  C_16
REMARK   13  A    between atoms: C_20  and  O_21
REMARK   14  A    between atoms: C_20  and  C_22
REMARK   15  A    between atoms: C_22  and  O_23
REMARK                            x       y       z     vdW  Elec       q    Type
REMARK                         _______ _______ _______ _____ _____    ______ ____
ROOT
ATOM      1  C   UNL     1       6.612   4.602  18.211  0.00  0.00    +0.000 C 
ATOM      2  C   UNL     1       7.647   5.623  18.764  0.00  0.00    +0.000 C 
ATOM      3  C   UNL     1       7.403   7.026  18.172  0.00  0.00    +0.000 C 
ATOM      4  C   UNL     1       8.459   8.033  18.620  0.00  0.00    +0.000 C 
ATOM      5  N   UNL     1       7.293   6.995  16.718  0.00  0.00    +0.000 N 
ATOM      6  C   UNL     1       6.512   6.037  16.105  0.00  0.00    +0.000 C 
ATOM      7  O   UNL     1       5.850   6.334  15.114  0.00  0.00    +0.000 OA
ATOM      8  C   UNL     1       6.665   4.607  16.664  0.00  0.00    +0.000 C 
ATOM      9  H   UNL     1       7.158   7.898  16.273  0.00  0.00    +0.000 HD
ENDROOT
BRANCH   1  11
ATOM     10  C   UNL     1       4.303   5.618  18.130  0.00  0.00    +0.000 C 
ATOM     11  C   UNL     1       5.221   4.864  18.761  0.00  0.00    +0.000 C 
BRANCH  10  12
ATOM     12  C   UNL     1       2.880   5.837  18.573  0.00  0.00    +0.000 C 
BRANCH  12  13
ATOM     13  O   UNL     1       2.459   7.156  18.248  0.00  0.00    +0.000 OA
ATOM     14  H   UNL     1       2.914   7.762  18.857  0.00  0.00    +0.000 HD
ENDBRANCH  12  13
BRANCH  12  15
ATOM     15  C   UNL     1       2.797   5.616  20.091  0.00  0.00    +0.000 C 
BRANCH  15  16
ATOM     16  C   UNL     1       1.502   4.922  20.505  0.00  0.00    +0.000 C 
BRANCH  16  17
ATOM     17  C   UNL     1       1.805   3.663  21.315  0.00  0.00    +0.000 C 
BRANCH  17  18
ATOM     18  C   UNL     1       2.254   2.538  20.389  0.00  0.00    +0.000 C 
BRANCH  18  19
ATOM     19  C   UNL     1       1.357   2.435  19.160  0.00  0.00    +0.000 C 
BRANCH  19  21
ATOM     20  C   UNL     1       3.537   1.604  18.221  0.00  0.00    +0.000 C 
ATOM     21  C   UNL     1       2.200   2.249  17.901  0.00  0.00    +0.000 C 
ENDBRANCH  19  21
ENDBRANCH  18  19
ENDBRANCH  17  18
ENDBRANCH  16  17
ENDBRANCH  15  16
ENDBRANCH  12  15
ENDBRANCH  10  12
ENDBRANCH   1  11
BRANCH   2  22
ATOM     22  O   UNL     1       7.648   5.690  20.194  0.00  0.00    +0.000 OA
ATOM     23  H   UNL     1       8.418   5.205  20.536  0.00  0.00    +0.000 HD
ENDBRANCH   2  22
BRANCH   8  24
ATOM     24  O   UNL     1       7.966   4.097  16.270  0.00  0.00    +0.000 OA
ATOM     25  H   UNL     1       7.830   3.543  15.477  0.00  0.00    +0.000 HD
ENDBRANCH   8  24
BRANCH   8  26
ATOM     26  C   UNL     1       5.634   3.667  16.011  0.00  0.00    +0.000 C 
BRANCH  26  27
ATOM     27  O   UNL     1       6.015   3.359  14.664  0.00  0.00    +0.000 OA
ATOM     28  H   UNL     1       5.204   3.013  14.244  0.00  0.00    +0.000 HD
ENDBRANCH  26  27
ENDBRANCH   8  26
TORSDOF 13
ENDMDL
MODEL 2
REMARK VINA RESULT:      -6.8      2.771      6.894
REMARK  Name = 
REMARK  15 active torsions:
REMARK  status: ('A' for Active; 'I' for Inactive)
REMARK    1  A    between atoms: C_1  and  C_2
REMARK    2  A    between atoms: C_2  and  C_3
REMARK    3  A    between atoms: C_3  and  C_4
REMARK    4  A    between atoms: C_4  and  C_5
REMARK    5  A    between atoms: C_5  and  C_6
REMARK    6  A    between atoms: C_6  and  C_7
REMARK    7  A    between atoms: C_7  and  C_8
REMARK    8  A    between atoms: C_8  and  O_9
REMARK    9  A    between atoms: C_8  and  C_10
REMARK   10  A    between atoms: C_11  and  C_12
REMARK   11  A    between atoms: C_13  and  O_14
REMARK   12  A    between atoms: C_15  and  C_16
REMARK   13  A    between atoms: C_20  and  O_21
REMARK   14  A    between atoms: C_20  and  C_22
REMARK   15  A    between atoms: C_22  and  O_23
REMARK                            x       y       z     vdW  Elec       q    Type
REMARK                         _______ _______ _______ _____ _____    ______ ____
ROOT
ATOM      1  C   UNL     1       3.364   4.966  17.689  0.00  0.00    +0.000 C 
ATOM      2  C   UNL     1       2.707   6.299  18.148  0.00  0.00    +0.000 C 
ATOM      3  C   UNL     1       2.612   6.361  19.685  0.00  0.00    +0.000 C 
ATOM      4  C   UNL     1       1.885   7.614  20.168  0.00  0.00    +0.000 C 
ATOM      5  N   UNL     1       2.007   5.158  20.246  0.00  0.00    +0.000 N 
ATOM      6  C   UNL     1       2.412   3.913  19.807  0.00  0.00    +0.000 C 
ATOM      7  O   UNL     1       2.509   2.987  20.608  0.00  0.00    +0.000 OA
ATOM      8  C   UNL     1       2.572   3.774  18.279  0.00  0.00    +0.000 C 
ATOM      9  H   UNL     1       1.895   5.157  21.255  0.00  0.00    +0.000 HD
ENDROOT
BRANCH   1  11
ATOM     10  C   UNL     1       5.819   5.162  17.134  0.00  0.00    +0.000 C 
ATOM     11  C   UNL     1       4.844   4.927  18.030  0.00  0.00    +0.000 C 
BRANCH  10  12
ATOM     12  C   UNL     1       7.295   5.231  17.428  0.00  0.00    +0.000 C 
BRANCH  12  13
ATOM     13  O   UNL     1       7.682   4.155  18.273  0.00  0.00    +0.000 OA
ATOM     14  H   UNL     1       8.334   4.504  18.904  0.00  0.00    +0.000 HD
ENDBRANCH  12  13
BRANCH  12  15
ATOM     15  C   UNL     1       7.598   6.573  18.111  0.00  0.00    +0.000 C 
BRANCH  15  16
ATOM     16  C   UNL     1       7.034   7.759  17.333  0.00  0.00    +0.000 C 
BRANCH  16  17
ATOM     17  C   UNL     1       7.885   9.005  17.566  0.00  0.00    +0.000 C 
BRANCH  17  18
ATOM     18  C   UNL     1       8.733   8.836  18.822  0.00  0.00    +0.000 C 
BRANCH  18  19
ATOM     19  C   UNL     1       9.272  10.175  19.316  0.00  0.00    +0.000 C 
BRANCH  19  21
ATOM     20  C   UNL     1       9.945  12.492  18.605  0.00  0.00    +0.000 C 
ATOM     21  C   UNL     1       9.547  11.104  18.136  0.00  0.00    +0.000 C 
ENDBRANCH  19  21
ENDBRANCH  18  19
ENDBRANCH  17  18
ENDBRANCH  16  17
ENDBRANCH  15  16
ENDBRANCH  12  15
ENDBRANCH  10  12
ENDBRANCH   1  11
BRANCH   2  22
ATOM     22  O   UNL     1       3.395   7.453  17.654  0.00  0.00    +0.000 OA
ATOM     23  H   UNL     1       4.328   7.227  17.501  0.00  0.00    +0.000 HD
ENDBRANCH   2  22
BRANCH   8  24
ATOM     24  O   UNL     1       1.251   3.787  17.676  0.00  0.00    +0.000 OA
ATOM     25  H   UNL     1       1.024   4.720  17.502  0.00  0.00    +0.000 HD
ENDBRANCH   8  24
BRANCH   8  26
ATOM     26  C   UNL     1       3.176   2.402  17.930  0.00  0.00    +0.000 C 
BRANCH  26  27
ATOM     27  O   UNL     1       2.296   1.346  18.334  0.00  0.00    +0.000 OA
ATOM     28  H   UNL     1       1.944   0.976  17.501  0.00  0.00    +0.000 HD
ENDBRANCH  26  27
ENDBRANCH   8  26
TORSDOF 13
ENDMDL
MODEL 3
REMARK VINA RESULT:      -6.8      3.232      6.256
REMARK  Name = 
REMARK  15 active torsions:
REMARK  status: ('A' for Active; 'I' for Inactive)
REMARK    1  A    between atoms: C_1  and  C_2
REMARK    2  A    between atoms: C_2  and  C_3
REMARK    3  A    between atoms: C_3  and  C_4
REMARK    4  A    between atoms: C_4  and  C_5
REMARK    5  A    between atoms: C_5  and  C_6
REMARK    6  A    between atoms: C_6  and  C_7
REMARK    7  A    between atoms: C_7  and  C_8
REMARK    8  A    between atoms: C_8  and  O_9
REMARK    9  A    between atoms: C_8  and  C_10
REMARK   10  A    between atoms: C_11  and  C_12
REMARK   11  A    between atoms: C_13  and  O_14
REMARK   12  A    between atoms: C_15  and  C_16
REMARK   13  A    between atoms: C_20  and  O_21
REMARK   14  A    between atoms: C_20  and  C_22
REMARK   15  A    between atoms: C_22  and  O_23
REMARK                            x       y       z     vdW  Elec       q    Type
REMARK                         _______ _______ _______ _____ _____    ______ ____
ROOT
ATOM      1  C   UNL     1       2.841   4.845  17.769  0.00  0.00    +0.000 C 
ATOM      2  C   UNL     1       2.291   6.199  18.301  0.00  0.00    +0.000 C 
ATOM      3  C   UNL     1       2.577   6.352  19.808  0.00  0.00    +0.000 C 
ATOM      4  C   UNL     1       1.967   7.627  20.386  0.00  0.00    +0.000 C 
ATOM      5  N   UNL     1       2.155   5.180  20.568  0.00  0.00    +0.000 N 
ATOM      6  C   UNL     1       2.464   3.914  20.113  0.00  0.00    +0.000 C 
ATOM      7  O   UNL     1       2.774   3.038  20.915  0.00  0.00    +0.000 OA
ATOM      8  C   UNL     1       2.244   3.686  18.602  0.00  0.00    +0.000 C 
ATOM      9  H   UNL     1       2.295   5.238  21.572  0.00  0.00    +0.000 HD
ENDROOT
BRANCH   1  11
ATOM     10  C   UNL     1       5.088   5.582  16.886  0.00  0.00    +0.000 C 
ATOM     11  C   UNL     1       4.360   4.835  17.734  0.00  0.00    +0.000 C 
BRANCH  10  12
ATOM     12  C   UNL     1       6.591   5.689  16.865  0.00  0.00    +0.000 C 
BRANCH  12  13
ATOM     13  O   UNL     1       6.988   6.992  16.459  0.00  0.00    +0.000 OA
ATOM     14  H   UNL     1       7.488   7.384  17.195  0.00  0.00    +0.000 HD
ENDBRANCH  12  13
BRANCH  12  15
ATOM     15  C   UNL     1       7.145   4.641  15.889  0.00  0.00    +0.000 C 
BRANCH  15  16
ATOM     16  C   UNL     1       6.786   4.953  14.439  0.00  0.00    +0.000 C 
BRANCH  16  17
ATOM     17  C   UNL     1       5.954   3.822  13.839  0.00  0.00    +0.000 C 
BRANCH  17  18
ATOM     18  C   UNL     1       6.508   3.428  12.473  0.00  0.00    +0.000 C 
BRANCH  18  19
ATOM     19  C   UNL     1       5.446   2.750  11.615  0.00  0.00    +0.000 C 
BRANCH  19  21
ATOM     20  C   UNL     1       3.390   3.490  10.370  0.00  0.00    +0.000 C 
ATOM     21  C   UNL     1       4.128   3.517  11.696  0.00  0.00    +0.000 C 
ENDBRANCH  19  21
ENDBRANCH  18  19
ENDBRANCH  17  18
ENDBRANCH  16  17
ENDBRANCH  15  16
ENDBRANCH  12  15
ENDBRANCH  10  12
ENDBRANCH   1  11
BRANCH   2  22
ATOM     22  O   UNL     1       2.812   7.326  17.589  0.00  0.00    +0.000 OA
ATOM     23  H   UNL     1       2.404   8.138  17.934  0.00  0.00    +0.000 HD
ENDBRANCH   2  22
BRANCH   8  24
ATOM     24  O   UNL     1       0.815   3.655  18.346  0.00  0.00    +0.000 OA
ATOM     25  H   UNL     1       0.615   4.399  17.746  0.00  0.00    +0.000 HD
ENDBRANCH   8  24
BRANCH   8  26
ATOM     26  C   UNL     1       2.771   2.299  18.192  0.00  0.00    +0.000 C 
BRANCH  26  27
ATOM     27  O   UNL     1       1.973   1.262  18.779  0.00  0.00    +0.000 OA
ATOM     28  H   UNL     1       1.244   1.729  19.231  0.00  0.00    +0.000 HD
ENDBRANCH  26  27
ENDBRANCH   8  26
TORSDOF 13
ENDMDL
MODEL 4
REMARK VINA RESULT:      -6.7      1.791      3.417
REMARK  Name = 
REMARK  15 active torsions:
REMARK  status: ('A' for Active; 'I' for Inactive)
REMARK    1  A    between atoms: C_1  and  C_2
REMARK    2  A    between atoms: C_2  and  C_3
REMARK    3  A    between atoms: C_3  and  C_4
REMARK    4  A    between atoms: C_4  and  C_5
REMARK    5  A    between atoms: C_5  and  C_6
REMARK    6  A    between atoms: C_6  and  C_7
REMARK    7  A    between atoms: C_7  and  C_8
REMARK    8  A    between atoms: C_8  and  O_9
REMARK    9  A    between atoms: C_8  and  C_10
REMARK   10  A    between atoms: C_11  and  C_12
REMARK   11  A    between atoms: C_13  and  O_14
REMARK   12  A    between atoms: C_15  and  C_16
REMARK   13  A    between atoms: C_20  and  O_21
REMARK   14  A    between atoms: C_20  and  C_22
REMARK   15  A    between atoms: C_22  and  O_23
REMARK                            x       y       z     vdW  Elec       q    Type
REMARK                         _______ _______ _______ _____ _____    ______ ____
ROOT
ATOM      1  C   UNL     1       5.554   5.145  18.376  0.00  0.00    +0.000 C 
ATOM      2  C   UNL     1       4.648   6.355  18.741  0.00  0.00    +0.000 C 
ATOM      3  C   UNL     1       3.831   6.816  17.518  0.00  0.00    +0.000 C 
ATOM      4  C   UNL     1       3.001   8.062  17.814  0.00  0.00    +0.000 C 
ATOM      5  N   UNL     1       4.671   7.016  16.342  0.00  0.00    +0.000 N 
ATOM      6  C   UNL     1       5.617   6.070  16.001  0.00  0.00    +0.000 C 
ATOM      7  O   UNL     1       5.815   5.807  14.817  0.00  0.00    +0.000 OA
ATOM      8  C   UNL     1       6.455   5.524  17.175  0.00  0.00    +0.000 C 
ATOM      9  H   UNL     1       4.188   7.347  15.512  0.00  0.00    +0.000 HD
ENDROOT
BRANCH   1  11
ATOM     10  C   UNL     1       4.546   2.937  19.067  0.00  0.00    +0.000 C 
ATOM     11  C   UNL     1       4.737   3.887  18.135  0.00  0.00    +0.000 C 
BRANCH  10  12
ATOM     12  C   UNL     1       3.672   1.718  18.924  0.00  0.00    +0.000 C 
BRANCH  12  13
ATOM     13  O   UNL     1       4.465   0.572  18.640  0.00  0.00    +0.000 OA
ATOM     14  H   UNL     1       5.388   0.804  18.838  0.00  0.00    +0.000 HD
ENDBRANCH  12  13
BRANCH  12  15
ATOM     15  C   UNL     1       2.670   1.962  17.787  0.00  0.00    +0.000 C 
BRANCH  15  16
ATOM     16  C   UNL     1       1.256   2.213  18.305  0.00  0.00    +0.000 C 
BRANCH  16  17
ATOM     17  C   UNL     1       1.049   3.698  18.595  0.00  0.00    +0.000 C 
BRANCH  17  18
ATOM     18  C   UNL     1       0.614   3.896  20.043  0.00  0.00    +0.000 C 
BRANCH  18  19
ATOM     19  C   UNL     1       1.697   4.592  20.860  0.00  0.00    +0.000 C 
BRANCH  19  21
ATOM     20  C   UNL     1       1.527   2.321  21.929  0.00  0.00    +0.000 C 
ATOM     21  C   UNL     1       2.309   3.621  21.868  0.00  0.00    +0.000 C 
ENDBRANCH  19  21
ENDBRANCH  18  19
ENDBRANCH  17  18
ENDBRANCH  16  17
ENDBRANCH  15  16
ENDBRANCH  12  15
ENDBRANCH  10  12
ENDBRANCH   1  11
BRANCH   2  22
ATOM     22  O   UNL     1       3.770   6.077  19.837  0.00  0.00    +0.000 OA
ATOM     23  H   UNL     1       2.908   6.495  19.670  0.00  0.00    +0.000 HD
ENDBRANCH   2  22
BRANCH   8  24
ATOM     24  O   UNL     1       7.359   6.569  17.620  0.00  0.00    +0.000 OA
ATOM     25  H   UNL     1       7.411   7.229  16.902  0.00  0.00    +0.000 HD
ENDBRANCH   8  24
BRANCH   8  26
ATOM     26  C   UNL     1       7.356   4.371  16.695  0.00  0.00    +0.000 C 
BRANCH  26  27
ATOM     27  O   UNL     1       8.315   4.027  17.703  0.00  0.00    +0.000 OA
ATOM     28  H   UNL     1       8.482   4.858  18.188  0.00  0.00    +0.000 HD
ENDBRANCH  26  27
ENDBRANCH   8  26
TORSDOF 13
ENDMDL
MODEL 5
REMARK VINA RESULT:      -6.6      4.085      5.856
REMARK  Name = 
REMARK  15 active torsions:
REMARK  status: ('A' for Active; 'I' for Inactive)
REMARK    1  A    between atoms: C_1  and  C_2
REMARK    2  A    between atoms: C_2  and  C_3
REMARK    3  A    between atoms: C_3  and  C_4
REMARK    4  A    between atoms: C_4  and  C_5
REMARK    5  A    between atoms: C_5  and  C_6
REMARK    6  A    between atoms: C_6  and  C_7
REMARK    7  A    between atoms: C_7  and  C_8
REMARK    8  A    between atoms: C_8  and  O_9
REMARK    9  A    between atoms: C_8  and  C_10
REMARK   10  A    between atoms: C_11  and  C_12
REMARK   11  A    between atoms: C_13  and  O_14
REMARK   12  A    between atoms: C_15  and  C_16
REMARK   13  A    between atoms: C_20  and  O_21
REMARK   14  A    between atoms: C_20  and  C_22
REMARK   15  A    between atoms: C_22  and  O_23
REMARK                            x       y       z     vdW  Elec       q    Type
REMARK                         _______ _______ _______ _____ _____    ______ ____
ROOT
ATOM      1  C   UNL     1       3.922   5.438  17.168  0.00  0.00    +0.000 C 
ATOM      2  C   UNL     1       3.306   4.022  17.352  0.00  0.00    +0.000 C 
ATOM      3  C   UNL     1       3.782   3.386  18.673  0.00  0.00    +0.000 C 
ATOM      4  C   UNL     1       3.273   1.956  18.842  0.00  0.00    +0.000 C 
ATOM      5  N   UNL     1       5.232   3.444  18.817  0.00  0.00    +0.000 N 
ATOM      6  C   UNL     1       5.908   4.615  18.540  0.00  0.00    +0.000 C 
ATOM      7  O   UNL     1       6.863   4.948  19.237  0.00  0.00    +0.000 OA
ATOM      8  C   UNL     1       5.465   5.341  17.252  0.00  0.00    +0.000 C 
ATOM      9  H   UNL     1       5.604   3.013  19.659  0.00  0.00    +0.000 HD
ENDROOT
BRANCH   1  11
ATOM     10  C   UNL     1       2.879   7.650  17.792  0.00  0.00    +0.000 C 
ATOM     11  C   UNL     1       3.332   6.436  18.150  0.00  0.00    +0.000 C 
BRANCH  10  12
ATOM     12  C   UNL     1       2.199   8.645  18.697  0.00  0.00    +0.000 C 
BRANCH  12  13
ATOM     13  O   UNL     1       1.794   8.016  19.906  0.00  0.00    +0.000 OA
ATOM     14  H   UNL     1       1.213   8.639  20.375  0.00  0.00    +0.000 HD
ENDBRANCH  12  13
BRANCH  12  15
ATOM     15  C   UNL     1       0.977   9.220  17.966  0.00  0.00    +0.000 C 
BRANCH  15  16
ATOM     16  C   UNL     1       0.321  10.359  18.742  0.00  0.00    +0.000 C 
BRANCH  16  17
ATOM     17  C   UNL     1      -0.934  10.846  18.021  0.00  0.00    +0.000 C 
BRANCH  17  18
ATOM     18  C   UNL     1      -1.987   9.743  17.996  0.00  0.00    +0.000 C 
BRANCH  18  19
ATOM     19  C   UNL     1      -3.162  10.116  17.099  0.00  0.00    +0.000 C 
BRANCH  19  21
ATOM     20  C   UNL     1      -3.027  10.043  14.589  0.00  0.00    +0.000 C 
ATOM     21  C   UNL     1      -2.666  10.823  15.840  0.00  0.00    +0.000 C 
ENDBRANCH  19  21
ENDBRANCH  18  19
ENDBRANCH  17  18
ENDBRANCH  16  17
ENDBRANCH  15  16
ENDBRANCH  12  15
ENDBRANCH  10  12
ENDBRANCH   1  11
BRANCH   2  22
ATOM     22  O   UNL     1       1.875   4.031  17.303  0.00  0.00    +0.000 OA
ATOM     23  H   UNL     1       1.572   3.320  16.713  0.00  0.00    +0.000 HD
ENDBRANCH   2  22
BRANCH   8  24
ATOM     24  O   UNL     1       5.916   4.567  16.110  0.00  0.00    +0.000 OA
ATOM     25  H   UNL     1       6.425   5.170  15.536  0.00  0.00    +0.000 HD
ENDBRANCH   8  24
BRANCH   8  26
ATOM     26  C   UNL     1       6.173   6.703  17.138  0.00  0.00    +0.000 C 
BRANCH  26  27
ATOM     27  O   UNL     1       7.511   6.536  16.651  0.00  0.00    +0.000 OA
ATOM     28  H   UNL     1       8.068   6.487  17.453  0.00  0.00    +0.000 HD
ENDBRANCH  26  27
ENDBRANCH   8  26
TORSDOF 13
ENDMDL
MODEL 6
REMARK VINA RESULT:      -6.6      1.904      3.323
REMARK  Name = 
REMARK  15 active torsions:
REMARK  status: ('A' for Active; 'I' for Inactive)
REMARK    1  A    between atoms: C_1  and  C_2
REMARK    2  A    between atoms: C_2  and  C_3
REMARK    3  A    between atoms: C_3  and  C_4
REMARK    4  A    between atoms: C_4  and  C_5
REMARK    5  A    between atoms: C_5  and  C_6
REMARK    6  A    between atoms: C_6  and  C_7
REMARK    7  A    between atoms: C_7  and  C_8
REMARK    8  A    between atoms: C_8  and  O_9
REMARK    9  A    between atoms: C_8  and  C_10
REMARK   10  A    between atoms: C_11  and  C_12
REMARK   11  A    between atoms: C_13  and  O_14
REMARK   12  A    between atoms: C_15  and  C_16
REMARK   13  A    between atoms: C_20  and  O_21
REMARK   14  A    between atoms: C_20  and  C_22
REMARK   15  A    between atoms: C_22  and  O_23
REMARK                            x       y       z     vdW  Elec       q    Type
REMARK                         _______ _______ _______ _____ _____    ______ ____
ROOT
ATOM      1  C   UNL     1       6.797   4.673  18.025  0.00  0.00    +0.000 C 
ATOM      2  C   UNL     1       7.833   5.715  18.536  0.00  0.00    +0.000 C 
ATOM      3  C   UNL     1       7.403   7.146  18.158  0.00  0.00    +0.000 C 
ATOM      4  C   UNL     1       8.444   8.188  18.560  0.00  0.00    +0.000 C 
ATOM      5  N   UNL     1       7.069   7.262  16.743  0.00  0.00    +0.000 N 
ATOM      6  C   UNL     1       6.269   6.310  16.142  0.00  0.00    +0.000 C 
ATOM      7  O   UNL     1       5.442   6.653  15.302  0.00  0.00    +0.000 OA
ATOM      8  C   UNL     1       6.606   4.847  16.499  0.00  0.00    +0.000 C 
ATOM      9  H   UNL     1       6.804   8.192  16.432  0.00  0.00    +0.000 HD
ENDROOT
BRANCH   1  11
ATOM     10  C   UNL     1       4.670   3.707  18.980  0.00  0.00    +0.000 C 
ATOM     11  C   UNL     1       5.494   4.754  18.802  0.00  0.00    +0.000 C 
BRANCH  10  12
ATOM     12  C   UNL     1       3.416   3.697  19.816  0.00  0.00    +0.000 C 
BRANCH  12  13
ATOM     13  O   UNL     1       3.414   2.574  20.689  0.00  0.00    +0.000 OA
ATOM     14  H   UNL     1       2.612   2.636  21.236  0.00  0.00    +0.000 HD
ENDBRANCH  12  13
BRANCH  12  15
ATOM     15  C   UNL     1       2.200   3.640  18.879  0.00  0.00    +0.000 C 
BRANCH  15  16
ATOM     16  C   UNL     1       1.997   4.946  18.115  0.00  0.00    +0.000 C 
BRANCH  16  17
ATOM     17  C   UNL     1       2.117   6.141  19.058  0.00  0.00    +0.000 C 
BRANCH  17  18
ATOM     18  C   UNL     1       2.869   7.278  18.373  0.00  0.00    +0.000 C 
BRANCH  18  19
ATOM     19  C   UNL     1       1.920   8.194  17.610  0.00  0.00    +0.000 C 
BRANCH  19  21
ATOM     20  C   UNL     1       0.863   9.670  19.351  0.00  0.00    +0.000 C 
ATOM     21  C   UNL     1       1.898   9.583  18.244  0.00  0.00    +0.000 C 
ENDBRANCH  19  21
ENDBRANCH  18  19
ENDBRANCH  17  18
ENDBRANCH  16  17
ENDBRANCH  15  16
ENDBRANCH  12  15
ENDBRANCH  10  12
ENDBRANCH   1  11
BRANCH   2  22
ATOM     22  O   UNL     1       8.052   5.629  19.948  0.00  0.00    +0.000 OA
ATOM     23  H   UNL     1       8.872   5.133  20.114  0.00  0.00    +0.000 HD
ENDBRANCH   2  22
BRANCH   8  24
ATOM     24  O   UNL     1       7.862   4.496  15.860  0.00  0.00    +0.000 OA
ATOM     25  H   UNL     1       7.980   3.533  15.968  0.00  0.00    +0.000 HD
ENDBRANCH   8  24
BRANCH   8  26
ATOM     26  C   UNL     1       5.553   3.897  15.899  0.00  0.00    +0.000 C 
BRANCH  26  27
ATOM     27  O   UNL     1       5.701   3.815  14.475  0.00  0.00    +0.000 OA
ATOM     28  H   UNL     1       4.792   3.876  14.123  0.00  0.00    +0.000 HD
ENDBRANCH  26  27
ENDBRANCH   8  26
TORSDOF 13
ENDMDL
MODEL 7
REMARK VINA RESULT:      -6.6      1.398      2.751
REMARK  Name = 
REMARK  15 active torsions:
REMARK  status: ('A' for Active; 'I' for Inactive)
REMARK    1  A    between atoms: C_1  and  C_2
REMARK    2  A    between atoms: C_2  and  C_3
REMARK    3  A    between atoms: C_3  and  C_4
REMARK    4  A    between atoms: C_4  and  C_5
REMARK    5  A    between atoms: C_5  and  C_6
REMARK    6  A    between atoms: C_6  and  C_7
REMARK    7  A    between atoms: C_7  and  C_8
REMARK    8  A    between atoms: C_8  and  O_9
REMARK    9  A    between atoms: C_8  and  C_10
REMARK   10  A    between atoms: C_11  and  C_12
REMARK   11  A    between atoms: C_13  and  O_14
REMARK   12  A    between atoms: C_15  and  C_16
REMARK   13  A    between atoms: C_20  and  O_21
REMARK   14  A    between atoms: C_20  and  C_22
REMARK   15  A    between atoms: C_22  and  O_23
REMARK                            x       y       z     vdW  Elec       q    Type
REMARK                         _______ _______ _______ _____ _____    ______ ____
ROOT
ATOM      1  C   UNL     1       6.920   4.529  17.802  0.00  0.00    +0.000 C 
ATOM      2  C   UNL     1       7.900   5.616  18.330  0.00  0.00    +0.000 C 
ATOM      3  C   UNL     1       7.317   7.027  18.121  0.00  0.00    +0.000 C 
ATOM      4  C   UNL     1       8.294   8.123  18.541  0.00  0.00    +0.000 C 
ATOM      5  N   UNL     1       6.858   7.233  16.752  0.00  0.00    +0.000 N 
ATOM      6  C   UNL     1       6.097   6.267  16.127  0.00  0.00    +0.000 C 
ATOM      7  O   UNL     1       5.175   6.601  15.387  0.00  0.00    +0.000 OA
ATOM      8  C   UNL     1       6.588   4.816  16.318  0.00  0.00    +0.000 C 
ATOM      9  H   UNL     1       6.488   8.158  16.551  0.00  0.00    +0.000 HD
ENDROOT
BRANCH   1  11
ATOM     10  C   UNL     1       5.199   3.251  19.134  0.00  0.00    +0.000 C 
ATOM     11  C   UNL     1       5.684   4.419  18.679  0.00  0.00    +0.000 C 
BRANCH  10  12
ATOM     12  C   UNL     1       4.039   3.081  20.081  0.00  0.00    +0.000 C 
BRANCH  12  13
ATOM     13  O   UNL     1       4.375   2.164  21.114  0.00  0.00    +0.000 OA
ATOM     14  H   UNL     1       3.954   1.315  20.894  0.00  0.00    +0.000 HD
ENDBRANCH  12  13
BRANCH  12  15
ATOM     15  C   UNL     1       2.829   2.563  19.289  0.00  0.00    +0.000 C 
BRANCH  15  16
ATOM     16  C   UNL     1       3.078   2.569  17.783  0.00  0.00    +0.000 C 
BRANCH  16  17
ATOM     17  C   UNL     1       2.222   3.634  17.103  0.00  0.00    +0.000 C 
BRANCH  17  18
ATOM     18  C   UNL     1       1.646   4.590  18.143  0.00  0.00    +0.000 C 
BRANCH  18  19
ATOM     19  C   UNL     1       2.336   5.948  18.095  0.00  0.00    +0.000 C 
BRANCH  19  21
ATOM     20  C   UNL     1       1.659   5.882  20.516  0.00  0.00    +0.000 C 
ATOM     21  C   UNL     1       2.650   6.435  19.508  0.00  0.00    +0.000 C 
ENDBRANCH  19  21
ENDBRANCH  18  19
ENDBRANCH  17  18
ENDBRANCH  16  17
ENDBRANCH  15  16
ENDBRANCH  12  15
ENDBRANCH  10  12
ENDBRANCH   1  11
BRANCH   2  22
ATOM     22  O   UNL     1       8.243   5.428  19.707  0.00  0.00    +0.000 OA
ATOM     23  H   UNL     1       9.194   5.594  19.824  0.00  0.00    +0.000 HD
ENDBRANCH   2  22
BRANCH   8  24
ATOM     24  O   UNL     1       7.812   4.642  15.556  0.00  0.00    +0.000 OA
ATOM     25  H   UNL     1       8.183   3.773  15.803  0.00  0.00    +0.000 HD
ENDBRANCH   8  24
BRANCH   8  26
ATOM     26  C   UNL     1       5.576   3.827  15.712  0.00  0.00    +0.000 C 
BRANCH  26  27
ATOM     27  O   UNL     1       6.074   3.286  14.482  0.00  0.00    +0.000 OA
ATOM     28  H   UNL     1       5.358   3.429  13.833  0.00  0.00    +0.000 HD
ENDBRANCH  26  27
ENDBRANCH   8  26
TORSDOF 13
ENDMDL
MODEL 8
REMARK VINA RESULT:      -6.6      1.366      2.510
REMARK  Name = 
REMARK  15 active torsions:
REMARK  status: ('A' for Active; 'I' for Inactive)
REMARK    1  A    between atoms: C_1  and  C_2
REMARK    2  A    between atoms: C_2  and  C_3
REMARK    3  A    between atoms: C_3  and  C_4
REMARK    4  A    between atoms: C_4  and  C_5
REMARK    5  A    between atoms: C_5  and  C_6
REMARK    6  A    between atoms: C_6  and  C_7
REMARK    7  A    between atoms: C_7  and  C_8
REMARK    8  A    between atoms: C_8  and  O_9
REMARK    9  A    between atoms: C_8  and  C_10
REMARK   10  A    between atoms: C_11  and  C_12
REMARK   11  A    between atoms: C_13  and  O_14
REMARK   12  A    between atoms: C_15  and  C_16
REMARK   13  A    between atoms: C_20  and  O_21
REMARK   14  A    between atoms: C_20  and  C_22
REMARK   15  A    between atoms: C_22  and  O_23
REMARK                            x       y       z     vdW  Elec       q    Type
REMARK                         _______ _______ _______ _____ _____    ______ ____
ROOT
ATOM      1  C   UNL     1       6.793   4.449  17.467  0.00  0.00    +0.000 C 
ATOM      2  C   UNL     1       7.790   5.458  18.105  0.00  0.00    +0.000 C 
ATOM      3  C   UNL     1       7.232   6.893  18.042  0.00  0.00    +0.000 C 
ATOM      4  C   UNL     1       8.226   7.923  18.573  0.00  0.00    +0.000 C 
ATOM      5  N   UNL     1       6.780   7.247  16.701  0.00  0.00    +0.000 N 
ATOM      6  C   UNL     1       6.005   6.363  15.978  0.00  0.00    +0.000 C 
ATOM      7  O   UNL     1       5.091   6.788  15.276  0.00  0.00    +0.000 OA
ATOM      8  C   UNL     1       6.471   4.893  16.019  0.00  0.00    +0.000 C 
ATOM      9  H   UNL     1       6.427   8.194  16.596  0.00  0.00    +0.000 HD
ENDROOT
BRANCH   1  11
ATOM     10  C   UNL     1       5.011   3.072  18.606  0.00  0.00    +0.000 C 
ATOM     11  C   UNL     1       5.553   4.270  18.326  0.00  0.00    +0.000 C 
BRANCH  10  12
ATOM     12  C   UNL     1       3.844   2.820  19.525  0.00  0.00    +0.000 C 
BRANCH  12  13
ATOM     13  O   UNL     1       4.286   2.203  20.728  0.00  0.00    +0.000 OA
ATOM     14  H   UNL     1       5.253   2.123  20.672  0.00  0.00    +0.000 HD
ENDBRANCH  12  13
BRANCH  12  15
ATOM     15  C   UNL     1       2.837   1.911  18.805  0.00  0.00    +0.000 C 
BRANCH  15  16
ATOM     16  C   UNL     1       1.411   2.451  18.882  0.00  0.00    +0.000 C 
BRANCH  16  17
ATOM     17  C   UNL     1       1.157   3.098  20.241  0.00  0.00    +0.000 C 
BRANCH  17  18
ATOM     18  C   UNL     1       0.880   4.589  20.071  0.00  0.00    +0.000 C 
BRANCH  18  19
ATOM     19  C   UNL     1       1.987   5.436  20.689  0.00  0.00    +0.000 C 
BRANCH  19  21
ATOM     20  C   UNL     1       2.293   5.959  18.248  0.00  0.00    +0.000 C 
ATOM     21  C   UNL     1       2.519   6.440  19.670  0.00  0.00    +0.000 C 
ENDBRANCH  19  21
ENDBRANCH  18  19
ENDBRANCH  17  18
ENDBRANCH  16  17
ENDBRANCH  15  16
ENDBRANCH  12  15
ENDBRANCH  10  12
ENDBRANCH   1  11
BRANCH   2  22
ATOM     22  O   UNL     1       8.126   5.123  19.455  0.00  0.00    +0.000 OA
ATOM     23  H   UNL     1       8.797   4.419  19.452  0.00  0.00    +0.000 HD
ENDBRANCH   2  22
BRANCH   8  24
ATOM     24  O   UNL     1       7.693   4.777  15.245  0.00  0.00    +0.000 OA
ATOM     25  H   UNL     1       8.306   4.216  15.757  0.00  0.00    +0.000 HD
ENDBRANCH   8  24
BRANCH   8  26
ATOM     26  C   UNL     1       5.443   3.989  15.313  0.00  0.00    +0.000 C 
BRANCH  26  27
ATOM     27  O   UNL     1       6.044   3.319  14.198  0.00  0.00    +0.000 OA
ATOM     28  H   UNL     1       6.952   3.674  14.148  0.00  0.00    +0.000 HD
ENDBRANCH  26  27
ENDBRANCH   8  26
TORSDOF 13
ENDMDL
MODEL 9
REMARK VINA RESULT:      -6.5      2.933      7.275
REMARK  Name = 
REMARK  15 active torsions:
REMARK  status: ('A' for Active; 'I' for Inactive)
REMARK    1  A    between atoms: C_1  and  C_2
REMARK    2  A    between atoms: C_2  and  C_3
REMARK    3  A    between atoms: C_3  and  C_4
REMARK    4  A    between atoms: C_4  and  C_5
REMARK    5  A    between atoms: C_5  and  C_6
REMARK    6  A    between atoms: C_6  and  C_7
REMARK    7  A    between atoms: C_7  and  C_8
REMARK    8  A    between atoms: C_8  and  O_9
REMARK    9  A    between atoms: C_8  and  C_10
REMARK   10  A    between atoms: C_11  and  C_12
REMARK   11  A    between atoms: C_13  and  O_14
REMARK   12  A    between atoms: C_15  and  C_16
REMARK   13  A    between atoms: C_20  and  O_21
REMARK   14  A    between atoms: C_20  and  C_22
REMARK   15  A    between atoms: C_22  and  O_23
REMARK                            x       y       z     vdW  Elec       q    Type
REMARK                         _______ _______ _______ _____ _____    ______ ____
ROOT
ATOM      1  C   UNL     1       3.338   5.525  17.655  0.00  0.00    +0.000 C 
ATOM      2  C   UNL     1       2.520   6.708  18.246  0.00  0.00    +0.000 C 
ATOM      3  C   UNL     1       2.449   6.610  19.783  0.00  0.00    +0.000 C 
ATOM      4  C   UNL     1       1.573   7.703  20.391  0.00  0.00    +0.000 C 
ATOM      5  N   UNL     1       2.020   5.289  20.229  0.00  0.00    +0.000 N 
ATOM      6  C   UNL     1       2.576   4.157  19.668  0.00  0.00    +0.000 C 
ATOM      7  O   UNL     1       2.810   3.180  20.374  0.00  0.00    +0.000 OA
ATOM      8  C   UNL     1       2.722   4.187  18.132  0.00  0.00    +0.000 C 
ATOM      9  H   UNL     1       1.929   5.177  21.234  0.00  0.00    +0.000 HD
ENDROOT
BRANCH   1  11
ATOM     10  C   UNL     1       5.737   6.073  17.095  0.00  0.00    +0.000 C 
ATOM     11  C   UNL     1       4.816   5.650  17.980  0.00  0.00    +0.000 C 
BRANCH  10  12
ATOM     12  C   UNL     1       7.197   6.309  17.381  0.00  0.00    +0.000 C 
BRANCH  12  13
ATOM     13  O   UNL     1       7.526   5.851  18.686  0.00  0.00    +0.000 OA
ATOM     14  H   UNL     1       7.398   6.598  19.295  0.00  0.00    +0.000 HD
ENDBRANCH  12  13
BRANCH  12  15
ATOM     15  C   UNL     1       7.485   7.813  17.262  0.00  0.00    +0.000 C 
BRANCH  15  16
ATOM     16  C   UNL     1       8.428   8.310  18.354  0.00  0.00    +0.000 C 
BRANCH  16  17
ATOM     17  C   UNL     1       8.429   9.836  18.408  0.00  0.00    +0.000 C 
BRANCH  17  18
ATOM     18  C   UNL     1       9.725  10.341  19.033  0.00  0.00    +0.000 C 
BRANCH  18  19
ATOM     19  C   UNL     1       9.453  11.206  20.259  0.00  0.00    +0.000 C 
BRANCH  19  21
ATOM     20  C   UNL     1      11.855  11.696  19.698  0.00  0.00    +0.000 C 
ATOM     21  C   UNL     1      10.697  12.012  20.627  0.00  0.00    +0.000 C 
ENDBRANCH  19  21
ENDBRANCH  18  19
ENDBRANCH  17  18
ENDBRANCH  16  17
ENDBRANCH  15  16
ENDBRANCH  12  15
ENDBRANCH  10  12
ENDBRANCH   1  11
BRANCH   2  22
ATOM     22  O   UNL     1       3.039   7.986  17.862  0.00  0.00    +0.000 OA
ATOM     23  H   UNL     1       3.975   7.888  17.616  0.00  0.00    +0.000 HD
ENDBRANCH   2  22
BRANCH   8  24
ATOM     24  O   UNL     1       1.399   4.081  17.543  0.00  0.00    +0.000 OA
ATOM     25  H   UNL     1       1.515   4.072  16.574  0.00  0.00    +0.000 HD
ENDBRANCH   8  24
BRANCH   8  26
ATOM     26  C   UNL     1       3.494   2.947  17.647  0.00  0.00    +0.000 C 
BRANCH  26  27
ATOM     27  O   UNL     1       2.693   1.767  17.788  0.00  0.00    +0.000 OA
ATOM     28  H   UNL     1       1.970   1.872  17.140  0.00  0.00    +0.000 HD
ENDBRANCH  26  27
ENDBRANCH   8  26
TORSDOF 13
ENDMDL
