MODEL 1
REMARK VINA RESULT:      -7.5      0.000      0.000
REMARK  Name = 
REMARK  4 active torsions:
REMARK  status: ('A' for Active; 'I' for Inactive)
REMARK    1  A    between atoms: C_3  and  C_4
REMARK    2  A    between atoms: C_4  and  N_5
REMARK    3  A    between atoms: N_12  and  C_13
REMARK    4  A    between atoms: C_13  and  C_14
REMARK                            x       y       z     vdW  Elec       q    Type
REMARK                         _______ _______ _______ _____ _____    ______ ____
ROOT
ATOM      1  N   UNL     1       3.828   4.727  19.219  0.00  0.00    +0.000 NA
ATOM      2  C   UNL     1       3.240   4.403  20.527  0.00  0.00    +0.000 C 
ATOM      3  C   UNL     1       1.747   4.734  20.656  0.00  0.00    +0.000 C 
ATOM      4  C   UNL     1       0.947   4.042  19.549  0.00  0.00    +0.000 C 
ATOM      5  C   UNL     1       1.604   4.184  18.187  0.00  0.00    +0.000 C 
ATOM      6  C   UNL     1       2.833   5.103  18.205  0.00  0.00    +0.000 C 
ATOM      7  C   UNL     1       2.403   6.592  18.376  0.00  0.00    +0.000 C 
ATOM      8  N   UNL     1       2.086   7.103  19.715  0.00  0.00    +0.000 NA
ATOM      9  C   UNL     1       1.460   6.243  20.700  0.00  0.00    +0.000 C 
ENDROOT
BRANCH   1  10
ATOM     10  C   UNL     1       4.792   3.714  18.770  0.00  0.00    +0.000 C 
BRANCH  10  13
ATOM     11  C   UNL     1       5.953   3.915  15.074  0.00  0.00    +0.000 A 
ATOM     12  C   UNL     1       5.346   3.506  16.287  0.00  0.00    +0.000 A 
ATOM     13  C   UNL     1       5.526   4.165  17.534  0.00  0.00    +0.000 A 
ATOM     14  C   UNL     1       6.412   5.263  17.459  0.00  0.00    +0.000 A 
ATOM     15  N   UNL     1       6.826   6.095  18.425  0.00  0.00    +0.000 NA
ATOM     16  O   UNL     1       7.680   6.997  17.810  0.00  0.00    +0.000 OA
ATOM     17  N   UNL     1       7.807   6.749  16.459  0.00  0.00    +0.000 NA
ATOM     18  C   UNL     1       7.039   5.683  16.208  0.00  0.00    +0.000 A 
ATOM     19  C   UNL     1       6.814   5.022  14.986  0.00  0.00    +0.000 A 
ENDBRANCH  10  13
ENDBRANCH   1  10
BRANCH   8  20
ATOM     20  C   UNL     1       1.567   8.481  19.707  0.00  0.00    +0.000 C 
BRANCH  20  21
ATOM     21  C   UNL     1       0.951   8.890  21.023  0.00  0.00    +0.000 A 
ATOM     22  C   UNL     1      -0.380   9.184  21.269  0.00  0.00    +0.000 A 
ATOM     23  S   UNL     1      -0.597   9.650  22.905  0.00  0.00    +0.000 S 
ATOM     24  C   UNL     1       1.074   9.401  23.177  0.00  0.00    +0.000 A 
ATOM     25  N   UNL     1       1.776   8.995  22.142  0.00  0.00    +0.000 NA
ENDBRANCH  20  21
ENDBRANCH   8  20
TORSDOF 4
ENDMDL
MODEL 2
REMARK VINA RESULT:      -7.5      3.588      7.399
REMARK  Name = 
REMARK  4 active torsions:
REMARK  status: ('A' for Active; 'I' for Inactive)
REMARK    1  A    between atoms: C_3  and  C_4
REMARK    2  A    between atoms: C_4  and  N_5
REMARK    3  A    between atoms: N_12  and  C_13
REMARK    4  A    between atoms: C_13  and  C_14
REMARK                            x       y       z     vdW  Elec       q    Type
REMARK                         _______ _______ _______ _____ _____    ______ ____
ROOT
ATOM      1  N   UNL     1       3.354   5.535  18.819  0.00  0.00    +0.000 NA
ATOM      2  C   UNL     1       2.727   4.756  17.741  0.00  0.00    +0.000 C 
ATOM      3  C   UNL     1       3.494   3.488  17.341  0.00  0.00    +0.000 C 
ATOM      4  C   UNL     1       3.718   2.589  18.558  0.00  0.00    +0.000 C 
ATOM      5  C   UNL     1       4.194   3.369  19.772  0.00  0.00    +0.000 C 
ATOM      6  C   UNL     1       4.480   4.845  19.465  0.00  0.00    +0.000 C 
ATOM      7  C   UNL     1       5.778   4.988  18.613  0.00  0.00    +0.000 C 
ATOM      8  N   UNL     1       5.718   4.767  17.163  0.00  0.00    +0.000 NA
ATOM      9  C   UNL     1       4.812   3.782  16.607  0.00  0.00    +0.000 C 
ENDROOT
BRANCH   1  10
ATOM     10  C   UNL     1       2.368   6.088  19.758  0.00  0.00    +0.000 C 
BRANCH  10  13
ATOM     11  C   UNL     1       1.946   9.372  17.735  0.00  0.00    +0.000 A 
ATOM     12  C   UNL     1       2.289   8.055  18.134  0.00  0.00    +0.000 A 
ATOM     13  C   UNL     1       2.039   7.521  19.427  0.00  0.00    +0.000 A 
ATOM     14  C   UNL     1       1.441   8.451  20.307  0.00  0.00    +0.000 A 
ATOM     15  N   UNL     1       1.085   8.305  21.591  0.00  0.00    +0.000 NA
ATOM     16  O   UNL     1       0.536   9.520  21.973  0.00  0.00    +0.000 OA
ATOM     17  N   UNL     1       0.537  10.434  20.940  0.00  0.00    +0.000 NA
ATOM     18  C   UNL     1       1.091   9.808  19.896  0.00  0.00    +0.000 A 
ATOM     19  C   UNL     1       1.328  10.293  18.597  0.00  0.00    +0.000 A 
ENDBRANCH  10  13
ENDBRANCH   1  10
BRANCH   8  20
ATOM     20  C   UNL     1       7.039   4.801  16.512  0.00  0.00    +0.000 C 
BRANCH  20  21
ATOM     21  C   UNL     1       6.965   4.633  15.013  0.00  0.00    +0.000 A 
ATOM     22  C   UNL     1       6.196   3.721  14.310  0.00  0.00    +0.000 A 
ATOM     23  S   UNL     1       6.483   3.869  12.626  0.00  0.00    +0.000 S 
ATOM     24  C   UNL     1       7.578   5.145  12.945  0.00  0.00    +0.000 A 
ATOM     25  N   UNL     1       7.740   5.467  14.209  0.00  0.00    +0.000 NA
ENDBRANCH  20  21
ENDBRANCH   8  20
TORSDOF 4
ENDMDL
MODEL 3
REMARK VINA RESULT:      -7.2      4.207      7.796
REMARK  Name = 
REMARK  4 active torsions:
REMARK  status: ('A' for Active; 'I' for Inactive)
REMARK    1  A    between atoms: C_3  and  C_4
REMARK    2  A    between atoms: C_4  and  N_5
REMARK    3  A    between atoms: N_12  and  C_13
REMARK    4  A    between atoms: C_13  and  C_14
REMARK                            x       y       z     vdW  Elec       q    Type
REMARK                         _______ _______ _______ _____ _____    ______ ____
ROOT
ATOM      1  N   UNL     1       4.536   5.342  17.394  0.00  0.00    +0.000 NA
ATOM      2  C   UNL     1       5.493   4.462  18.083  0.00  0.00    +0.000 C 
ATOM      3  C   UNL     1       6.967   4.752  17.769  0.00  0.00    +0.000 C 
ATOM      4  C   UNL     1       7.304   6.213  18.074  0.00  0.00    +0.000 C 
ATOM      5  C   UNL     1       6.250   7.171  17.544  0.00  0.00    +0.000 C 
ATOM      6  C   UNL     1       5.171   6.474  16.705  0.00  0.00    +0.000 C 
ATOM      7  C   UNL     1       5.749   6.029  15.327  0.00  0.00    +0.000 C 
ATOM      8  N   UNL     1       6.526   4.787  15.236  0.00  0.00    +0.000 NA
ATOM      9  C   UNL     1       7.370   4.367  16.337  0.00  0.00    +0.000 C 
ENDROOT
BRANCH   1  10
ATOM     10  C   UNL     1       3.402   5.717  18.249  0.00  0.00    +0.000 C 
BRANCH  10  13
ATOM     11  C   UNL     1       1.230   2.520  17.901  0.00  0.00    +0.000 A 
ATOM     12  C   UNL     1       1.966   3.700  17.626  0.00  0.00    +0.000 A 
ATOM     13  C   UNL     1       2.574   4.513  18.621  0.00  0.00    +0.000 A 
ATOM     14  C   UNL     1       2.343   4.050  19.936  0.00  0.00    +0.000 A 
ATOM     15  N   UNL     1       2.742   4.567  21.106  0.00  0.00    +0.000 NA
ATOM     16  O   UNL     1       2.251   3.715  22.084  0.00  0.00    +0.000 OA
ATOM     17  N   UNL     1       1.548   2.659  21.544  0.00  0.00    +0.000 NA
ATOM     18  C   UNL     1       1.582   2.835  20.219  0.00  0.00    +0.000 A 
ATOM     19  C   UNL     1       1.018   2.039  19.205  0.00  0.00    +0.000 A 
ENDBRANCH  10  13
ENDBRANCH   1  10
BRANCH   8  20
ATOM     20  C   UNL     1       7.121   4.565  13.907  0.00  0.00    +0.000 C 
BRANCH  20  21
ATOM     21  C   UNL     1       6.196   3.844  12.956  0.00  0.00    +0.000 A 
ATOM     22  C   UNL     1       4.858   4.115  12.723  0.00  0.00    +0.000 A 
ATOM     23  S   UNL     1       4.209   2.997  11.596  0.00  0.00    +0.000 S 
ATOM     24  C   UNL     1       5.747   2.256  11.475  0.00  0.00    +0.000 A 
ATOM     25  N   UNL     1       6.703   2.782  12.208  0.00  0.00    +0.000 NA
ENDBRANCH  20  21
ENDBRANCH   8  20
TORSDOF 4
ENDMDL
MODEL 4
REMARK VINA RESULT:      -7.1      4.263      7.964
REMARK  Name = 
REMARK  4 active torsions:
REMARK  status: ('A' for Active; 'I' for Inactive)
REMARK    1  A    between atoms: C_3  and  C_4
REMARK    2  A    between atoms: C_4  and  N_5
REMARK    3  A    between atoms: N_12  and  C_13
REMARK    4  A    between atoms: C_13  and  C_14
REMARK                            x       y       z     vdW  Elec       q    Type
REMARK                         _______ _______ _______ _____ _____    ______ ____
ROOT
ATOM      1  N   UNL     1       4.132   5.572  17.094  0.00  0.00    +0.000 NA
ATOM      2  C   UNL     1       4.862   4.546  17.853  0.00  0.00    +0.000 C 
ATOM      3  C   UNL     1       6.388   4.607  17.704  0.00  0.00    +0.000 C 
ATOM      4  C   UNL     1       6.910   5.994  18.085  0.00  0.00    +0.000 C 
ATOM      5  C   UNL     1       6.079   7.111  17.476  0.00  0.00    +0.000 C 
ATOM      6  C   UNL     1       5.003   6.601  16.509  0.00  0.00    +0.000 C 
ATOM      7  C   UNL     1       5.651   6.090  15.186  0.00  0.00    +0.000 C 
ATOM      8  N   UNL     1       6.234   4.744  15.140  0.00  0.00    +0.000 NA
ATOM      9  C   UNL     1       6.880   4.183  16.311  0.00  0.00    +0.000 C 
ENDROOT
BRANCH   1  10
ATOM     10  C   UNL     1       2.983   6.107  17.836  0.00  0.00    +0.000 C 
BRANCH  10  13
ATOM     11  C   UNL     1       2.409   4.523  21.331  0.00  0.00    +0.000 A 
ATOM     12  C   UNL     1       2.860   5.348  20.270  0.00  0.00    +0.000 A 
ATOM     13  C   UNL     1       2.523   5.147  18.904  0.00  0.00    +0.000 A 
ATOM     14  C   UNL     1       1.714   4.008  18.691  0.00  0.00    +0.000 A 
ATOM     15  N   UNL     1       1.227   3.508  17.547  0.00  0.00    +0.000 NA
ATOM     16  O   UNL     1       0.492   2.388  17.906  0.00  0.00    +0.000 OA
ATOM     17  N   UNL     1       0.505   2.176  19.269  0.00  0.00    +0.000 NA
ATOM     18  C   UNL     1       1.253   3.157  19.785  0.00  0.00    +0.000 A 
ATOM     19  C   UNL     1       1.583   3.404  21.131  0.00  0.00    +0.000 A 
ENDBRANCH  10  13
ENDBRANCH   1  10
BRANCH   8  20
ATOM     20  C   UNL     1       6.928   4.449  13.875  0.00  0.00    +0.000 C 
BRANCH  20  21
ATOM     21  C   UNL     1       6.057   3.727  12.875  0.00  0.00    +0.000 A 
ATOM     22  C   UNL     1       4.746   4.020  12.542  0.00  0.00    +0.000 A 
ATOM     23  S   UNL     1       4.153   2.891  11.395  0.00  0.00    +0.000 S 
ATOM     24  C   UNL     1       5.680   2.117  11.398  0.00  0.00    +0.000 A 
ATOM     25  N   UNL     1       6.592   2.639  12.187  0.00  0.00    +0.000 NA
ENDBRANCH  20  21
ENDBRANCH   8  20
TORSDOF 4
ENDMDL
MODEL 5
REMARK VINA RESULT:      -7.1      1.781      2.135
REMARK  Name = 
REMARK  4 active torsions:
REMARK  status: ('A' for Active; 'I' for Inactive)
REMARK    1  A    between atoms: C_3  and  C_4
REMARK    2  A    between atoms: C_4  and  N_5
REMARK    3  A    between atoms: N_12  and  C_13
REMARK    4  A    between atoms: C_13  and  C_14
REMARK                            x       y       z     vdW  Elec       q    Type
REMARK                         _______ _______ _______ _____ _____    ______ ____
ROOT
ATOM      1  N   UNL     1       3.361   3.660  18.553  0.00  0.00    +0.000 NA
ATOM      2  C   UNL     1       3.620   3.094  19.885  0.00  0.00    +0.000 C 
ATOM      3  C   UNL     1       2.432   3.171  20.854  0.00  0.00    +0.000 C 
ATOM      4  C   UNL     1       1.198   2.502  20.244  0.00  0.00    +0.000 C 
ATOM      5  C   UNL     1       0.978   2.907  18.796  0.00  0.00    +0.000 C 
ATOM      6  C   UNL     1       1.948   3.996  18.322  0.00  0.00    +0.000 C 
ATOM      7  C   UNL     1       1.594   5.369  18.970  0.00  0.00    +0.000 C 
ATOM      8  N   UNL     1       2.042   5.660  20.337  0.00  0.00    +0.000 NA
ATOM      9  C   UNL     1       2.124   4.601  21.324  0.00  0.00    +0.000 C 
ENDROOT
BRANCH   1  10
ATOM     10  C   UNL     1       3.974   2.870  17.478  0.00  0.00    +0.000 C 
BRANCH  10  13
ATOM     11  C   UNL     1       5.948   4.580  14.608  0.00  0.00    +0.000 A 
ATOM     12  C   UNL     1       5.018   3.802  15.343  0.00  0.00    +0.000 A 
ATOM     13  C   UNL     1       5.039   3.657  16.757  0.00  0.00    +0.000 A 
ATOM     14  C   UNL     1       6.112   4.341  17.371  0.00  0.00    +0.000 A 
ATOM     15  N   UNL     1       6.451   4.413  18.665  0.00  0.00    +0.000 NA
ATOM     16  O   UNL     1       7.577   5.220  18.719  0.00  0.00    +0.000 OA
ATOM     17  N   UNL     1       7.953   5.666  17.469  0.00  0.00    +0.000 NA
ATOM     18  C   UNL     1       7.071   5.140  16.612  0.00  0.00    +0.000 A 
ATOM     19  C   UNL     1       7.002   5.284  15.214  0.00  0.00    +0.000 A 
ENDBRANCH  10  13
ENDBRANCH   1  10
BRANCH   8  20
ATOM     20  C   UNL     1       1.520   6.932  20.866  0.00  0.00    +0.000 C 
BRANCH  20  21
ATOM     21  C   UNL     1       1.588   8.062  19.867  0.00  0.00    +0.000 A 
ATOM     22  C   UNL     1       0.924   9.275  19.929  0.00  0.00    +0.000 A 
ATOM     23  S   UNL     1       1.271  10.219  18.539  0.00  0.00    +0.000 S 
ATOM     24  C   UNL     1       2.295   8.971  17.972  0.00  0.00    +0.000 A 
ATOM     25  N   UNL     1       2.397   7.910  18.741  0.00  0.00    +0.000 NA
ENDBRANCH  20  21
ENDBRANCH   8  20
TORSDOF 4
ENDMDL
MODEL 6
REMARK VINA RESULT:      -7.1      3.375      6.810
REMARK  Name = 
REMARK  4 active torsions:
REMARK  status: ('A' for Active; 'I' for Inactive)
REMARK    1  A    between atoms: C_3  and  C_4
REMARK    2  A    between atoms: C_4  and  N_5
REMARK    3  A    between atoms: N_12  and  C_13
REMARK    4  A    between atoms: C_13  and  C_14
REMARK                            x       y       z     vdW  Elec       q    Type
REMARK                         _______ _______ _______ _____ _____    ______ ____
ROOT
ATOM      1  N   UNL     1       1.927   5.507  20.192  0.00  0.00    +0.000 NA
ATOM      2  C   UNL     1       0.751   4.757  19.727  0.00  0.00    +0.000 C 
ATOM      3  C   UNL     1       0.956   3.239  19.636  0.00  0.00    +0.000 C 
ATOM      4  C   UNL     1       1.422   2.679  20.982  0.00  0.00    +0.000 C 
ATOM      5  C   UNL     1       2.520   3.521  21.609  0.00  0.00    +0.000 C 
ATOM      6  C   UNL     1       3.011   4.649  20.692  0.00  0.00    +0.000 C 
ATOM      7  C   UNL     1       3.850   4.072  19.511  0.00  0.00    +0.000 C 
ATOM      8  N   UNL     1       3.162   3.513  18.342  0.00  0.00    +0.000 NA
ATOM      9  C   UNL     1       1.897   2.821  18.495  0.00  0.00    +0.000 C 
ENDROOT
BRANCH   1  10
ATOM     10  C   UNL     1       1.569   6.611  21.092  0.00  0.00    +0.000 C 
BRANCH  10  13
ATOM     11  C   UNL     1       1.828   9.209  18.221  0.00  0.00    +0.000 A 
ATOM     12  C   UNL     1       1.913   8.023  18.993  0.00  0.00    +0.000 A 
ATOM     13  C   UNL     1       1.516   7.925  20.355  0.00  0.00    +0.000 A 
ATOM     14  C   UNL     1       1.054   9.149  20.889  0.00  0.00    +0.000 A 
ATOM     15  N   UNL     1       0.621   9.432  22.125  0.00  0.00    +0.000 NA
ATOM     16  O   UNL     1       0.281  10.777  22.109  0.00  0.00    +0.000 OA
ATOM     17  N   UNL     1       0.490  11.348  20.871  0.00  0.00    +0.000 NA
ATOM     18  C   UNL     1       0.969  10.371  20.093  0.00  0.00    +0.000 A 
ATOM     19  C   UNL     1       1.346  10.423  18.738  0.00  0.00    +0.000 A 
ENDBRANCH  10  13
ENDBRANCH   1  10
BRANCH   8  20
ATOM     20  C   UNL     1       4.074   2.885  17.372  0.00  0.00    +0.000 C 
BRANCH  20  21
ATOM     21  C   UNL     1       4.860   3.887  16.561  0.00  0.00    +0.000 A 
ATOM     22  C   UNL     1       5.952   3.635  15.749  0.00  0.00    +0.000 A 
ATOM     23  S   UNL     1       6.546   5.095  15.073  0.00  0.00    +0.000 S 
ATOM     24  C   UNL     1       5.300   5.950  15.877  0.00  0.00    +0.000 A 
ATOM     25  N   UNL     1       4.478   5.227  16.605  0.00  0.00    +0.000 NA
ENDBRANCH  20  21
ENDBRANCH   8  20
TORSDOF 4
ENDMDL
MODEL 7
REMARK VINA RESULT:      -7.0      3.091      6.516
REMARK  Name = 
REMARK  4 active torsions:
REMARK  status: ('A' for Active; 'I' for Inactive)
REMARK    1  A    between atoms: C_3  and  C_4
REMARK    2  A    between atoms: C_4  and  N_5
REMARK    3  A    between atoms: N_12  and  C_13
REMARK    4  A    between atoms: C_13  and  C_14
REMARK                            x       y       z     vdW  Elec       q    Type
REMARK                         _______ _______ _______ _____ _____    ______ ____
ROOT
ATOM      1  N   UNL     1       2.068   5.413  20.272  0.00  0.00    +0.000 NA
ATOM      2  C   UNL     1       0.864   4.795  19.696  0.00  0.00    +0.000 C 
ATOM      3  C   UNL     1       0.962   3.278  19.491  0.00  0.00    +0.000 C 
ATOM      4  C   UNL     1       1.316   2.579  20.806  0.00  0.00    +0.000 C 
ATOM      5  C   UNL     1       2.440   3.283  21.548  0.00  0.00    +0.000 C 
ATOM      6  C   UNL     1       3.058   4.437  20.749  0.00  0.00    +0.000 C 
ATOM      7  C   UNL     1       3.911   3.891  19.563  0.00  0.00    +0.000 C 
ATOM      8  N   UNL     1       3.244   3.480  18.323  0.00  0.00    +0.000 NA
ATOM      9  C   UNL     1       1.926   2.878  18.362  0.00  0.00    +0.000 C 
ENDROOT
BRANCH   1  10
ATOM     10  C   UNL     1       1.747   6.468  21.243  0.00  0.00    +0.000 C 
BRANCH  10  13
ATOM     11  C   UNL     1       0.038   9.891  20.594  0.00  0.00    +0.000 A 
ATOM     12  C   UNL     1       0.420   8.647  21.156  0.00  0.00    +0.000 A 
ATOM     13  C   UNL     1       1.335   7.743  20.551  0.00  0.00    +0.000 A 
ATOM     14  C   UNL     1       1.810   8.188  19.298  0.00  0.00    +0.000 A 
ATOM     15  N   UNL     1       2.659   7.596  18.446  0.00  0.00    +0.000 NA
ATOM     16  O   UNL     1       2.790   8.466  17.374  0.00  0.00    +0.000 OA
ATOM     17  N   UNL     1       2.034   9.608  17.541  0.00  0.00    +0.000 NA
ATOM     18  C   UNL     1       1.414   9.469  18.717  0.00  0.00    +0.000 A 
ATOM     19  C   UNL     1       0.527  10.352  19.360  0.00  0.00    +0.000 A 
ENDBRANCH  10  13
ENDBRANCH   1  10
BRANCH   8  20
ATOM     20  C   UNL     1       4.156   2.860  17.346  0.00  0.00    +0.000 C 
BRANCH  20  21
ATOM     21  C   UNL     1       4.899   3.870  16.504  0.00  0.00    +0.000 A 
ATOM     22  C   UNL     1       5.941   3.623  15.628  0.00  0.00    +0.000 A 
ATOM     23  S   UNL     1       6.501   5.089  14.937  0.00  0.00    +0.000 S 
ATOM     24  C   UNL     1       5.307   5.939  15.821  0.00  0.00    +0.000 A 
ATOM     25  N   UNL     1       4.526   5.211  16.587  0.00  0.00    +0.000 NA
ENDBRANCH  20  21
ENDBRANCH   8  20
TORSDOF 4
ENDMDL
MODEL 8
REMARK VINA RESULT:      -6.6      2.003      2.453
REMARK  Name = 
REMARK  4 active torsions:
REMARK  status: ('A' for Active; 'I' for Inactive)
REMARK    1  A    between atoms: C_3  and  C_4
REMARK    2  A    between atoms: C_4  and  N_5
REMARK    3  A    between atoms: N_12  and  C_13
REMARK    4  A    between atoms: C_13  and  C_14
REMARK                            x       y       z     vdW  Elec       q    Type
REMARK                         _______ _______ _______ _____ _____    ______ ____
ROOT
ATOM      1  N   UNL     1       3.851   4.195  19.398  0.00  0.00    +0.000 NA
ATOM      2  C   UNL     1       2.986   3.251  20.121  0.00  0.00    +0.000 C 
ATOM      3  C   UNL     1       1.484   3.542  20.004  0.00  0.00    +0.000 C 
ATOM      4  C   UNL     1       1.062   3.600  18.534  0.00  0.00    +0.000 C 
ATOM      5  C   UNL     1       2.025   4.416  17.689  0.00  0.00    +0.000 C 
ATOM      6  C   UNL     1       3.112   5.112  18.518  0.00  0.00    +0.000 C 
ATOM      7  C   UNL     1       2.509   6.295  19.334  0.00  0.00    +0.000 C 
ATOM      8  N   UNL     1       1.815   6.022  20.598  0.00  0.00    +0.000 NA
ATOM      9  C   UNL     1       1.048   4.803  20.766  0.00  0.00    +0.000 C 
ENDROOT
BRANCH   1  10
ATOM     10  C   UNL     1       4.992   3.531  18.754  0.00  0.00    +0.000 C 
BRANCH  10  13
ATOM     11  C   UNL     1       7.416   6.517  18.246  0.00  0.00    +0.000 A 
ATOM     12  C   UNL     1       6.507   5.585  18.805  0.00  0.00    +0.000 A 
ATOM     13  C   UNL     1       5.896   4.529  18.075  0.00  0.00    +0.000 A 
ATOM     14  C   UNL     1       6.254   4.516  16.709  0.00  0.00    +0.000 A 
ATOM     15  N   UNL     1       5.863   3.688  15.731  0.00  0.00    +0.000 NA
ATOM     16  O   UNL     1       6.521   4.114  14.587  0.00  0.00    +0.000 OA
ATOM     17  N   UNL     1       7.331   5.203  14.833  0.00  0.00    +0.000 NA
ATOM     18  C   UNL     1       7.189   5.479  16.133  0.00  0.00    +0.000 A 
ATOM     19  C   UNL     1       7.798   6.495  16.893  0.00  0.00    +0.000 A 
ENDBRANCH  10  13
ENDBRANCH   1  10
BRANCH   8  20
ATOM     20  C   UNL     1       1.181   7.214  21.187  0.00  0.00    +0.000 C 
BRANCH  20  21
ATOM     21  C   UNL     1       1.083   8.371  20.223  0.00  0.00    +0.000 A 
ATOM     22  C   UNL     1       1.861   8.594  19.100  0.00  0.00    +0.000 A 
ATOM     23  S   UNL     1       1.415  10.067  18.345  0.00  0.00    +0.000 S 
ATOM     24  C   UNL     1       0.207  10.289  19.537  0.00  0.00    +0.000 A 
ATOM     25  N   UNL     1       0.113   9.348  20.449  0.00  0.00    +0.000 NA
ENDBRANCH  20  21
ENDBRANCH   8  20
TORSDOF 4
ENDMDL
MODEL 9
REMARK VINA RESULT:      -6.6      3.143      6.822
REMARK  Name = 
REMARK  4 active torsions:
REMARK  status: ('A' for Active; 'I' for Inactive)
REMARK    1  A    between atoms: C_3  and  C_4
REMARK    2  A    between atoms: C_4  and  N_5
REMARK    3  A    between atoms: N_12  and  C_13
REMARK    4  A    between atoms: C_13  and  C_14
REMARK                            x       y       z     vdW  Elec       q    Type
REMARK                         _______ _______ _______ _____ _____    ______ ____
ROOT
ATOM      1  N   UNL     1       2.030   5.870  19.828  0.00  0.00    +0.000 NA
ATOM      2  C   UNL     1       1.284   5.198  18.754  0.00  0.00    +0.000 C 
ATOM      3  C   UNL     1       1.819   3.811  18.375  0.00  0.00    +0.000 C 
ATOM      4  C   UNL     1       1.876   2.902  19.604  0.00  0.00    +0.000 C 
ATOM      5  C   UNL     1       2.474   3.603  20.813  0.00  0.00    +0.000 C 
ATOM      6  C   UNL     1       3.015   5.002  20.490  0.00  0.00    +0.000 C 
ATOM      7  C   UNL     1       4.323   4.905  19.647  0.00  0.00    +0.000 C 
ATOM      8  N   UNL     1       4.234   4.680  18.199  0.00  0.00    +0.000 NA
ATOM      9  C   UNL     1       3.172   3.861  17.647  0.00  0.00    +0.000 C 
ENDROOT
BRANCH   1  10
ATOM     10  C   UNL     1       1.152   6.598  20.753  0.00  0.00    +0.000 C 
BRANCH  10  13
ATOM     11  C   UNL     1       1.454   9.942  18.809  0.00  0.00    +0.000 A 
ATOM     12  C   UNL     1       1.496   8.572  19.173  0.00  0.00    +0.000 A 
ATOM     13  C   UNL     1       1.149   8.076  20.459  0.00  0.00    +0.000 A 
ATOM     14  C   UNL     1       0.788   9.094  21.369  0.00  0.00    +0.000 A 
ATOM     15  N   UNL     1       0.424   9.001  22.656  0.00  0.00    +0.000 NA
ATOM     16  O   UNL     1       0.168  10.298  23.073  0.00  0.00    +0.000 OA
ATOM     17  N   UNL     1       0.361  11.214  22.060  0.00  0.00    +0.000 NA
ATOM     18  C   UNL     1       0.747  10.506  20.994  0.00  0.00    +0.000 A 
ATOM     19  C   UNL     1       1.069  10.957  19.701  0.00  0.00    +0.000 A 
ENDBRANCH  10  13
ENDBRANCH   1  10
BRANCH   8  20
ATOM     20  C   UNL     1       5.543   4.475  17.557  0.00  0.00    +0.000 C 
BRANCH  20  21
ATOM     21  C   UNL     1       6.503   5.617  17.791  0.00  0.00    +0.000 A 
ATOM     22  C   UNL     1       6.519   6.842  17.147  0.00  0.00    +0.000 A 
ATOM     23  S   UNL     1       7.827   7.797  17.711  0.00  0.00    +0.000 S 
ATOM     24  C   UNL     1       8.260   6.536  18.784  0.00  0.00    +0.000 A 
ATOM     25  N   UNL     1       7.501   5.464  18.753  0.00  0.00    +0.000 NA
ENDBRANCH  20  21
ENDBRANCH   8  20
TORSDOF 4
ENDMDL
