MODEL 1
REMARK VINA RESULT:      -7.2      0.000      0.000
REMARK  Name = 
REMARK  6 active torsions:
REMARK  status: ('A' for Active; 'I' for Inactive)
REMARK    1  A    between atoms: C_1  and  C_2
REMARK    2  A    between atoms: C_2  and  C_3
REMARK    3  A    between atoms: C_2  and  C_4
REMARK    4  A    between atoms: C_2  and  C_5
REMARK    5  A    between atoms: N_10  and  C_11
REMARK    6  A    between atoms: C_11  and  C_12
REMARK                            x       y       z     vdW  Elec       q    Type
REMARK                         _______ _______ _______ _____ _____    ______ ____
ROOT
ATOM      1  C   UNL     1       2.804   4.024  18.699  0.00  0.00    +0.000 A 
ATOM      2  C   UNL     1       3.702   3.177  17.873  0.00  0.00    +0.000 A 
ATOM      3  C   UNL     1       4.460   3.779  16.961  0.00  0.00    +0.000 A 
ATOM      4  C   UNL     1       4.434   5.246  16.800  0.00  0.00    +0.000 A 
ATOM      5  O   UNL     1       5.125   5.761  15.930  0.00  0.00    +0.000 OA
ATOM      6  N   UNL     1       3.619   5.938  17.687  0.00  0.00    +0.000 N 
ATOM      7  N   UNL     1       2.786   5.325  18.610  0.00  0.00    +0.000 NA
ENDROOT
BRANCH   1   9
ATOM      8  C   UNL     1       2.631   2.551  20.772  0.00  0.00    +0.000 C 
ATOM      9  C   UNL     1       1.842   3.299  19.682  0.00  0.00    +0.000 C 
ATOM     10  C   UNL     1       0.982   2.297  18.891  0.00  0.00    +0.000 C 
ATOM     11  C   UNL     1       0.899   4.294  20.384  0.00  0.00    +0.000 C 
ENDBRANCH   1   9
BRANCH   6  12
ATOM     12  C   UNL     1       3.633   7.403  17.678  0.00  0.00    +0.000 C 
BRANCH  12  13
ATOM     13  C   UNL     1       2.260   7.904  18.064  0.00  0.00    +0.000 C 
ATOM     14  C   UNL     1       2.042   8.222  19.566  0.00  0.00    +0.000 C 
ATOM     15  N   UNL     1       1.132   9.221  19.104  0.00  0.00    +0.000 N 
ATOM     16  C   UNL     1       0.388  10.099  19.814  0.00  0.00    +0.000 A 
ATOM     17  C   UNL     1      -0.533  11.002  19.170  0.00  0.00    +0.000 A 
ATOM     18  N   UNL     1      -1.277  11.771  19.968  0.00  0.00    +0.000 NA
ATOM     19  S   UNL     1      -0.799  11.330  21.510  0.00  0.00    +0.000 S 
ATOM     20  N   UNL     1       0.339  10.156  21.149  0.00  0.00    +0.000 NA
ATOM     21  C   UNL     1       1.826   9.377  17.860  0.00  0.00    +0.000 C 
ENDBRANCH  12  13
ENDBRANCH   6  12
TORSDOF 3
ENDMDL
MODEL 2
REMARK VINA RESULT:      -7.1      2.293      3.764
REMARK  Name = 
REMARK  6 active torsions:
REMARK  status: ('A' for Active; 'I' for Inactive)
REMARK    1  A    between atoms: C_1  and  C_2
REMARK    2  A    between atoms: C_2  and  C_3
REMARK    3  A    between atoms: C_2  and  C_4
REMARK    4  A    between atoms: C_2  and  C_5
REMARK    5  A    between atoms: N_10  and  C_11
REMARK    6  A    between atoms: C_11  and  C_12
REMARK                            x       y       z     vdW  Elec       q    Type
REMARK                         _______ _______ _______ _____ _____    ______ ____
ROOT
ATOM      1  C   UNL     1       5.529   5.358  18.373  0.00  0.00    +0.000 A 
ATOM      2  C   UNL     1       5.190   4.018  18.915  0.00  0.00    +0.000 A 
ATOM      3  C   UNL     1       3.922   3.783  19.244  0.00  0.00    +0.000 A 
ATOM      4  C   UNL     1       2.883   4.812  19.045  0.00  0.00    +0.000 A 
ATOM      5  O   UNL     1       1.732   4.569  19.387  0.00  0.00    +0.000 OA
ATOM      6  N   UNL     1       3.307   5.995  18.452  0.00  0.00    +0.000 N 
ATOM      7  N   UNL     1       4.630   6.275  18.147  0.00  0.00    +0.000 NA
ENDROOT
BRANCH   1   9
ATOM      8  C   UNL     1       7.659   4.558  17.224  0.00  0.00    +0.000 C 
ATOM      9  C   UNL     1       7.030   5.659  18.098  0.00  0.00    +0.000 C 
ATOM     10  C   UNL     1       7.778   5.738  19.440  0.00  0.00    +0.000 C 
ATOM     11  C   UNL     1       7.211   7.001  17.365  0.00  0.00    +0.000 C 
ENDBRANCH   1   9
BRANCH   6  12
ATOM     12  C   UNL     1       2.316   7.016  18.104  0.00  0.00    +0.000 C 
BRANCH  12  13
ATOM     13  C   UNL     1       2.224   8.009  19.240  0.00  0.00    +0.000 C 
ATOM     14  C   UNL     1       1.246   9.196  19.038  0.00  0.00    +0.000 C 
ATOM     15  N   UNL     1       1.069   9.142  20.454  0.00  0.00    +0.000 N 
ATOM     16  C   UNL     1       0.287   9.905  21.251  0.00  0.00    +0.000 A 
ATOM     17  C   UNL     1       0.285   9.744  22.684  0.00  0.00    +0.000 A 
ATOM     18  N   UNL     1      -0.461  10.601  23.383  0.00  0.00    +0.000 NA
ATOM     19  S   UNL     1      -1.138  11.591  22.214  0.00  0.00    +0.000 S 
ATOM     20  N   UNL     1      -0.464  10.929  20.832  0.00  0.00    +0.000 NA
ATOM     21  C   UNL     1       1.375   7.743  20.509  0.00  0.00    +0.000 C 
ENDBRANCH  12  13
ENDBRANCH   6  12
TORSDOF 3
ENDMDL
MODEL 3
REMARK VINA RESULT:      -7.0      1.388      2.148
REMARK  Name = 
REMARK  6 active torsions:
REMARK  status: ('A' for Active; 'I' for Inactive)
REMARK    1  A    between atoms: C_1  and  C_2
REMARK    2  A    between atoms: C_2  and  C_3
REMARK    3  A    between atoms: C_2  and  C_4
REMARK    4  A    between atoms: C_2  and  C_5
REMARK    5  A    between atoms: N_10  and  C_11
REMARK    6  A    between atoms: C_11  and  C_12
REMARK                            x       y       z     vdW  Elec       q    Type
REMARK                         _______ _______ _______ _____ _____    ______ ____
ROOT
ATOM      1  C   UNL     1       3.397   3.993  18.665  0.00  0.00    +0.000 A 
ATOM      2  C   UNL     1       4.879   4.016  18.563  0.00  0.00    +0.000 A 
ATOM      3  C   UNL     1       5.450   5.110  18.065  0.00  0.00    +0.000 A 
ATOM      4  C   UNL     1       4.638   6.273  17.660  0.00  0.00    +0.000 A 
ATOM      5  O   UNL     1       5.198   7.251  17.179  0.00  0.00    +0.000 OA
ATOM      6  N   UNL     1       3.271   6.166  17.882  0.00  0.00    +0.000 N 
ATOM      7  N   UNL     1       2.654   5.017  18.354  0.00  0.00    +0.000 NA
ENDROOT
BRANCH   1   9
ATOM      8  C   UNL     1       1.278   2.576  18.652  0.00  0.00    +0.000 C 
ATOM      9  C   UNL     1       2.735   2.669  19.143  0.00  0.00    +0.000 C 
ATOM     10  C   UNL     1       2.762   2.623  20.681  0.00  0.00    +0.000 C 
ATOM     11  C   UNL     1       3.490   1.437  18.611  0.00  0.00    +0.000 C 
ENDBRANCH   1   9
BRANCH   6  12
ATOM     12  C   UNL     1       2.411   7.323  17.626  0.00  0.00    +0.000 C 
BRANCH  12  13
ATOM     13  C   UNL     1       2.365   8.180  18.871  0.00  0.00    +0.000 C 
ATOM     14  C   UNL     1       1.282   9.289  18.901  0.00  0.00    +0.000 C 
ATOM     15  N   UNL     1       1.264   9.073  20.313  0.00  0.00    +0.000 N 
ATOM     16  C   UNL     1       0.516   9.676  21.265  0.00  0.00    +0.000 A 
ATOM     17  C   UNL     1       0.682   9.367  22.663  0.00  0.00    +0.000 A 
ATOM     18  N   UNL     1      -0.048  10.077  23.525  0.00  0.00    +0.000 NA
ATOM     19  S   UNL     1      -0.922  11.119  22.549  0.00  0.00    +0.000 S 
ATOM     20  N   UNL     1      -0.352  10.667  21.040  0.00  0.00    +0.000 NA
ATOM     21  C   UNL     1       1.682   7.708  20.178  0.00  0.00    +0.000 C 
ENDBRANCH  12  13
ENDBRANCH   6  12
TORSDOF 3
ENDMDL
MODEL 4
REMARK VINA RESULT:      -6.9      2.228      3.762
REMARK  Name = 
REMARK  6 active torsions:
REMARK  status: ('A' for Active; 'I' for Inactive)
REMARK    1  A    between atoms: C_1  and  C_2
REMARK    2  A    between atoms: C_2  and  C_3
REMARK    3  A    between atoms: C_2  and  C_4
REMARK    4  A    between atoms: C_2  and  C_5
REMARK    5  A    between atoms: N_10  and  C_11
REMARK    6  A    between atoms: C_11  and  C_12
REMARK                            x       y       z     vdW  Elec       q    Type
REMARK                         _______ _______ _______ _____ _____    ______ ____
ROOT
ATOM      1  C   UNL     1       5.528   5.481  18.141  0.00  0.00    +0.000 A 
ATOM      2  C   UNL     1       5.172   4.126  18.635  0.00  0.00    +0.000 A 
ATOM      3  C   UNL     1       3.902   3.897  18.958  0.00  0.00    +0.000 A 
ATOM      4  C   UNL     1       2.876   4.945  18.798  0.00  0.00    +0.000 A 
ATOM      5  O   UNL     1       1.723   4.704  19.133  0.00  0.00    +0.000 OA
ATOM      6  N   UNL     1       3.314   6.142  18.247  0.00  0.00    +0.000 N 
ATOM      7  N   UNL     1       4.641   6.416  17.950  0.00  0.00    +0.000 NA
ENDROOT
BRANCH   1   9
ATOM      8  C   UNL     1       7.232   7.216  17.378  0.00  0.00    +0.000 C 
ATOM      9  C   UNL     1       7.033   5.772  17.874  0.00  0.00    +0.000 C 
ATOM     10  C   UNL     1       7.550   4.788  16.811  0.00  0.00    +0.000 C 
ATOM     11  C   UNL     1       7.877   5.591  19.149  0.00  0.00    +0.000 C 
ENDBRANCH   1   9
BRANCH   6  12
ATOM     12  C   UNL     1       2.336   7.188  17.938  0.00  0.00    +0.000 C 
BRANCH  12  13
ATOM     13  C   UNL     1       2.232   8.121  19.123  0.00  0.00    +0.000 C 
ATOM     14  C   UNL     1       1.256   9.316  18.973  0.00  0.00    +0.000 C 
ATOM     15  N   UNL     1       1.064   9.189  20.382  0.00  0.00    +0.000 N 
ATOM     16  C   UNL     1       0.274   9.909  21.210  0.00  0.00    +0.000 A 
ATOM     17  C   UNL     1       0.258   9.674  22.633  0.00  0.00    +0.000 A 
ATOM     18  N   UNL     1      -0.495  10.494  23.368  0.00  0.00    +0.000 NA
ATOM     19  S   UNL     1      -1.161  11.543  22.246  0.00  0.00    +0.000 S 
ATOM     20  N   UNL     1      -0.473  10.954  20.838  0.00  0.00    +0.000 NA
ATOM     21  C   UNL     1       1.371   7.789  20.367  0.00  0.00    +0.000 C 
ENDBRANCH  12  13
ENDBRANCH   6  12
TORSDOF 3
ENDMDL
MODEL 5
REMARK VINA RESULT:      -6.9      2.168      3.611
REMARK  Name = 
REMARK  6 active torsions:
REMARK  status: ('A' for Active; 'I' for Inactive)
REMARK    1  A    between atoms: C_1  and  C_2
REMARK    2  A    between atoms: C_2  and  C_3
REMARK    3  A    between atoms: C_2  and  C_4
REMARK    4  A    between atoms: C_2  and  C_5
REMARK    5  A    between atoms: N_10  and  C_11
REMARK    6  A    between atoms: C_11  and  C_12
REMARK                            x       y       z     vdW  Elec       q    Type
REMARK                         _______ _______ _______ _____ _____    ______ ____
ROOT
ATOM      1  C   UNL     1       5.438   5.158  18.011  0.00  0.00    +0.000 A 
ATOM      2  C   UNL     1       5.063   4.412  16.783  0.00  0.00    +0.000 A 
ATOM      3  C   UNL     1       3.810   3.976  16.679  0.00  0.00    +0.000 A 
ATOM      4  C   UNL     1       2.819   4.254  17.736  0.00  0.00    +0.000 A 
ATOM      5  O   UNL     1       1.683   3.810  17.617  0.00  0.00    +0.000 OA
ATOM      6  N   UNL     1       3.265   5.033  18.795  0.00  0.00    +0.000 N 
ATOM      7  N   UNL     1       4.577   5.455  18.945  0.00  0.00    +0.000 NA
ENDROOT
BRANCH   1   9
ATOM      8  C   UNL     1       7.198   6.937  17.525  0.00  0.00    +0.000 C 
ATOM      9  C   UNL     1       6.930   5.566  18.173  0.00  0.00    +0.000 C 
ATOM     10  C   UNL     1       7.814   4.500  17.502  0.00  0.00    +0.000 C 
ATOM     11  C   UNL     1       7.331   5.660  19.657  0.00  0.00    +0.000 C 
ENDBRANCH   1   9
BRANCH   6  12
ATOM     12  C   UNL     1       2.311   5.460  19.822  0.00  0.00    +0.000 C 
BRANCH  12  13
ATOM     13  C   UNL     1       2.407   6.961  19.980  0.00  0.00    +0.000 C 
ATOM     14  C   UNL     1       1.860   7.812  18.805  0.00  0.00    +0.000 C 
ATOM     15  N   UNL     1       1.531   8.775  19.807  0.00  0.00    +0.000 N 
ATOM     16  C   UNL     1       0.939   9.984  19.675  0.00  0.00    +0.000 A 
ATOM     17  C   UNL     1       0.742  10.855  20.807  0.00  0.00    +0.000 A 
ATOM     18  N   UNL     1       0.222  12.058  20.554  0.00  0.00    +0.000 NA
ATOM     19  S   UNL     1       0.000  12.060  18.895  0.00  0.00    +0.000 S 
ATOM     20  N   UNL     1       0.580  10.536  18.512  0.00  0.00    +0.000 NA
ATOM     21  C   UNL     1       1.393   7.773  20.823  0.00  0.00    +0.000 C 
ENDBRANCH  12  13
ENDBRANCH   6  12
TORSDOF 3
ENDMDL
MODEL 6
REMARK VINA RESULT:      -6.9      1.330      1.765
REMARK  Name = 
REMARK  6 active torsions:
REMARK  status: ('A' for Active; 'I' for Inactive)
REMARK    1  A    between atoms: C_1  and  C_2
REMARK    2  A    between atoms: C_2  and  C_3
REMARK    3  A    between atoms: C_2  and  C_4
REMARK    4  A    between atoms: C_2  and  C_5
REMARK    5  A    between atoms: N_10  and  C_11
REMARK    6  A    between atoms: C_11  and  C_12
REMARK                            x       y       z     vdW  Elec       q    Type
REMARK                         _______ _______ _______ _____ _____    ______ ____
ROOT
ATOM      1  C   UNL     1       2.978   4.242  19.058  0.00  0.00    +0.000 A 
ATOM      2  C   UNL     1       4.434   4.060  18.824  0.00  0.00    +0.000 A 
ATOM      3  C   UNL     1       5.077   5.008  18.148  0.00  0.00    +0.000 A 
ATOM      4  C   UNL     1       4.373   6.216  17.677  0.00  0.00    +0.000 A 
ATOM      5  O   UNL     1       4.994   7.053  17.033  0.00  0.00    +0.000 OA
ATOM      6  N   UNL     1       3.033   6.313  18.030  0.00  0.00    +0.000 N 
ATOM      7  N   UNL     1       2.335   5.314  18.691  0.00  0.00    +0.000 NA
ENDROOT
BRANCH   1   9
ATOM      8  C   UNL     1       2.950   2.618  21.023  0.00  0.00    +0.000 C 
ATOM      9  C   UNL     1       2.215   3.076  19.750  0.00  0.00    +0.000 C 
ATOM     10  C   UNL     1       2.106   1.897  18.767  0.00  0.00    +0.000 C 
ATOM     11  C   UNL     1       0.790   3.498  20.155  0.00  0.00    +0.000 C 
ENDBRANCH   1   9
BRANCH   6  12
ATOM     12  C   UNL     1       2.295   7.537  17.711  0.00  0.00    +0.000 C 
BRANCH  12  13
ATOM     13  C   UNL     1       2.224   8.399  18.951  0.00  0.00    +0.000 C 
ATOM     14  C   UNL     1       1.131   9.499  18.962  0.00  0.00    +0.000 C 
ATOM     15  N   UNL     1       1.095   9.288  20.374  0.00  0.00    +0.000 N 
ATOM     16  C   UNL     1       0.328   9.888  21.312  0.00  0.00    +0.000 A 
ATOM     17  C   UNL     1       0.477   9.586  22.714  0.00  0.00    +0.000 A 
ATOM     18  N   UNL     1      -0.272  10.293  23.563  0.00  0.00    +0.000 NA
ATOM     19  S   UNL     1      -1.141  11.323  22.570  0.00  0.00    +0.000 S 
ATOM     20  N   UNL     1      -0.547  10.870  21.072  0.00  0.00    +0.000 NA
ATOM     21  C   UNL     1       1.527   7.927  20.251  0.00  0.00    +0.000 C 
ENDBRANCH  12  13
ENDBRANCH   6  12
TORSDOF 3
ENDMDL
MODEL 7
REMARK VINA RESULT:      -6.8      2.196      3.672
REMARK  Name = 
REMARK  6 active torsions:
REMARK  status: ('A' for Active; 'I' for Inactive)
REMARK    1  A    between atoms: C_1  and  C_2
REMARK    2  A    between atoms: C_2  and  C_3
REMARK    3  A    between atoms: C_2  and  C_4
REMARK    4  A    between atoms: C_2  and  C_5
REMARK    5  A    between atoms: N_10  and  C_11
REMARK    6  A    between atoms: C_11  and  C_12
REMARK                            x       y       z     vdW  Elec       q    Type
REMARK                         _______ _______ _______ _____ _____    ______ ____
ROOT
ATOM      1  C   UNL     1       5.488   5.408  18.367  0.00  0.00    +0.000 A 
ATOM      2  C   UNL     1       5.157   4.183  19.139  0.00  0.00    +0.000 A 
ATOM      3  C   UNL     1       3.886   3.987  19.480  0.00  0.00    +0.000 A 
ATOM      4  C   UNL     1       2.836   4.940  19.074  0.00  0.00    +0.000 A 
ATOM      5  O   UNL     1       1.681   4.739  19.431  0.00  0.00    +0.000 OA
ATOM      6  N   UNL     1       3.254   6.002  18.282  0.00  0.00    +0.000 N 
ATOM      7  N   UNL     1       4.579   6.249  17.959  0.00  0.00    +0.000 NA
ENDROOT
BRANCH   1   9
ATOM      8  C   UNL     1       7.805   5.734  19.378  0.00  0.00    +0.000 C 
ATOM      9  C   UNL     1       6.990   5.683  18.072  0.00  0.00    +0.000 C 
ATOM     10  C   UNL     1       7.115   7.029  17.337  0.00  0.00    +0.000 C 
ATOM     11  C   UNL     1       7.599   4.587  17.179  0.00  0.00    +0.000 C 
ENDBRANCH   1   9
BRANCH   6  12
ATOM     12  C   UNL     1       2.255   6.922  17.733  0.00  0.00    +0.000 C 
BRANCH  12  13
ATOM     13  C   UNL     1       2.298   8.212  18.520  0.00  0.00    +0.000 C 
ATOM     14  C   UNL     1       1.373   9.352  18.021  0.00  0.00    +0.000 C 
ATOM     15  N   UNL     1       1.295   9.735  19.395  0.00  0.00    +0.000 N 
ATOM     16  C   UNL     1       0.615  10.754  19.965  0.00  0.00    +0.000 A 
ATOM     17  C   UNL     1       0.708  11.027  21.378  0.00  0.00    +0.000 A 
ATOM     18  N   UNL     1       0.060  12.105  21.825  0.00  0.00    +0.000 NA
ATOM     19  S   UNL     1      -0.645  12.749  20.450  0.00  0.00    +0.000 S 
ATOM     20  N   UNL     1      -0.109  11.659  19.298  0.00  0.00    +0.000 NA
ATOM     21  C   UNL     1       1.530   8.397  19.853  0.00  0.00    +0.000 C 
ENDBRANCH  12  13
ENDBRANCH   6  12
TORSDOF 3
ENDMDL
MODEL 8
REMARK VINA RESULT:      -6.8      4.683      6.806
REMARK  Name = 
REMARK  6 active torsions:
REMARK  status: ('A' for Active; 'I' for Inactive)
REMARK    1  A    between atoms: C_1  and  C_2
REMARK    2  A    between atoms: C_2  and  C_3
REMARK    3  A    between atoms: C_2  and  C_4
REMARK    4  A    between atoms: C_2  and  C_5
REMARK    5  A    between atoms: N_10  and  C_11
REMARK    6  A    between atoms: C_11  and  C_12
REMARK                            x       y       z     vdW  Elec       q    Type
REMARK                         _______ _______ _______ _____ _____    ______ ____
ROOT
ATOM      1  C   UNL     1       2.795   3.917  19.015  0.00  0.00    +0.000 A 
ATOM      2  C   UNL     1       1.928   4.873  18.280  0.00  0.00    +0.000 A 
ATOM      3  C   UNL     1       2.462   6.030  17.898  0.00  0.00    +0.000 A 
ATOM      4  C   UNL     1       3.880   6.337  18.167  0.00  0.00    +0.000 A 
ATOM      5  O   UNL     1       4.327   7.425  17.825  0.00  0.00    +0.000 OA
ATOM      6  N   UNL     1       4.612   5.331  18.785  0.00  0.00    +0.000 N 
ATOM      7  N   UNL     1       4.061   4.140  19.233  0.00  0.00    +0.000 NA
ENDROOT
BRANCH   1   9
ATOM      8  C   UNL     1       2.948   1.376  19.150  0.00  0.00    +0.000 C 
ATOM      9  C   UNL     1       2.131   2.618  19.554  0.00  0.00    +0.000 C 
ATOM     10  C   UNL     1       0.709   2.507  18.977  0.00  0.00    +0.000 C 
ATOM     11  C   UNL     1       2.028   2.634  21.090  0.00  0.00    +0.000 C 
ENDBRANCH   1   9
BRANCH   6  12
ATOM     12  C   UNL     1       6.053   5.507  18.973  0.00  0.00    +0.000 C 
BRANCH  12  13
ATOM     13  C   UNL     1       6.768   5.014  17.735  0.00  0.00    +0.000 C 
ATOM     14  C   UNL     1       5.942   4.121  16.774  0.00  0.00    +0.000 C 
ATOM     15  N   UNL     1       6.742   4.693  15.738  0.00  0.00    +0.000 N 
ATOM     16  C   UNL     1       6.707   4.471  14.405  0.00  0.00    +0.000 A 
ATOM     17  C   UNL     1       7.646   5.101  13.510  0.00  0.00    +0.000 A 
ATOM     18  N   UNL     1       7.577   4.751  12.225  0.00  0.00    +0.000 NA
ATOM     19  S   UNL     1       6.332   3.632  12.178  0.00  0.00    +0.000 S 
ATOM     20  N   UNL     1       5.903   3.593  13.796  0.00  0.00    +0.000 NA
ATOM     21  C   UNL     1       6.960   5.901  16.479  0.00  0.00    +0.000 C 
ENDBRANCH  12  13
ENDBRANCH   6  12
TORSDOF 3
ENDMDL
MODEL 9
REMARK VINA RESULT:      -6.8      2.173      3.585
REMARK  Name = 
REMARK  6 active torsions:
REMARK  status: ('A' for Active; 'I' for Inactive)
REMARK    1  A    between atoms: C_1  and  C_2
REMARK    2  A    between atoms: C_2  and  C_3
REMARK    3  A    between atoms: C_2  and  C_4
REMARK    4  A    between atoms: C_2  and  C_5
REMARK    5  A    between atoms: N_10  and  C_11
REMARK    6  A    between atoms: C_11  and  C_12
REMARK                            x       y       z     vdW  Elec       q    Type
REMARK                         _______ _______ _______ _____ _____    ______ ____
ROOT
ATOM      1  C   UNL     1       5.357   5.134  18.164  0.00  0.00    +0.000 A 
ATOM      2  C   UNL     1       4.814   4.308  17.055  0.00  0.00    +0.000 A 
ATOM      3  C   UNL     1       3.581   3.826  17.186  0.00  0.00    +0.000 A 
ATOM      4  C   UNL     1       2.769   4.129  18.380  0.00  0.00    +0.000 A 
ATOM      5  O   UNL     1       1.649   3.642  18.476  0.00  0.00    +0.000 OA
ATOM      6  N   UNL     1       3.353   4.981  19.309  0.00  0.00    +0.000 N 
ATOM      7  N   UNL     1       4.653   5.453  19.213  0.00  0.00    +0.000 NA
ENDROOT
BRANCH   1   9
ATOM      8  C   UNL     1       6.927   6.989  17.395  0.00  0.00    +0.000 C 
ATOM      9  C   UNL     1       6.837   5.598  18.051  0.00  0.00    +0.000 C 
ATOM     10  C   UNL     1       7.617   4.579  17.202  0.00  0.00    +0.000 C 
ATOM     11  C   UNL     1       7.507   5.686  19.434  0.00  0.00    +0.000 C 
ENDBRANCH   1   9
BRANCH   6  12
ATOM     12  C   UNL     1       2.566   5.432  20.459  0.00  0.00    +0.000 C 
BRANCH  12  13
ATOM     13  C   UNL     1       1.681   6.578  20.023  0.00  0.00    +0.000 C 
ATOM     14  C   UNL     1       1.384   7.661  21.092  0.00  0.00    +0.000 C 
ATOM     15  N   UNL     1       1.324   8.568  19.990  0.00  0.00    +0.000 N 
ATOM     16  C   UNL     1       1.089   9.900  19.986  0.00  0.00    +0.000 A 
ATOM     17  C   UNL     1       1.004  10.647  18.755  0.00  0.00    +0.000 A 
ATOM     18  N   UNL     1       0.689  11.940  18.860  0.00  0.00    +0.000 NA
ATOM     19  S   UNL     1       0.503  12.177  20.506  0.00  0.00    +0.000 S 
ATOM     20  N   UNL     1       0.812  10.631  21.070  0.00  0.00    +0.000 NA
ATOM     21  C   UNL     1       2.219   7.775  19.199  0.00  0.00    +0.000 C 
ENDBRANCH  12  13
ENDBRANCH   6  12
TORSDOF 3
ENDMDL
