MODEL 1
REMARK VINA RESULT:      -8.2      0.000      0.000
REMARK  Name = 
REMARK  14 active torsions:
REMARK  status: ('A' for Active; 'I' for Inactive)
REMARK    1  A    between atoms: C_1  and  C_2
REMARK    2  A    between atoms: C_2  and  C_3
REMARK    3  A    between atoms: C_3  and  N_4
REMARK    4  A    between atoms: N_14  and  C_15
REMARK    5  A    between atoms: C_15  and  C_16
REMARK    6  A    between atoms: N_18  and  C_19
REMARK    7  A    between atoms: C_19  and  C_20
REMARK    8  A    between atoms: C_20  and  C_21
REMARK    9  A    between atoms: C_24  and  O_25
REMARK   10  A    between atoms: O_25  and  C_26
REMARK   11  A    between atoms: C_26  and  C_27
REMARK   12  A    between atoms: C_28  and  O_29
REMARK   13  A    between atoms: O_29  and  C_30
REMARK   14  A    between atoms: C_30  and  C_31
REMARK                            x       y       z     vdW  Elec       q    Type
REMARK                         _______ _______ _______ _____ _____    ______ ____
ROOT
ATOM      1  C   UNL     1       2.601   7.395  19.324  0.00  0.00    +0.000 C 
ENDROOT
BRANCH   1  12
ATOM      2  N   UNL     1      -0.867  10.997  19.571  0.00  0.00    +0.000 N 
ATOM      3  C   UNL     1      -1.502  11.540  20.679  0.00  0.00    +0.000 A 
ATOM      4  C   UNL     1      -2.497  12.528  20.780  0.00  0.00    +0.000 A 
ATOM      5  C   UNL     1      -2.958  12.879  22.051  0.00  0.00    +0.000 A 
ATOM      6  C   UNL     1      -2.451  12.262  23.190  0.00  0.00    +0.000 A 
ATOM      7  C   UNL     1      -1.464  11.276  23.084  0.00  0.00    +0.000 A 
ATOM      8  C   UNL     1      -0.975  10.909  21.813  0.00  0.00    +0.000 A 
ATOM      9  C   UNL     1      -0.008   9.983  21.348  0.00  0.00    +0.000 A 
ATOM     10  C   UNL     1       0.845   9.053  22.036  0.00  0.00    +0.000 A 
ATOM     11  N   UNL     1       1.661   8.280  21.382  0.00  0.00    +0.000 NA
ATOM     12  N   UNL     1       1.722   8.359  19.982  0.00  0.00    +0.000 N 
ATOM     13  C   UNL     1       0.955   9.243  19.201  0.00  0.00    +0.000 A 
ATOM     14  O   UNL     1       1.072   9.312  17.980  0.00  0.00    +0.000 OA
ATOM     15  C   UNL     1       0.053  10.061  19.976  0.00  0.00    +0.000 A 
BRANCH   2  16
ATOM     16  C   UNL     1      -1.158  11.367  18.194  0.00  0.00    +0.000 C 
BRANCH  16  18
ATOM     17  C   UNL     1      -3.534  10.701  17.718  0.00  0.00    +0.000 C 
ATOM     18  C   UNL     1      -2.070  10.354  17.509  0.00  0.00    +0.000 C 
ENDBRANCH  16  18
ENDBRANCH   2  16
ENDBRANCH   1  12
BRANCH   1  19
ATOM     19  C   UNL     1       2.088   5.957  19.388  0.00  0.00    +0.000 C 
ATOM     20  O   UNL     1       1.580   5.503  20.412  0.00  0.00    +0.000 OA
ATOM     21  N   UNL     1       2.108   5.251  18.199  0.00  0.00    +0.000 N 
ATOM     22  H   UNL     1       2.498   5.696  17.372  0.00  0.00    +0.000 HD
BRANCH  21  23
ATOM     23  C   UNL     1       1.699   3.857  18.134  0.00  0.00    +0.000 C 
BRANCH  23  24
ATOM     24  C   UNL     1       2.850   2.901  17.801  0.00  0.00    +0.000 C 
BRANCH  24  25
ATOM     25  C   UNL     1       4.142   3.668  17.622  0.00  0.00    +0.000 A 
ATOM     26  C   UNL     1       4.942   3.979  18.723  0.00  0.00    +0.000 A 
ATOM     27  C   UNL     1       6.078   4.780  18.572  0.00  0.00    +0.000 A 
ATOM     28  C   UNL     1       6.427   5.300  17.319  0.00  0.00    +0.000 A 
ATOM     29  C   UNL     1       5.637   4.977  16.198  0.00  0.00    +0.000 A 
ATOM     30  C   UNL     1       4.510   4.155  16.360  0.00  0.00    +0.000 A 
BRANCH  28  31
ATOM     31  O   UNL     1       7.503   6.131  17.103  0.00  0.00    +0.000 OA
BRANCH  31  32
ATOM     32  C   UNL     1       7.303   7.527  17.324  0.00  0.00    +0.000 C 
ATOM     33  C   UNL     1       8.311   8.014  18.352  0.00  0.00    +0.000 C 
ENDBRANCH  31  32
ENDBRANCH  28  31
BRANCH  29  34
ATOM     34  O   UNL     1       6.021   5.521  14.992  0.00  0.00    +0.000 OA
BRANCH  34  35
ATOM     35  C   UNL     1       6.947   4.773  14.206  0.00  0.00    +0.000 C 
ATOM     36  C   UNL     1       6.179   3.804  13.326  0.00  0.00    +0.000 C 
ENDBRANCH  34  35
ENDBRANCH  29  34
ENDBRANCH  24  25
ENDBRANCH  23  24
ENDBRANCH  21  23
ENDBRANCH   1  19
TORSDOF 11
ENDMDL
MODEL 2
REMARK VINA RESULT:      -8.2      1.958      9.955
REMARK  Name = 
REMARK  14 active torsions:
REMARK  status: ('A' for Active; 'I' for Inactive)
REMARK    1  A    between atoms: C_1  and  C_2
REMARK    2  A    between atoms: C_2  and  C_3
REMARK    3  A    between atoms: C_3  and  N_4
REMARK    4  A    between atoms: N_14  and  C_15
REMARK    5  A    between atoms: C_15  and  C_16
REMARK    6  A    between atoms: N_18  and  C_19
REMARK    7  A    between atoms: C_19  and  C_20
REMARK    8  A    between atoms: C_20  and  C_21
REMARK    9  A    between atoms: C_24  and  O_25
REMARK   10  A    between atoms: O_25  and  C_26
REMARK   11  A    between atoms: C_26  and  C_27
REMARK   12  A    between atoms: C_28  and  O_29
REMARK   13  A    between atoms: O_29  and  C_30
REMARK   14  A    between atoms: C_30  and  C_31
REMARK                            x       y       z     vdW  Elec       q    Type
REMARK                         _______ _______ _______ _____ _____    ______ ____
ROOT
ATOM      1  C   UNL     1       3.024   4.104  20.293  0.00  0.00    +0.000 C 
ENDROOT
BRANCH   1  12
ATOM      2  N   UNL     1       6.487   5.386  16.914  0.00  0.00    +0.000 N 
ATOM      3  C   UNL     1       6.599   5.023  15.579  0.00  0.00    +0.000 A 
ATOM      4  C   UNL     1       7.571   5.341  14.615  0.00  0.00    +0.000 A 
ATOM      5  C   UNL     1       7.424   4.821  13.327  0.00  0.00    +0.000 A 
ATOM      6  C   UNL     1       6.345   4.002  13.006  0.00  0.00    +0.000 A 
ATOM      7  C   UNL     1       5.383   3.685  13.970  0.00  0.00    +0.000 A 
ATOM      8  C   UNL     1       5.503   4.204  15.276  0.00  0.00    +0.000 A 
ATOM      9  C   UNL     1       4.738   4.096  16.464  0.00  0.00    +0.000 A 
ATOM     10  C   UNL     1       3.524   3.389  16.769  0.00  0.00    +0.000 A 
ATOM     11  N   UNL     1       3.003   3.430  17.959  0.00  0.00    +0.000 NA
ATOM     12  N   UNL     1       3.627   4.185  18.966  0.00  0.00    +0.000 N 
ATOM     13  C   UNL     1       4.804   4.935  18.784  0.00  0.00    +0.000 A 
ATOM     14  O   UNL     1       5.292   5.619  19.680  0.00  0.00    +0.000 OA
ATOM     15  C   UNL     1       5.348   4.837  17.451  0.00  0.00    +0.000 A 
BRANCH   2  16
ATOM     16  C   UNL     1       7.451   6.214  17.624  0.00  0.00    +0.000 C 
BRANCH  16  18
ATOM     17  C   UNL     1       8.293   8.544  18.047  0.00  0.00    +0.000 C 
ATOM     18  C   UNL     1       7.226   7.701  17.371  0.00  0.00    +0.000 C 
ENDBRANCH  16  18
ENDBRANCH   2  16
ENDBRANCH   1  12
BRANCH   1  19
ATOM     19  C   UNL     1       1.889   5.104  20.512  0.00  0.00    +0.000 C 
ATOM     20  O   UNL     1       0.718   4.734  20.599  0.00  0.00    +0.000 OA
ATOM     21  N   UNL     1       2.268   6.414  20.739  0.00  0.00    +0.000 N 
ATOM     22  H   UNL     1       3.256   6.651  20.701  0.00  0.00    +0.000 HD
BRANCH  21  23
ATOM     23  C   UNL     1       1.285   7.472  20.907  0.00  0.00    +0.000 C 
BRANCH  23  24
ATOM     24  C   UNL     1       1.375   8.562  19.833  0.00  0.00    +0.000 C 
BRANCH  24  25
ATOM     25  C   UNL     1       0.536   9.759  20.221  0.00  0.00    +0.000 A 
ATOM     26  C   UNL     1       0.524  10.222  21.538  0.00  0.00    +0.000 A 
ATOM     27  C   UNL     1      -0.334  11.259  21.919  0.00  0.00    +0.000 A 
ATOM     28  C   UNL     1      -1.209  11.842  20.994  0.00  0.00    +0.000 A 
ATOM     29  C   UNL     1      -1.190  11.396  19.657  0.00  0.00    +0.000 A 
ATOM     30  C   UNL     1      -0.310  10.367  19.283  0.00  0.00    +0.000 A 
BRANCH  28  31
ATOM     31  O   UNL     1      -2.111  12.834  21.306  0.00  0.00    +0.000 OA
BRANCH  31  32
ATOM     32  C   UNL     1      -3.290  12.444  22.009  0.00  0.00    +0.000 C 
ATOM     33  C   UNL     1      -3.136  12.812  23.475  0.00  0.00    +0.000 C 
ENDBRANCH  31  32
ENDBRANCH  28  31
BRANCH  29  34
ATOM     34  O   UNL     1      -2.076  11.998  18.791  0.00  0.00    +0.000 OA
BRANCH  34  35
ATOM     35  C   UNL     1      -3.071  11.167  18.196  0.00  0.00    +0.000 C 
ATOM     36  C   UNL     1      -4.430  11.817  18.373  0.00  0.00    +0.000 C 
ENDBRANCH  34  35
ENDBRANCH  29  34
ENDBRANCH  24  25
ENDBRANCH  23  24
ENDBRANCH  21  23
ENDBRANCH   1  19
TORSDOF 11
ENDMDL
MODEL 3
REMARK VINA RESULT:      -8.2      2.224     10.001
REMARK  Name = 
REMARK  14 active torsions:
REMARK  status: ('A' for Active; 'I' for Inactive)
REMARK    1  A    between atoms: C_1  and  C_2
REMARK    2  A    between atoms: C_2  and  C_3
REMARK    3  A    between atoms: C_3  and  N_4
REMARK    4  A    between atoms: N_14  and  C_15
REMARK    5  A    between atoms: C_15  and  C_16
REMARK    6  A    between atoms: N_18  and  C_19
REMARK    7  A    between atoms: C_19  and  C_20
REMARK    8  A    between atoms: C_20  and  C_21
REMARK    9  A    between atoms: C_24  and  O_25
REMARK   10  A    between atoms: O_25  and  C_26
REMARK   11  A    between atoms: C_26  and  C_27
REMARK   12  A    between atoms: C_28  and  O_29
REMARK   13  A    between atoms: O_29  and  C_30
REMARK   14  A    between atoms: C_30  and  C_31
REMARK                            x       y       z     vdW  Elec       q    Type
REMARK                         _______ _______ _______ _____ _____    ______ ____
ROOT
ATOM      1  C   UNL     1       3.119   3.896  20.301  0.00  0.00    +0.000 C 
ENDROOT
BRANCH   1  12
ATOM      2  N   UNL     1       6.515   5.334  16.917  0.00  0.00    +0.000 N 
ATOM      3  C   UNL     1       6.628   4.995  15.575  0.00  0.00    +0.000 A 
ATOM      4  C   UNL     1       7.583   5.357  14.610  0.00  0.00    +0.000 A 
ATOM      5  C   UNL     1       7.442   4.852  13.315  0.00  0.00    +0.000 A 
ATOM      6  C   UNL     1       6.386   4.006  12.989  0.00  0.00    +0.000 A 
ATOM      7  C   UNL     1       5.441   3.645  13.955  0.00  0.00    +0.000 A 
ATOM      8  C   UNL     1       5.555   4.148  15.268  0.00  0.00    +0.000 A 
ATOM      9  C   UNL     1       4.803   3.999  16.460  0.00  0.00    +0.000 A 
ATOM     10  C   UNL     1       3.613   3.251  16.762  0.00  0.00    +0.000 A 
ATOM     11  N   UNL     1       3.101   3.258  17.957  0.00  0.00    +0.000 NA
ATOM     12  N   UNL     1       3.709   4.016  18.971  0.00  0.00    +0.000 N 
ATOM     13  C   UNL     1       4.861   4.804  18.792  0.00  0.00    +0.000 A 
ATOM     14  O   UNL     1       5.335   5.489  19.694  0.00  0.00    +0.000 OA
ATOM     15  C   UNL     1       5.398   4.742  17.453  0.00  0.00    +0.000 A 
BRANCH   2  16
ATOM     16  C   UNL     1       7.459   6.180  17.633  0.00  0.00    +0.000 C 
BRANCH  16  18
ATOM     17  C   UNL     1       8.244   8.529  18.058  0.00  0.00    +0.000 C 
ATOM     18  C   UNL     1       7.161   7.663  17.440  0.00  0.00    +0.000 C 
ENDBRANCH  16  18
ENDBRANCH   2  16
ENDBRANCH   1  12
BRANCH   1  19
ATOM     19  C   UNL     1       1.928   4.827  20.528  0.00  0.00    +0.000 C 
ATOM     20  O   UNL     1       0.771   4.412  20.473  0.00  0.00    +0.000 OA
ATOM     21  N   UNL     1       2.231   6.115  20.928  0.00  0.00    +0.000 N 
ATOM     22  H   UNL     1       3.208   6.388  21.002  0.00  0.00    +0.000 HD
BRANCH  21  23
ATOM     23  C   UNL     1       1.194   7.115  21.125  0.00  0.00    +0.000 C 
BRANCH  23  24
ATOM     24  C   UNL     1       1.509   8.458  20.456  0.00  0.00    +0.000 C 
BRANCH  24  25
ATOM     25  C   UNL     1       0.580   9.536  20.968  0.00  0.00    +0.000 A 
ATOM     26  C   UNL     1       0.156   9.537  22.298  0.00  0.00    +0.000 A 
ATOM     27  C   UNL     1      -0.786  10.468  22.743  0.00  0.00    +0.000 A 
ATOM     28  C   UNL     1      -1.337  11.408  21.863  0.00  0.00    +0.000 A 
ATOM     29  C   UNL     1      -0.903  11.429  20.522  0.00  0.00    +0.000 A 
ATOM     30  C   UNL     1       0.060  10.500  20.093  0.00  0.00    +0.000 A 
BRANCH  28  31
ATOM     31  O   UNL     1      -2.302  12.324  22.218  0.00  0.00    +0.000 OA
BRANCH  31  32
ATOM     32  C   UNL     1      -2.942  12.140  23.480  0.00  0.00    +0.000 C 
ATOM     33  C   UNL     1      -3.194  13.500  24.109  0.00  0.00    +0.000 C 
ENDBRANCH  31  32
ENDBRANCH  28  31
BRANCH  29  34
ATOM     34  O   UNL     1      -1.482  12.367  19.698  0.00  0.00    +0.000 OA
BRANCH  34  35
ATOM     35  C   UNL     1      -0.817  13.623  19.573  0.00  0.00    +0.000 C 
ATOM     36  C   UNL     1       0.004  13.624  18.298  0.00  0.00    +0.000 C 
ENDBRANCH  34  35
ENDBRANCH  29  34
ENDBRANCH  24  25
ENDBRANCH  23  24
ENDBRANCH  21  23
ENDBRANCH   1  19
TORSDOF 11
ENDMDL
MODEL 4
REMARK VINA RESULT:      -8.0      1.265      2.511
REMARK  Name = 
REMARK  14 active torsions:
REMARK  status: ('A' for Active; 'I' for Inactive)
REMARK    1  A    between atoms: C_1  and  C_2
REMARK    2  A    between atoms: C_2  and  C_3
REMARK    3  A    between atoms: C_3  and  N_4
REMARK    4  A    between atoms: N_14  and  C_15
REMARK    5  A    between atoms: C_15  and  C_16
REMARK    6  A    between atoms: N_18  and  C_19
REMARK    7  A    between atoms: C_19  and  C_20
REMARK    8  A    between atoms: C_20  and  C_21
REMARK    9  A    between atoms: C_24  and  O_25
REMARK   10  A    between atoms: O_25  and  C_26
REMARK   11  A    between atoms: C_26  and  C_27
REMARK   12  A    between atoms: C_28  and  O_29
REMARK   13  A    between atoms: O_29  and  C_30
REMARK   14  A    between atoms: C_30  and  C_31
REMARK                            x       y       z     vdW  Elec       q    Type
REMARK                         _______ _______ _______ _____ _____    ______ ____
ROOT
ATOM      1  C   UNL     1       2.227   7.485  20.255  0.00  0.00    +0.000 C 
ENDROOT
BRANCH   1  12
ATOM      2  N   UNL     1      -1.018  11.265  19.769  0.00  0.00    +0.000 N 
ATOM      3  C   UNL     1      -1.698  11.981  20.745  0.00  0.00    +0.000 A 
ATOM      4  C   UNL     1      -2.634  13.024  20.641  0.00  0.00    +0.000 A 
ATOM      5  C   UNL     1      -3.164  13.560  21.817  0.00  0.00    +0.000 A 
ATOM      6  C   UNL     1      -2.780  13.071  23.062  0.00  0.00    +0.000 A 
ATOM      7  C   UNL     1      -1.852  12.029  23.160  0.00  0.00    +0.000 A 
ATOM      8  C   UNL     1      -1.294  11.475  21.988  0.00  0.00    +0.000 A 
ATOM      9  C   UNL     1      -0.357  10.447  21.722  0.00  0.00    +0.000 A 
ATOM     10  C   UNL     1       0.385   9.570  22.588  0.00  0.00    +0.000 A 
ATOM     11  N   UNL     1       1.197   8.678  22.103  0.00  0.00    +0.000 NA
ATOM     12  N   UNL     1       1.365   8.571  20.713  0.00  0.00    +0.000 N 
ATOM     13  C   UNL     1       0.713   9.385  19.769  0.00  0.00    +0.000 A 
ATOM     14  O   UNL     1       0.923   9.289  18.562  0.00  0.00    +0.000 OA
ATOM     15  C   UNL     1      -0.190  10.343  20.360  0.00  0.00    +0.000 A 
BRANCH   2  16
ATOM     16  C   UNL     1      -1.184  11.468  18.337  0.00  0.00    +0.000 C 
BRANCH  16  18
ATOM     17  C   UNL     1      -2.565  10.931  16.306  0.00  0.00    +0.000 C 
ATOM     18  C   UNL     1      -2.276  10.576  17.755  0.00  0.00    +0.000 C 
ENDBRANCH  16  18
ENDBRANCH   2  16
ENDBRANCH   1  12
BRANCH   1  19
ATOM     19  C   UNL     1       1.714   6.095  20.630  0.00  0.00    +0.000 C 
ATOM     20  O   UNL     1       0.526   5.796  20.507  0.00  0.00    +0.000 OA
ATOM     21  N   UNL     1       2.675   5.167  20.984  0.00  0.00    +0.000 N 
ATOM     22  H   UNL     1       3.648   5.460  21.023  0.00  0.00    +0.000 HD
BRANCH  21  23
ATOM     23  C   UNL     1       2.316   3.826  21.415  0.00  0.00    +0.000 C 
BRANCH  23  24
ATOM     24  C   UNL     1       2.699   2.739  20.405  0.00  0.00    +0.000 C 
BRANCH  24  25
ATOM     25  C   UNL     1       3.478   3.336  19.253  0.00  0.00    +0.000 A 
ATOM     26  C   UNL     1       2.907   3.428  17.982  0.00  0.00    +0.000 A 
ATOM     27  C   UNL     1       3.663   3.878  16.895  0.00  0.00    +0.000 A 
ATOM     28  C   UNL     1       5.009   4.229  17.054  0.00  0.00    +0.000 A 
ATOM     29  C   UNL     1       5.590   4.158  18.336  0.00  0.00    +0.000 A 
ATOM     30  C   UNL     1       4.814   3.723  19.423  0.00  0.00    +0.000 A 
BRANCH  28  31
ATOM     31  O   UNL     1       5.826   4.636  16.024  0.00  0.00    +0.000 OA
BRANCH  31  32
ATOM     32  C   UNL     1       6.254   3.638  15.098  0.00  0.00    +0.000 C 
ATOM     33  C   UNL     1       6.057   4.157  13.684  0.00  0.00    +0.000 C 
ENDBRANCH  31  32
ENDBRANCH  28  31
BRANCH  29  34
ATOM     34  O   UNL     1       6.918   4.507  18.435  0.00  0.00    +0.000 OA
BRANCH  34  35
ATOM     35  C   UNL     1       7.231   5.663  19.211  0.00  0.00    +0.000 C 
ATOM     36  C   UNL     1       7.797   6.734  18.297  0.00  0.00    +0.000 C 
ENDBRANCH  34  35
ENDBRANCH  29  34
ENDBRANCH  24  25
ENDBRANCH  23  24
ENDBRANCH  21  23
ENDBRANCH   1  19
TORSDOF 11
ENDMDL
MODEL 5
REMARK VINA RESULT:      -8.0      2.460     10.452
REMARK  Name = 
REMARK  14 active torsions:
REMARK  status: ('A' for Active; 'I' for Inactive)
REMARK    1  A    between atoms: C_1  and  C_2
REMARK    2  A    between atoms: C_2  and  C_3
REMARK    3  A    between atoms: C_3  and  N_4
REMARK    4  A    between atoms: N_14  and  C_15
REMARK    5  A    between atoms: C_15  and  C_16
REMARK    6  A    between atoms: N_18  and  C_19
REMARK    7  A    between atoms: C_19  and  C_20
REMARK    8  A    between atoms: C_20  and  C_21
REMARK    9  A    between atoms: C_24  and  O_25
REMARK   10  A    between atoms: O_25  and  C_26
REMARK   11  A    between atoms: C_26  and  C_27
REMARK   12  A    between atoms: C_28  and  O_29
REMARK   13  A    between atoms: O_29  and  C_30
REMARK   14  A    between atoms: C_30  and  C_31
REMARK                            x       y       z     vdW  Elec       q    Type
REMARK                         _______ _______ _______ _____ _____    ______ ____
ROOT
ATOM      1  C   UNL     1       0.790   8.656  20.536  0.00  0.00    +0.000 C 
ENDROOT
BRANCH   1  12
ATOM      2  N   UNL     1       3.618   4.965  18.682  0.00  0.00    +0.000 N 
ATOM      3  C   UNL     1       4.415   4.946  17.546  0.00  0.00    +0.000 A 
ATOM      4  C   UNL     1       5.196   3.920  16.984  0.00  0.00    +0.000 A 
ATOM      5  C   UNL     1       5.904   4.192  15.811  0.00  0.00    +0.000 A 
ATOM      6  C   UNL     1       5.835   5.444  15.208  0.00  0.00    +0.000 A 
ATOM      7  C   UNL     1       5.052   6.460  15.769  0.00  0.00    +0.000 A 
ATOM      8  C   UNL     1       4.334   6.215  16.958  0.00  0.00    +0.000 A 
ATOM      9  C   UNL     1       3.473   6.986  17.777  0.00  0.00    +0.000 A 
ATOM     10  C   UNL     1       3.009   8.343  17.680  0.00  0.00    +0.000 A 
ATOM     11  N   UNL     1       2.196   8.840  18.564  0.00  0.00    +0.000 NA
ATOM     12  N   UNL     1       1.769   8.046  19.641  0.00  0.00    +0.000 N 
ATOM     13  C   UNL     1       2.171   6.715  19.856  0.00  0.00    +0.000 A 
ATOM     14  O   UNL     1       1.810   6.070  20.837  0.00  0.00    +0.000 OA
ATOM     15  C   UNL     1       3.056   6.209  18.834  0.00  0.00    +0.000 A 
BRANCH   2  16
ATOM     16  C   UNL     1       3.409   3.822  19.559  0.00  0.00    +0.000 C 
BRANCH  16  18
ATOM     17  C   UNL     1       2.408   1.864  18.342  0.00  0.00    +0.000 C 
ATOM     18  C   UNL     1       2.126   3.069  19.223  0.00  0.00    +0.000 C 
ENDBRANCH  16  18
ENDBRANCH   2  16
ENDBRANCH   1  12
BRANCH   1  19
ATOM     19  C   UNL     1       0.326  10.040  20.085  0.00  0.00    +0.000 C 
ATOM     20  O   UNL     1      -0.652  10.180  19.352  0.00  0.00    +0.000 OA
ATOM     21  N   UNL     1       0.981  11.116  20.654  0.00  0.00    +0.000 N 
ATOM     22  H   UNL     1       1.753  10.938  21.292  0.00  0.00    +0.000 HD
BRANCH  21  23
ATOM     23  C   UNL     1       0.673  12.485  20.270  0.00  0.00    +0.000 C 
BRANCH  23  24
ATOM     24  C   UNL     1       0.200  13.353  21.441  0.00  0.00    +0.000 C 
BRANCH  24  25
ATOM     25  C   UNL     1      -1.289  13.192  21.653  0.00  0.00    +0.000 A 
ATOM     26  C   UNL     1      -1.817  13.107  22.943  0.00  0.00    +0.000 A 
ATOM     27  C   UNL     1      -3.178  12.850  23.137  0.00  0.00    +0.000 A 
ATOM     28  C   UNL     1      -4.034  12.655  22.046  0.00  0.00    +0.000 A 
ATOM     29  C   UNL     1      -3.515  12.758  20.740  0.00  0.00    +0.000 A 
ATOM     30  C   UNL     1      -2.150  13.037  20.559  0.00  0.00    +0.000 A 
BRANCH  28  31
ATOM     31  O   UNL     1      -5.372  12.354  22.161  0.00  0.00    +0.000 OA
BRANCH  31  32
ATOM     32  C   UNL     1      -6.204  13.317  22.806  0.00  0.00    +0.000 C 
ATOM     33  C   UNL     1      -6.808  12.693  24.053  0.00  0.00    +0.000 C 
ENDBRANCH  31  32
ENDBRANCH  28  31
BRANCH  29  34
ATOM     34  O   UNL     1      -4.398  12.551  19.704  0.00  0.00    +0.000 OA
BRANCH  34  35
ATOM     35  C   UNL     1      -3.931  11.783  18.595  0.00  0.00    +0.000 C 
ATOM     36  C   UNL     1      -5.095  11.013  18.001  0.00  0.00    +0.000 C 
ENDBRANCH  34  35
ENDBRANCH  29  34
ENDBRANCH  24  25
ENDBRANCH  23  24
ENDBRANCH  21  23
ENDBRANCH   1  19
TORSDOF 11
ENDMDL
MODEL 6
REMARK VINA RESULT:      -8.0      2.817     10.734
REMARK  Name = 
REMARK  14 active torsions:
REMARK  status: ('A' for Active; 'I' for Inactive)
REMARK    1  A    between atoms: C_1  and  C_2
REMARK    2  A    between atoms: C_2  and  C_3
REMARK    3  A    between atoms: C_3  and  N_4
REMARK    4  A    between atoms: N_14  and  C_15
REMARK    5  A    between atoms: C_15  and  C_16
REMARK    6  A    between atoms: N_18  and  C_19
REMARK    7  A    between atoms: C_19  and  C_20
REMARK    8  A    between atoms: C_20  and  C_21
REMARK    9  A    between atoms: C_24  and  O_25
REMARK   10  A    between atoms: O_25  and  C_26
REMARK   11  A    between atoms: C_26  and  C_27
REMARK   12  A    between atoms: C_28  and  O_29
REMARK   13  A    between atoms: O_29  and  C_30
REMARK   14  A    between atoms: C_30  and  C_31
REMARK                            x       y       z     vdW  Elec       q    Type
REMARK                         _______ _______ _______ _____ _____    ______ ____
ROOT
ATOM      1  C   UNL     1       0.860   8.501  20.693  0.00  0.00    +0.000 C 
ENDROOT
BRANCH   1  12
ATOM      2  N   UNL     1       3.595   4.794  18.734  0.00  0.00    +0.000 N 
ATOM      3  C   UNL     1       4.372   4.779  17.584  0.00  0.00    +0.000 A 
ATOM      4  C   UNL     1       5.125   3.750  16.993  0.00  0.00    +0.000 A 
ATOM      5  C   UNL     1       5.817   4.028  15.812  0.00  0.00    +0.000 A 
ATOM      6  C   UNL     1       5.758   5.290  15.229  0.00  0.00    +0.000 A 
ATOM      7  C   UNL     1       5.002   6.310  15.819  0.00  0.00    +0.000 A 
ATOM      8  C   UNL     1       4.301   6.058  17.017  0.00  0.00    +0.000 A 
ATOM      9  C   UNL     1       3.467   6.830  17.863  0.00  0.00    +0.000 A 
ATOM     10  C   UNL     1       3.023   8.196  17.793  0.00  0.00    +0.000 A 
ATOM     11  N   UNL     1       2.234   8.693  18.700  0.00  0.00    +0.000 NA
ATOM     12  N   UNL     1       1.814   7.889  19.772  0.00  0.00    +0.000 N 
ATOM     13  C   UNL     1       2.198   6.549  19.960  0.00  0.00    +0.000 A 
ATOM     14  O   UNL     1       1.844   5.895  20.937  0.00  0.00    +0.000 OA
ATOM     15  C   UNL     1       3.056   6.044  18.915  0.00  0.00    +0.000 A 
BRANCH   2  16
ATOM     16  C   UNL     1       3.383   3.642  19.598  0.00  0.00    +0.000 C 
BRANCH  16  18
ATOM     17  C   UNL     1       1.227   2.594  20.352  0.00  0.00    +0.000 C 
ATOM     18  C   UNL     1       2.163   2.828  19.179  0.00  0.00    +0.000 C 
ENDBRANCH  16  18
ENDBRANCH   2  16
ENDBRANCH   1  12
BRANCH   1  19
ATOM     19  C   UNL     1       0.472   9.930  20.315  0.00  0.00    +0.000 C 
ATOM     20  O   UNL     1       0.905  10.897  20.940  0.00  0.00    +0.000 OA
ATOM     21  N   UNL     1      -0.276  10.071  19.161  0.00  0.00    +0.000 N 
ATOM     22  H   UNL     1      -0.565   9.235  18.659  0.00  0.00    +0.000 HD
BRANCH  21  23
ATOM     23  C   UNL     1      -0.756  11.371  18.720  0.00  0.00    +0.000 C 
BRANCH  23  24
ATOM     24  C   UNL     1      -1.903  11.284  17.707  0.00  0.00    +0.000 C 
BRANCH  24  25
ATOM     25  C   UNL     1      -3.234  11.499  18.393  0.00  0.00    +0.000 A 
ATOM     26  C   UNL     1      -4.414  11.022  17.819  0.00  0.00    +0.000 A 
ATOM     27  C   UNL     1      -5.653  11.315  18.396  0.00  0.00    +0.000 A 
ATOM     28  C   UNL     1      -5.739  12.105  19.549  0.00  0.00    +0.000 A 
ATOM     29  C   UNL     1      -4.553  12.575  20.148  0.00  0.00    +0.000 A 
ATOM     30  C   UNL     1      -3.313  12.257  19.569  0.00  0.00    +0.000 A 
BRANCH  28  31
ATOM     31  O   UNL     1      -6.924  12.471  20.146  0.00  0.00    +0.000 OA
BRANCH  31  32
ATOM     32  C   UNL     1      -7.652  11.452  20.830  0.00  0.00    +0.000 C 
ATOM     33  C   UNL     1      -7.818  11.855  22.286  0.00  0.00    +0.000 C 
ENDBRANCH  31  32
ENDBRANCH  28  31
BRANCH  29  34
ATOM     34  O   UNL     1      -4.694  13.353  21.275  0.00  0.00    +0.000 OA
BRANCH  34  35
ATOM     35  C   UNL     1      -3.733  14.388  21.475  0.00  0.00    +0.000 C 
ATOM     36  C   UNL     1      -4.238  15.332  22.550  0.00  0.00    +0.000 C 
ENDBRANCH  34  35
ENDBRANCH  29  34
ENDBRANCH  24  25
ENDBRANCH  23  24
ENDBRANCH  21  23
ENDBRANCH   1  19
TORSDOF 11
ENDMDL
MODEL 7
REMARK VINA RESULT:      -8.0      1.865      4.127
REMARK  Name = 
REMARK  14 active torsions:
REMARK  status: ('A' for Active; 'I' for Inactive)
REMARK    1  A    between atoms: C_1  and  C_2
REMARK    2  A    between atoms: C_2  and  C_3
REMARK    3  A    between atoms: C_3  and  N_4
REMARK    4  A    between atoms: N_14  and  C_15
REMARK    5  A    between atoms: C_15  and  C_16
REMARK    6  A    between atoms: N_18  and  C_19
REMARK    7  A    between atoms: C_19  and  C_20
REMARK    8  A    between atoms: C_20  and  C_21
REMARK    9  A    between atoms: C_24  and  O_25
REMARK   10  A    between atoms: O_25  and  C_26
REMARK   11  A    between atoms: C_26  and  C_27
REMARK   12  A    between atoms: C_28  and  O_29
REMARK   13  A    between atoms: O_29  and  C_30
REMARK   14  A    between atoms: C_30  and  C_31
REMARK                            x       y       z     vdW  Elec       q    Type
REMARK                         _______ _______ _______ _____ _____    ______ ____
ROOT
ATOM      1  C   UNL     1       1.056  10.317  18.947  0.00  0.00    +0.000 C 
ENDROOT
BRANCH   1  12
ATOM      2  N   UNL     1      -3.292  12.507  20.110  0.00  0.00    +0.000 N 
ATOM      3  C   UNL     1      -4.510  12.468  19.445  0.00  0.00    +0.000 A 
ATOM      4  C   UNL     1      -5.737  13.092  19.728  0.00  0.00    +0.000 A 
ATOM      5  C   UNL     1      -6.811  12.869  18.864  0.00  0.00    +0.000 A 
ATOM      6  C   UNL     1      -6.670  12.054  17.745  0.00  0.00    +0.000 A 
ATOM      7  C   UNL     1      -5.445  11.438  17.464  0.00  0.00    +0.000 A 
ATOM      8  C   UNL     1      -4.347  11.640  18.326  0.00  0.00    +0.000 A 
ATOM      9  C   UNL     1      -3.004  11.187  18.350  0.00  0.00    +0.000 A 
ATOM     10  C   UNL     1      -2.260  10.330  17.468  0.00  0.00    +0.000 A 
ATOM     11  N   UNL     1      -1.008  10.060  17.692  0.00  0.00    +0.000 NA
ATOM     12  N   UNL     1      -0.371  10.602  18.820  0.00  0.00    +0.000 N 
ATOM     13  C   UNL     1      -0.999  11.433  19.766  0.00  0.00    +0.000 A 
ATOM     14  O   UNL     1      -0.416  11.849  20.764  0.00  0.00    +0.000 OA
ATOM     15  C   UNL     1      -2.380  11.717  19.456  0.00  0.00    +0.000 A 
BRANCH   2  16
ATOM     16  C   UNL     1      -3.038  13.287  21.313  0.00  0.00    +0.000 C 
BRANCH  16  18
ATOM     17  C   UNL     1      -3.518  13.453  23.774  0.00  0.00    +0.000 C 
ATOM     18  C   UNL     1      -3.402  12.521  22.580  0.00  0.00    +0.000 C 
ENDBRANCH  16  18
ENDBRANCH   2  16
ENDBRANCH   1  12
BRANCH   1  19
ATOM     19  C   UNL     1       1.357   8.995  19.652  0.00  0.00    +0.000 C 
ATOM     20  O   UNL     1       0.824   8.705  20.722  0.00  0.00    +0.000 OA
ATOM     21  N   UNL     1       2.148   8.101  18.955  0.00  0.00    +0.000 N 
ATOM     22  H   UNL     1       2.523   8.379  18.052  0.00  0.00    +0.000 HD
BRANCH  21  23
ATOM     23  C   UNL     1       2.554   6.831  19.536  0.00  0.00    +0.000 C 
BRANCH  23  24
ATOM     24  C   UNL     1       2.188   5.621  18.669  0.00  0.00    +0.000 C 
BRANCH  24  25
ATOM     25  C   UNL     1       3.327   5.273  17.736  0.00  0.00    +0.000 A 
ATOM     26  C   UNL     1       3.475   3.972  17.251  0.00  0.00    +0.000 A 
ATOM     27  C   UNL     1       4.588   3.625  16.478  0.00  0.00    +0.000 A 
ATOM     28  C   UNL     1       5.582   4.568  16.189  0.00  0.00    +0.000 A 
ATOM     29  C   UNL     1       5.433   5.888  16.657  0.00  0.00    +0.000 A 
ATOM     30  C   UNL     1       4.301   6.229  17.416  0.00  0.00    +0.000 A 
BRANCH  28  31
ATOM     31  O   UNL     1       6.725   4.287  15.474  0.00  0.00    +0.000 OA
BRANCH  31  32
ATOM     32  C   UNL     1       6.582   4.089  14.068  0.00  0.00    +0.000 C 
ATOM     33  C   UNL     1       7.538   5.017  13.338  0.00  0.00    +0.000 C 
ENDBRANCH  31  32
ENDBRANCH  28  31
BRANCH  29  34
ATOM     34  O   UNL     1       6.443   6.773  16.350  0.00  0.00    +0.000 OA
BRANCH  34  35
ATOM     35  C   UNL     1       6.994   7.529  17.428  0.00  0.00    +0.000 C 
ATOM     36  C   UNL     1       7.782   6.600  18.332  0.00  0.00    +0.000 C 
ENDBRANCH  34  35
ENDBRANCH  29  34
ENDBRANCH  24  25
ENDBRANCH  23  24
ENDBRANCH  21  23
ENDBRANCH   1  19
TORSDOF 11
ENDMDL
MODEL 8
REMARK VINA RESULT:      -8.0      1.698      3.209
REMARK  Name = 
REMARK  14 active torsions:
REMARK  status: ('A' for Active; 'I' for Inactive)
REMARK    1  A    between atoms: C_1  and  C_2
REMARK    2  A    between atoms: C_2  and  C_3
REMARK    3  A    between atoms: C_3  and  N_4
REMARK    4  A    between atoms: N_14  and  C_15
REMARK    5  A    between atoms: C_15  and  C_16
REMARK    6  A    between atoms: N_18  and  C_19
REMARK    7  A    between atoms: C_19  and  C_20
REMARK    8  A    between atoms: C_20  and  C_21
REMARK    9  A    between atoms: C_24  and  O_25
REMARK   10  A    between atoms: O_25  and  C_26
REMARK   11  A    between atoms: C_26  and  C_27
REMARK   12  A    between atoms: C_28  and  O_29
REMARK   13  A    between atoms: O_29  and  C_30
REMARK   14  A    between atoms: C_30  and  C_31
REMARK                            x       y       z     vdW  Elec       q    Type
REMARK                         _______ _______ _______ _____ _____    ______ ____
ROOT
ATOM      1  C   UNL     1       1.279   9.596  21.406  0.00  0.00    +0.000 C 
ENDROOT
BRANCH   1  12
ATOM      2  N   UNL     1      -2.669  12.225  19.807  0.00  0.00    +0.000 N 
ATOM      3  C   UNL     1      -3.581  12.981  20.529  0.00  0.00    +0.000 A 
ATOM      4  C   UNL     1      -4.713  13.704  20.115  0.00  0.00    +0.000 A 
ATOM      5  C   UNL     1      -5.460  14.380  21.083  0.00  0.00    +0.000 A 
ATOM      6  C   UNL     1      -5.097  14.335  22.426  0.00  0.00    +0.000 A 
ATOM      7  C   UNL     1      -3.973  13.609  22.833  0.00  0.00    +0.000 A 
ATOM      8  C   UNL     1      -3.196  12.925  21.875  0.00  0.00    +0.000 A 
ATOM      9  C   UNL     1      -2.030  12.121  21.929  0.00  0.00    +0.000 A 
ATOM     10  C   UNL     1      -1.198  11.702  23.024  0.00  0.00    +0.000 A 
ATOM     11  N   UNL     1      -0.164  10.938  22.827  0.00  0.00    +0.000 NA
ATOM     12  N   UNL     1       0.156  10.522  21.524  0.00  0.00    +0.000 N 
ATOM     13  C   UNL     1      -0.568  10.884  20.374  0.00  0.00    +0.000 A 
ATOM     14  O   UNL     1      -0.227  10.535  19.246  0.00  0.00    +0.000 OA
ATOM     15  C   UNL     1      -1.716  11.714  20.653  0.00  0.00    +0.000 A 
BRANCH   2  16
ATOM     16  C   UNL     1      -2.738  12.007  18.369  0.00  0.00    +0.000 C 
BRANCH  16  18
ATOM     17  C   UNL     1      -4.909  11.272  17.338  0.00  0.00    +0.000 C 
ATOM     18  C   UNL     1      -3.625  10.819  18.012  0.00  0.00    +0.000 C 
ENDBRANCH  16  18
ENDBRANCH   2  16
ENDBRANCH   1  12
BRANCH   1  19
ATOM     19  C   UNL     1       0.856   8.137  21.240  0.00  0.00    +0.000 C 
ATOM     20  O   UNL     1      -0.283   7.765  21.521  0.00  0.00    +0.000 OA
ATOM     21  N   UNL     1       1.777   7.302  20.636  0.00  0.00    +0.000 N 
ATOM     22  H   UNL     1       2.687   7.678  20.382  0.00  0.00    +0.000 HD
BRANCH  21  23
ATOM     23  C   UNL     1       1.520   5.881  20.468  0.00  0.00    +0.000 C 
BRANCH  23  24
ATOM     24  C   UNL     1       2.753   5.006  20.723  0.00  0.00    +0.000 C 
BRANCH  24  25
ATOM     25  C   UNL     1       3.521   4.785  19.439  0.00  0.00    +0.000 A 
ATOM     26  C   UNL     1       2.861   4.388  18.274  0.00  0.00    +0.000 A 
ATOM     27  C   UNL     1       3.583   4.079  17.118  0.00  0.00    +0.000 A 
ATOM     28  C   UNL     1       4.982   4.144  17.107  0.00  0.00    +0.000 A 
ATOM     29  C   UNL     1       5.658   4.562  18.271  0.00  0.00    +0.000 A 
ATOM     30  C   UNL     1       4.919   4.889  19.420  0.00  0.00    +0.000 A 
BRANCH  28  31
ATOM     31  O   UNL     1       5.761   3.811  16.022  0.00  0.00    +0.000 OA
BRANCH  31  32
ATOM     32  C   UNL     1       5.689   4.666  14.882  0.00  0.00    +0.000 C 
ATOM     33  C   UNL     1       6.267   3.938  13.680  0.00  0.00    +0.000 C 
ENDBRANCH  31  32
ENDBRANCH  28  31
BRANCH  29  34
ATOM     34  O   UNL     1       7.033   4.600  18.209  0.00  0.00    +0.000 OA
BRANCH  34  35
ATOM     35  C   UNL     1       7.671   5.800  18.645  0.00  0.00    +0.000 C 
ATOM     36  C   UNL     1       7.498   6.867  17.579  0.00  0.00    +0.000 C 
ENDBRANCH  34  35
ENDBRANCH  29  34
ENDBRANCH  24  25
ENDBRANCH  23  24
ENDBRANCH  21  23
ENDBRANCH   1  19
TORSDOF 11
ENDMDL
MODEL 9
REMARK VINA RESULT:      -7.9      1.804      3.300
REMARK  Name = 
REMARK  14 active torsions:
REMARK  status: ('A' for Active; 'I' for Inactive)
REMARK    1  A    between atoms: C_1  and  C_2
REMARK    2  A    between atoms: C_2  and  C_3
REMARK    3  A    between atoms: C_3  and  N_4
REMARK    4  A    between atoms: N_14  and  C_15
REMARK    5  A    between atoms: C_15  and  C_16
REMARK    6  A    between atoms: N_18  and  C_19
REMARK    7  A    between atoms: C_19  and  C_20
REMARK    8  A    between atoms: C_20  and  C_21
REMARK    9  A    between atoms: C_24  and  O_25
REMARK   10  A    between atoms: O_25  and  C_26
REMARK   11  A    between atoms: C_26  and  C_27
REMARK   12  A    between atoms: C_28  and  O_29
REMARK   13  A    between atoms: O_29  and  C_30
REMARK   14  A    between atoms: C_30  and  C_31
REMARK                            x       y       z     vdW  Elec       q    Type
REMARK                         _______ _______ _______ _____ _____    ______ ____
ROOT
ATOM      1  C   UNL     1       1.008   9.302  17.520  0.00  0.00    +0.000 C 
ENDROOT
BRANCH   1  12
ATOM      2  N   UNL     1      -3.242  11.522  18.955  0.00  0.00    +0.000 N 
ATOM      3  C   UNL     1      -3.458  12.462  19.954  0.00  0.00    +0.000 A 
ATOM      4  C   UNL     1      -4.638  13.080  20.400  0.00  0.00    +0.000 A 
ATOM      5  C   UNL     1      -4.551  14.002  21.446  0.00  0.00    +0.000 A 
ATOM      6  C   UNL     1      -3.327  14.297  22.038  0.00  0.00    +0.000 A 
ATOM      7  C   UNL     1      -2.155  13.674  21.594  0.00  0.00    +0.000 A 
ATOM      8  C   UNL     1      -2.214  12.746  20.533  0.00  0.00    +0.000 A 
ATOM      9  C   UNL     1      -1.258  11.956  19.849  0.00  0.00    +0.000 A 
ATOM     10  C   UNL     1       0.164  11.815  20.002  0.00  0.00    +0.000 A 
ATOM     11  N   UNL     1       0.844  11.001  19.248  0.00  0.00    +0.000 NA
ATOM     12  N   UNL     1       0.184  10.254  18.259  0.00  0.00    +0.000 N 
ATOM     13  C   UNL     1      -1.198  10.323  18.000  0.00  0.00    +0.000 A 
ATOM     14  O   UNL     1      -1.728   9.686  17.093  0.00  0.00    +0.000 OA
ATOM     15  C   UNL     1      -1.904  11.224  18.878  0.00  0.00    +0.000 A 
BRANCH   2  16
ATOM     16  C   UNL     1      -4.294  10.941  18.133  0.00  0.00    +0.000 C 
BRANCH  16  18
ATOM     17  C   UNL     1      -5.960  12.485  17.058  0.00  0.00    +0.000 C 
ATOM     18  C   UNL     1      -4.611  11.803  16.915  0.00  0.00    +0.000 C 
ENDBRANCH  16  18
ENDBRANCH   2  16
ENDBRANCH   1  12
BRANCH   1  19
ATOM     19  C   UNL     1       1.946   8.485  18.407  0.00  0.00    +0.000 C 
ATOM     20  O   UNL     1       3.133   8.338  18.119  0.00  0.00    +0.000 OA
ATOM     21  N   UNL     1       1.417   8.042  19.605  0.00  0.00    +0.000 N 
ATOM     22  H   UNL     1       0.440   8.235  19.810  0.00  0.00    +0.000 HD
BRANCH  21  23
ATOM     23  C   UNL     1       2.187   7.209  20.515  0.00  0.00    +0.000 C 
BRANCH  23  24
ATOM     24  C   UNL     1       1.995   5.707  20.273  0.00  0.00    +0.000 C 
BRANCH  24  25
ATOM     25  C   UNL     1       2.940   5.218  19.198  0.00  0.00    +0.000 A 
ATOM     26  C   UNL     1       2.445   4.705  17.997  0.00  0.00    +0.000 A 
ATOM     27  C   UNL     1       3.313   4.153  17.049  0.00  0.00    +0.000 A 
ATOM     28  C   UNL     1       4.691   4.088  17.290  0.00  0.00    +0.000 A 
ATOM     29  C   UNL     1       5.203   4.621  18.490  0.00  0.00    +0.000 A 
ATOM     30  C   UNL     1       4.323   5.190  19.425  0.00  0.00    +0.000 A 
BRANCH  28  31
ATOM     31  O   UNL     1       5.598   3.520  16.425  0.00  0.00    +0.000 OA
BRANCH  31  32
ATOM     32  C   UNL     1       5.673   4.064  15.108  0.00  0.00    +0.000 C 
ATOM     33  C   UNL     1       6.990   4.805  14.953  0.00  0.00    +0.000 C 
ENDBRANCH  31  32
ENDBRANCH  28  31
BRANCH  29  34
ATOM     34  O   UNL     1       6.563   4.525  18.680  0.00  0.00    +0.000 OA
BRANCH  34  35
ATOM     35  C   UNL     1       7.226   5.663  19.227  0.00  0.00    +0.000 C 
ATOM     36  C   UNL     1       7.561   6.628  18.105  0.00  0.00    +0.000 C 
ENDBRANCH  34  35
ENDBRANCH  29  34
ENDBRANCH  24  25
ENDBRANCH  23  24
ENDBRANCH  21  23
ENDBRANCH   1  19
TORSDOF 11
ENDMDL
