MODEL 1
REMARK VINA RESULT:      -7.2      0.000      0.000
REMARK  Name = 
REMARK  6 active torsions:
REMARK  status: ('A' for Active; 'I' for Inactive)
REMARK    1  A    between atoms: C_1  and  C_2
REMARK    2  A    between atoms: C_2  and  C_4
REMARK    3  A    between atoms: C_7  and  C_8
REMARK    4  A    between atoms: C_8  and  C_9
REMARK    5  A    between atoms: C_9  and  O_11
REMARK    6  A    between atoms: N_14  and  C_15
REMARK                            x       y       z     vdW  Elec       q    Type
REMARK                         _______ _______ _______ _____ _____    ______ ____
ROOT
ATOM      1  C   UNL     1       3.067   6.173  19.607  0.00  0.00    +0.000 C 
ATOM      2  C   UNL     1       3.128   5.418  18.498  0.00  0.00    +0.000 C 
ATOM      3  S   UNL     1       1.758   4.665  17.736  0.00  0.00    +0.000 S 
ATOM      4  C   UNL     1       2.773   3.265  17.160  0.00  0.00    +0.000 C 
ATOM      5  C   UNL     1       4.166   3.863  17.049  0.00  0.00    +0.000 C 
ATOM      6  O   UNL     1       5.046   3.351  16.366  0.00  0.00    +0.000 OA
ATOM      7  N   UNL     1       4.302   5.001  17.877  0.00  0.00    +0.000 N 
ENDROOT
BRANCH   7   8
ATOM      8  C   UNL     1       5.582   5.629  17.955  0.00  0.00    +0.000 A 
ATOM      9  C   UNL     1       6.521   5.209  18.905  0.00  0.00    +0.000 A 
ATOM     10  C   UNL     1       7.704   5.932  19.094  0.00  0.00    +0.000 A 
ATOM     11  C   UNL     1       7.977   7.052  18.311  0.00  0.00    +0.000 A 
ATOM     12  C   UNL     1       7.067   7.456  17.337  0.00  0.00    +0.000 A 
ATOM     13  C   UNL     1       5.871   6.757  17.172  0.00  0.00    +0.000 A 
ENDBRANCH   7   8
BRANCH   1  15
ATOM     14  C   UNL     1       1.479   7.766  20.829  0.00  0.00    +0.000 C 
ATOM     15  C   UNL     1       1.847   6.356  20.461  0.00  0.00    +0.000 C 
ATOM     16  O   UNL     1       1.240   5.407  20.941  0.00  0.00    +0.000 OA
ENDBRANCH   1  15
BRANCH   4  17
ATOM     17  C   UNL     1       2.728   2.191  18.242  0.00  0.00    +0.000 C 
BRANCH  17  18
ATOM     18  C   UNL     1       1.405   2.193  18.956  0.00  0.00    +0.000 C 
ATOM     19  O   UNL     1       0.324   2.016  18.418  0.00  0.00    +0.000 OA
BRANCH  18  20
ATOM     20  O   UNL     1       1.519   2.489  20.272  0.00  0.00    +0.000 OA
ATOM     21  H   UNL     1       1.258   3.398  20.514  0.00  0.00    +0.000 HD
ENDBRANCH  18  20
ENDBRANCH  17  18
ENDBRANCH   4  17
TORSDOF 5
ENDMDL
MODEL 2
REMARK VINA RESULT:      -7.0      2.199      4.950
REMARK  Name = 
REMARK  6 active torsions:
REMARK  status: ('A' for Active; 'I' for Inactive)
REMARK    1  A    between atoms: C_1  and  C_2
REMARK    2  A    between atoms: C_2  and  C_4
REMARK    3  A    between atoms: C_7  and  C_8
REMARK    4  A    between atoms: C_8  and  C_9
REMARK    5  A    between atoms: C_9  and  O_11
REMARK    6  A    between atoms: N_14  and  C_15
REMARK                            x       y       z     vdW  Elec       q    Type
REMARK                         _______ _______ _______ _____ _____    ______ ____
ROOT
ATOM      1  C   UNL     1       1.876   4.418  19.212  0.00  0.00    +0.000 C 
ATOM      2  C   UNL     1       2.771   4.851  18.308  0.00  0.00    +0.000 C 
ATOM      3  S   UNL     1       3.682   3.822  17.243  0.00  0.00    +0.000 S 
ATOM      4  C   UNL     1       5.099   4.967  17.251  0.00  0.00    +0.000 C 
ATOM      5  C   UNL     1       4.459   6.317  17.535  0.00  0.00    +0.000 C 
ATOM      6  O   UNL     1       5.019   7.375  17.270  0.00  0.00    +0.000 OA
ATOM      7  N   UNL     1       3.215   6.166  18.188  0.00  0.00    +0.000 N 
ENDROOT
BRANCH   7   8
ATOM      8  C   UNL     1       2.524   7.344  18.605  0.00  0.00    +0.000 A 
ATOM      9  C   UNL     1       2.165   7.518  19.947  0.00  0.00    +0.000 A 
ATOM     10  C   UNL     1       1.345   8.587  20.325  0.00  0.00    +0.000 A 
ATOM     11  C   UNL     1       0.912   9.511  19.375  0.00  0.00    +0.000 A 
ATOM     12  C   UNL     1       1.295   9.368  18.043  0.00  0.00    +0.000 A 
ATOM     13  C   UNL     1       2.083   8.283  17.660  0.00  0.00    +0.000 A 
ENDBRANCH   7   8
BRANCH   1  15
ATOM     14  C   UNL     1       0.584   2.252  18.778  0.00  0.00    +0.000 C 
ATOM     15  C   UNL     1       1.636   2.981  19.566  0.00  0.00    +0.000 C 
ATOM     16  O   UNL     1       2.176   2.447  20.527  0.00  0.00    +0.000 OA
ENDBRANCH   1  15
BRANCH   4  17
ATOM     17  C   UNL     1       6.018   4.551  18.395  0.00  0.00    +0.000 C 
BRANCH  17  18
ATOM     18  C   UNL     1       7.434   4.988  18.141  0.00  0.00    +0.000 C 
ATOM     19  O   UNL     1       7.923   6.030  18.545  0.00  0.00    +0.000 OA
BRANCH  18  20
ATOM     20  O   UNL     1       8.112   4.132  17.341  0.00  0.00    +0.000 OA
ATOM     21  H   UNL     1       9.040   4.380  17.165  0.00  0.00    +0.000 HD
ENDBRANCH  18  20
ENDBRANCH  17  18
ENDBRANCH   4  17
TORSDOF 5
ENDMDL
MODEL 3
REMARK VINA RESULT:      -7.0      2.858      6.417
REMARK  Name = 
REMARK  6 active torsions:
REMARK  status: ('A' for Active; 'I' for Inactive)
REMARK    1  A    between atoms: C_1  and  C_2
REMARK    2  A    between atoms: C_2  and  C_4
REMARK    3  A    between atoms: C_7  and  C_8
REMARK    4  A    between atoms: C_8  and  C_9
REMARK    5  A    between atoms: C_9  and  O_11
REMARK    6  A    between atoms: N_14  and  C_15
REMARK                            x       y       z     vdW  Elec       q    Type
REMARK                         _______ _______ _______ _____ _____    ______ ____
ROOT
ATOM      1  C   UNL     1       4.920   3.896  14.978  0.00  0.00    +0.000 C 
ATOM      2  C   UNL     1       4.934   4.841  15.932  0.00  0.00    +0.000 C 
ATOM      3  S   UNL     1       5.768   6.361  15.810  0.00  0.00    +0.000 S 
ATOM      4  C   UNL     1       6.081   6.402  17.604  0.00  0.00    +0.000 C 
ATOM      5  C   UNL     1       4.939   5.580  18.180  0.00  0.00    +0.000 C 
ATOM      6  O   UNL     1       4.596   5.666  19.354  0.00  0.00    +0.000 OA
ATOM      7  N   UNL     1       4.414   4.690  17.215  0.00  0.00    +0.000 N 
ENDROOT
BRANCH   7   8
ATOM      8  C   UNL     1       3.391   3.780  17.622  0.00  0.00    +0.000 A 
ATOM      9  C   UNL     1       2.054   4.192  17.671  0.00  0.00    +0.000 A 
ATOM     10  C   UNL     1       1.079   3.357  18.228  0.00  0.00    +0.000 A 
ATOM     11  C   UNL     1       1.423   2.092  18.702  0.00  0.00    +0.000 A 
ATOM     12  C   UNL     1       2.744   1.658  18.624  0.00  0.00    +0.000 A 
ATOM     13  C   UNL     1       3.723   2.503  18.101  0.00  0.00    +0.000 A 
ENDBRANCH   7   8
BRANCH   1  15
ATOM     14  C   UNL     1       5.056   3.551  12.445  0.00  0.00    +0.000 C 
ATOM     15  C   UNL     1       5.748   3.922  13.727  0.00  0.00    +0.000 C 
ATOM     16  O   UNL     1       6.957   4.116  13.749  0.00  0.00    +0.000 OA
ENDBRANCH   1  15
BRANCH   4  17
ATOM     17  C   UNL     1       7.421   5.718  17.852  0.00  0.00    +0.000 C 
BRANCH  17  18
ATOM     18  C   UNL     1       7.982   6.092  19.196  0.00  0.00    +0.000 C 
ATOM     19  O   UNL     1       7.825   5.446  20.219  0.00  0.00    +0.000 OA
BRANCH  18  20
ATOM     20  O   UNL     1       8.635   7.278  19.181  0.00  0.00    +0.000 OA
ATOM     21  H   UNL     1       9.580   7.231  19.420  0.00  0.00    +0.000 HD
ENDBRANCH  18  20
ENDBRANCH  17  18
ENDBRANCH   4  17
TORSDOF 5
ENDMDL
MODEL 4
REMARK VINA RESULT:      -7.0      0.173      1.092
REMARK  Name = 
REMARK  6 active torsions:
REMARK  status: ('A' for Active; 'I' for Inactive)
REMARK    1  A    between atoms: C_1  and  C_2
REMARK    2  A    between atoms: C_2  and  C_4
REMARK    3  A    between atoms: C_7  and  C_8
REMARK    4  A    between atoms: C_8  and  C_9
REMARK    5  A    between atoms: C_9  and  O_11
REMARK    6  A    between atoms: N_14  and  C_15
REMARK                            x       y       z     vdW  Elec       q    Type
REMARK                         _______ _______ _______ _____ _____    ______ ____
ROOT
ATOM      1  C   UNL     1       2.902   6.153  19.729  0.00  0.00    +0.000 C 
ATOM      2  C   UNL     1       3.032   5.441  18.597  0.00  0.00    +0.000 C 
ATOM      3  S   UNL     1       1.722   4.662  17.760  0.00  0.00    +0.000 S 
ATOM      4  C   UNL     1       2.814   3.325  17.174  0.00  0.00    +0.000 C 
ATOM      5  C   UNL     1       4.184   3.981  17.135  0.00  0.00    +0.000 C 
ATOM      6  O   UNL     1       5.108   3.529  16.467  0.00  0.00    +0.000 OA
ATOM      7  N   UNL     1       4.244   5.093  18.005  0.00  0.00    +0.000 N 
ENDROOT
BRANCH   7   8
ATOM      8  C   UNL     1       5.493   5.768  18.153  0.00  0.00    +0.000 A 
ATOM      9  C   UNL     1       5.851   6.799  17.276  0.00  0.00    +0.000 A 
ATOM     10  C   UNL     1       7.139   7.344  17.315  0.00  0.00    +0.000 A 
ATOM     11  C   UNL     1       8.065   6.893  18.255  0.00  0.00    +0.000 A 
ATOM     12  C   UNL     1       7.707   5.895  19.158  0.00  0.00    +0.000 A 
ATOM     13  C   UNL     1       6.434   5.327  19.096  0.00  0.00    +0.000 A 
ENDBRANCH   7   8
BRANCH   1  15
ATOM     14  C   UNL     1       1.240   7.630  20.996  0.00  0.00    +0.000 C 
ATOM     15  C   UNL     1       1.646   6.256  20.542  0.00  0.00    +0.000 C 
ATOM     16  O   UNL     1       1.035   5.266  20.928  0.00  0.00    +0.000 OA
ENDBRANCH   1  15
BRANCH   4  17
ATOM     17  C   UNL     1       2.774   2.212  18.215  0.00  0.00    +0.000 C 
BRANCH  17  18
ATOM     18  C   UNL     1       1.456   2.190  18.938  0.00  0.00    +0.000 C 
ATOM     19  O   UNL     1       0.373   2.021  18.403  0.00  0.00    +0.000 OA
BRANCH  18  20
ATOM     20  O   UNL     1       1.579   2.452  20.261  0.00  0.00    +0.000 OA
ATOM     21  H   UNL     1       2.008   1.747  20.782  0.00  0.00    +0.000 HD
ENDBRANCH  18  20
ENDBRANCH  17  18
ENDBRANCH   4  17
TORSDOF 5
ENDMDL
MODEL 5
REMARK VINA RESULT:      -6.9      2.025      2.617
REMARK  Name = 
REMARK  6 active torsions:
REMARK  status: ('A' for Active; 'I' for Inactive)
REMARK    1  A    between atoms: C_1  and  C_2
REMARK    2  A    between atoms: C_2  and  C_4
REMARK    3  A    between atoms: C_7  and  C_8
REMARK    4  A    between atoms: C_8  and  C_9
REMARK    5  A    between atoms: C_9  and  O_11
REMARK    6  A    between atoms: N_14  and  C_15
REMARK                            x       y       z     vdW  Elec       q    Type
REMARK                         _______ _______ _______ _____ _____    ______ ____
ROOT
ATOM      1  C   UNL     1       3.301   6.232  17.956  0.00  0.00    +0.000 C 
ATOM      2  C   UNL     1       3.042   4.914  17.919  0.00  0.00    +0.000 C 
ATOM      3  S   UNL     1       1.620   4.164  18.581  0.00  0.00    +0.000 S 
ATOM      4  C   UNL     1       2.536   2.640  18.978  0.00  0.00    +0.000 C 
ATOM      5  C   UNL     1       3.665   2.632  17.961  0.00  0.00    +0.000 C 
ATOM      6  O   UNL     1       4.278   1.611  17.670  0.00  0.00    +0.000 OA
ATOM      7  N   UNL     1       3.932   3.936  17.484  0.00  0.00    +0.000 N 
ENDROOT
BRANCH   7   8
ATOM      8  C   UNL     1       5.027   4.114  16.585  0.00  0.00    +0.000 A 
ATOM      9  C   UNL     1       6.302   4.423  17.073  0.00  0.00    +0.000 A 
ATOM     10  C   UNL     1       7.333   4.762  16.189  0.00  0.00    +0.000 A 
ATOM     11  C   UNL     1       7.110   4.755  14.813  0.00  0.00    +0.000 A 
ATOM     12  C   UNL     1       5.855   4.412  14.315  0.00  0.00    +0.000 A 
ATOM     13  C   UNL     1       4.818   4.108  15.197  0.00  0.00    +0.000 A 
ENDBRANCH   7   8
BRANCH   1  15
ATOM     14  C   UNL     1       1.980   8.423  17.932  0.00  0.00    +0.000 C 
ATOM     15  C   UNL     1       2.496   7.247  18.712  0.00  0.00    +0.000 C 
ATOM     16  O   UNL     1       2.360   7.197  19.928  0.00  0.00    +0.000 OA
ENDBRANCH   1  15
BRANCH   4  17
ATOM     17  C   UNL     1       3.082   2.789  20.394  0.00  0.00    +0.000 C 
BRANCH  17  18
ATOM     18  C   UNL     1       2.067   3.421  21.306  0.00  0.00    +0.000 C 
ATOM     19  O   UNL     1       1.063   2.864  21.719  0.00  0.00    +0.000 OA
BRANCH  18  20
ATOM     20  O   UNL     1       2.338   4.720  21.574  0.00  0.00    +0.000 OA
ATOM     21  H   UNL     1       1.599   5.221  21.971  0.00  0.00    +0.000 HD
ENDBRANCH  18  20
ENDBRANCH  17  18
ENDBRANCH   4  17
TORSDOF 5
ENDMDL
MODEL 6
REMARK VINA RESULT:      -6.9      2.212      4.978
REMARK  Name = 
REMARK  6 active torsions:
REMARK  status: ('A' for Active; 'I' for Inactive)
REMARK    1  A    between atoms: C_1  and  C_2
REMARK    2  A    between atoms: C_2  and  C_4
REMARK    3  A    between atoms: C_7  and  C_8
REMARK    4  A    between atoms: C_8  and  C_9
REMARK    5  A    between atoms: C_9  and  O_11
REMARK    6  A    between atoms: N_14  and  C_15
REMARK                            x       y       z     vdW  Elec       q    Type
REMARK                         _______ _______ _______ _____ _____    ______ ____
ROOT
ATOM      1  C   UNL     1       1.567   4.285  18.830  0.00  0.00    +0.000 C 
ATOM      2  C   UNL     1       2.541   4.777  18.046  0.00  0.00    +0.000 C 
ATOM      3  S   UNL     1       3.529   3.824  16.978  0.00  0.00    +0.000 S 
ATOM      4  C   UNL     1       4.953   4.938  17.204  0.00  0.00    +0.000 C 
ATOM      5  C   UNL     1       4.306   6.270  17.547  0.00  0.00    +0.000 C 
ATOM      6  O   UNL     1       4.898   7.337  17.423  0.00  0.00    +0.000 OA
ATOM      7  N   UNL     1       3.008   6.088  18.077  0.00  0.00    +0.000 N 
ENDROOT
BRANCH   7   8
ATOM      8  C   UNL     1       2.298   7.239  18.533  0.00  0.00    +0.000 A 
ATOM      9  C   UNL     1       1.935   8.251  17.636  0.00  0.00    +0.000 A 
ATOM     10  C   UNL     1       1.391   9.450  18.108  0.00  0.00    +0.000 A 
ATOM     11  C   UNL     1       1.167   9.633  19.471  0.00  0.00    +0.000 A 
ATOM     12  C   UNL     1       1.489   8.618  20.369  0.00  0.00    +0.000 A 
ATOM     13  C   UNL     1       2.064   7.435  19.903  0.00  0.00    +0.000 A 
ENDBRANCH   7   8
BRANCH   1  15
ATOM     14  C   UNL     1       2.246   2.060  19.897  0.00  0.00    +0.000 C 
ATOM     15  C   UNL     1       1.280   2.828  19.038  0.00  0.00    +0.000 C 
ATOM     16  O   UNL     1       0.377   2.250  18.447  0.00  0.00    +0.000 OA
ENDBRANCH   1  15
BRANCH   4  17
ATOM     17  C   UNL     1       5.765   4.410  18.383  0.00  0.00    +0.000 C 
BRANCH  17  18
ATOM     18  C   UNL     1       7.226   4.726  18.220  0.00  0.00    +0.000 C 
ATOM     19  O   UNL     1       7.882   4.487  17.219  0.00  0.00    +0.000 OA
BRANCH  18  20
ATOM     20  O   UNL     1       7.779   5.246  19.341  0.00  0.00    +0.000 OA
ATOM     21  H   UNL     1       8.647   4.872  19.585  0.00  0.00    +0.000 HD
ENDBRANCH  18  20
ENDBRANCH  17  18
ENDBRANCH   4  17
TORSDOF 5
ENDMDL
MODEL 7
REMARK VINA RESULT:      -6.9      2.219      2.639
REMARK  Name = 
REMARK  6 active torsions:
REMARK  status: ('A' for Active; 'I' for Inactive)
REMARK    1  A    between atoms: C_1  and  C_2
REMARK    2  A    between atoms: C_2  and  C_4
REMARK    3  A    between atoms: C_7  and  C_8
REMARK    4  A    between atoms: C_8  and  C_9
REMARK    5  A    between atoms: C_9  and  O_11
REMARK    6  A    between atoms: N_14  and  C_15
REMARK                            x       y       z     vdW  Elec       q    Type
REMARK                         _______ _______ _______ _____ _____    ______ ____
ROOT
ATOM      1  C   UNL     1       3.311   6.836  17.871  0.00  0.00    +0.000 C 
ATOM      2  C   UNL     1       2.945   5.553  18.024  0.00  0.00    +0.000 C 
ATOM      3  S   UNL     1       1.347   5.023  18.459  0.00  0.00    +0.000 S 
ATOM      4  C   UNL     1       2.005   3.573  19.345  0.00  0.00    +0.000 C 
ATOM      5  C   UNL     1       3.327   3.302  18.646  0.00  0.00    +0.000 C 
ATOM      6  O   UNL     1       3.892   2.216  18.710  0.00  0.00    +0.000 OA
ATOM      7  N   UNL     1       3.815   4.465  18.007  0.00  0.00    +0.000 N 
ENDROOT
BRANCH   7   8
ATOM      8  C   UNL     1       5.095   4.403  17.378  0.00  0.00    +0.000 A 
ATOM      9  C   UNL     1       6.260   4.650  18.113  0.00  0.00    +0.000 A 
ATOM     10  C   UNL     1       7.495   4.754  17.464  0.00  0.00    +0.000 A 
ATOM     11  C   UNL     1       7.582   4.574  16.085  0.00  0.00    +0.000 A 
ATOM     12  C   UNL     1       6.434   4.290  15.349  0.00  0.00    +0.000 A 
ATOM     13  C   UNL     1       5.198   4.220  15.990  0.00  0.00    +0.000 A 
ENDBRANCH   7   8
BRANCH   1  15
ATOM     14  C   UNL     1       1.956   8.123  19.619  0.00  0.00    +0.000 C 
ATOM     15  C   UNL     1       2.456   8.022  18.206  0.00  0.00    +0.000 C 
ATOM     16  O   UNL     1       2.075   8.814  17.352  0.00  0.00    +0.000 OA
ENDBRANCH   1  15
BRANCH   4  17
ATOM     17  C   UNL     1       2.233   3.986  20.796  0.00  0.00    +0.000 C 
BRANCH  17  18
ATOM     18  C   UNL     1       2.144   2.803  21.719  0.00  0.00    +0.000 C 
ATOM     19  O   UNL     1       1.144   2.477  22.337  0.00  0.00    +0.000 OA
BRANCH  18  20
ATOM     20  O   UNL     1       3.326   2.158  21.861  0.00  0.00    +0.000 OA
ATOM     21  H   UNL     1       4.117   2.712  21.715  0.00  0.00    +0.000 HD
ENDBRANCH  18  20
ENDBRANCH  17  18
ENDBRANCH   4  17
TORSDOF 5
ENDMDL
MODEL 8
REMARK VINA RESULT:      -6.8      1.249      1.496
REMARK  Name = 
REMARK  6 active torsions:
REMARK  status: ('A' for Active; 'I' for Inactive)
REMARK    1  A    between atoms: C_1  and  C_2
REMARK    2  A    between atoms: C_2  and  C_4
REMARK    3  A    between atoms: C_7  and  C_8
REMARK    4  A    between atoms: C_8  and  C_9
REMARK    5  A    between atoms: C_9  and  O_11
REMARK    6  A    between atoms: N_14  and  C_15
REMARK                            x       y       z     vdW  Elec       q    Type
REMARK                         _______ _______ _______ _____ _____    ______ ____
ROOT
ATOM      1  C   UNL     1       3.014   6.382  19.604  0.00  0.00    +0.000 C 
ATOM      2  C   UNL     1       3.065   5.495  18.597  0.00  0.00    +0.000 C 
ATOM      3  S   UNL     1       1.685   4.676  17.927  0.00  0.00    +0.000 S 
ATOM      4  C   UNL     1       2.677   3.199  17.535  0.00  0.00    +0.000 C 
ATOM      5  C   UNL     1       4.081   3.754  17.359  0.00  0.00    +0.000 C 
ATOM      6  O   UNL     1       4.954   3.146  16.749  0.00  0.00    +0.000 OA
ATOM      7  N   UNL     1       4.234   4.983  18.039  0.00  0.00    +0.000 N 
ENDROOT
BRANCH   7   8
ATOM      8  C   UNL     1       5.524   5.594  18.047  0.00  0.00    +0.000 A 
ATOM      9  C   UNL     1       6.475   5.232  19.009  0.00  0.00    +0.000 A 
ATOM     10  C   UNL     1       7.673   5.947  19.121  0.00  0.00    +0.000 A 
ATOM     11  C   UNL     1       7.947   7.000  18.250  0.00  0.00    +0.000 A 
ATOM     12  C   UNL     1       7.024   7.344  17.265  0.00  0.00    +0.000 A 
ATOM     13  C   UNL     1       5.815   6.655  17.175  0.00  0.00    +0.000 A 
ENDBRANCH   7   8
BRANCH   1  15
ATOM     14  C   UNL     1       1.487   8.141  20.666  0.00  0.00    +0.000 C 
ATOM     15  C   UNL     1       1.794   6.690  20.421  0.00  0.00    +0.000 C 
ATOM     16  O   UNL     1       1.139   5.813  20.970  0.00  0.00    +0.000 OA
ENDBRANCH   1  15
BRANCH   4  17
ATOM     17  C   UNL     1       2.609   2.267  18.742  0.00  0.00    +0.000 C 
BRANCH  17  18
ATOM     18  C   UNL     1       3.972   1.742  19.100  0.00  0.00    +0.000 C 
ATOM     19  O   UNL     1       4.711   2.240  19.933  0.00  0.00    +0.000 OA
BRANCH  18  20
ATOM     20  O   UNL     1       4.341   0.682  18.344  0.00  0.00    +0.000 OA
ATOM     21  H   UNL     1       4.423  -0.161  18.830  0.00  0.00    +0.000 HD
ENDBRANCH  18  20
ENDBRANCH  17  18
ENDBRANCH   4  17
TORSDOF 5
ENDMDL
MODEL 9
REMARK VINA RESULT:      -6.8      2.019      2.626
REMARK  Name = 
REMARK  6 active torsions:
REMARK  status: ('A' for Active; 'I' for Inactive)
REMARK    1  A    between atoms: C_1  and  C_2
REMARK    2  A    between atoms: C_2  and  C_4
REMARK    3  A    between atoms: C_7  and  C_8
REMARK    4  A    between atoms: C_8  and  C_9
REMARK    5  A    between atoms: C_9  and  O_11
REMARK    6  A    between atoms: N_14  and  C_15
REMARK                            x       y       z     vdW  Elec       q    Type
REMARK                         _______ _______ _______ _____ _____    ______ ____
ROOT
ATOM      1  C   UNL     1       3.229   6.705  17.982  0.00  0.00    +0.000 C 
ATOM      2  C   UNL     1       2.935   5.399  17.873  0.00  0.00    +0.000 C 
ATOM      3  S   UNL     1       1.427   4.679  18.356  0.00  0.00    +0.000 S 
ATOM      4  C   UNL     1       2.248   3.112  18.795  0.00  0.00    +0.000 C 
ATOM      5  C   UNL     1       3.478   3.096  17.902  0.00  0.00    +0.000 C 
ATOM      6  O   UNL     1       4.087   2.064  17.643  0.00  0.00    +0.000 OA
ATOM      7  N   UNL     1       3.835   4.404  17.500  0.00  0.00    +0.000 N 
ENDROOT
BRANCH   7   8
ATOM      8  C   UNL     1       5.024   4.572  16.728  0.00  0.00    +0.000 A 
ATOM      9  C   UNL     1       4.974   4.527  15.330  0.00  0.00    +0.000 A 
ATOM     10  C   UNL     1       6.157   4.523  14.581  0.00  0.00    +0.000 A 
ATOM     11  C   UNL     1       7.393   4.604  15.220  0.00  0.00    +0.000 A 
ATOM     12  C   UNL     1       7.452   4.687  16.609  0.00  0.00    +0.000 A 
ATOM     13  C   UNL     1       6.276   4.656  17.357  0.00  0.00    +0.000 A 
ENDBRANCH   7   8
BRANCH   1  15
ATOM     14  C   UNL     1       1.872   8.871  17.857  0.00  0.00    +0.000 C 
ATOM     15  C   UNL     1       2.380   7.724  18.683  0.00  0.00    +0.000 C 
ATOM     16  O   UNL     1       2.201   7.701  19.895  0.00  0.00    +0.000 OA
ENDBRANCH   1  15
BRANCH   4  17
ATOM     17  C   UNL     1       2.646   3.199  20.265  0.00  0.00    +0.000 C 
BRANCH  17  18
ATOM     18  C   UNL     1       1.494   2.839  21.162  0.00  0.00    +0.000 C 
ATOM     19  O   UNL     1       1.590   2.606  22.355  0.00  0.00    +0.000 OA
BRANCH  18  20
ATOM     20  O   UNL     1       0.323   2.723  20.492  0.00  0.00    +0.000 OA
ATOM     21  H   UNL     1      -0.463   2.596  21.057  0.00  0.00    +0.000 HD
ENDBRANCH  18  20
ENDBRANCH  17  18
ENDBRANCH   4  17
TORSDOF 5
ENDMDL
