MODEL 1
REMARK VINA RESULT:      -8.1      0.000      0.000
REMARK  Name = 
REMARK  5 active torsions:
REMARK  status: ('A' for Active; 'I' for Inactive)
REMARK    1  A    between atoms: C_2  and  C_3
REMARK    2  A    between atoms: C_3  and  C_4
REMARK    3  A    between atoms: C_4  and  C_5
REMARK    4  A    between atoms: C_5  and  N_6
REMARK    5  A    between atoms: N_17  and  C_18
REMARK                            x       y       z     vdW  Elec       q    Type
REMARK                         _______ _______ _______ _____ _____    ______ ____
ROOT
ATOM      1  C   UNL     1       2.371   2.720  20.920  0.00  0.00    +0.000 C 
ENDROOT
BRANCH   1   2
ATOM      2  C   UNL     1       2.499   4.126  21.511  0.00  0.00    +0.000 C 
BRANCH   2   4
ATOM      3  O   UNL     1       0.726   4.882  20.088  0.00  0.00    +0.000 OA
ATOM      4  C   UNL     1       1.768   5.162  20.673  0.00  0.00    +0.000 C 
ATOM      5  N   UNL     1       2.381   6.405  20.682  0.00  0.00    +0.000 N 
ATOM      6  H   UNL     1       3.335   6.449  21.023  0.00  0.00    +0.000 HD
BRANCH   5   7
ATOM      7  C   UNL     1       1.889   7.572  20.051  0.00  0.00    +0.000 A 
ATOM      8  C   UNL     1       2.110   7.858  18.699  0.00  0.00    +0.000 A 
ATOM      9  C   UNL     1       1.665   9.063  18.143  0.00  0.00    +0.000 A 
ATOM     10  C   UNL     1       0.986   9.974  18.936  0.00  0.00    +0.000 A 
ATOM     11  F   UNL     1       0.589  11.141  18.414  0.00  0.00    +0.000 F 
ATOM     12  C   UNL     1       0.712   9.688  20.268  0.00  0.00    +0.000 A 
ATOM     13  C   UNL     1       1.154   8.482  20.824  0.00  0.00    +0.000 A 
ENDBRANCH   5   7
ENDBRANCH   2   4
ENDBRANCH   1   2
BRANCH   1  14
ATOM     14  C   UNL     1       3.635   2.330  20.155  0.00  0.00    +0.000 C 
BRANCH  14  15
ATOM     15  N   UNL     1       3.721   3.011  18.882  0.00  0.00    +0.000 N 
ATOM     16  C   UNL     1       2.814   2.887  17.876  0.00  0.00    +0.000 C 
ATOM     17  O   UNL     1       1.776   2.245  17.886  0.00  0.00    +0.000 OA
ATOM     18  N   UNL     1       3.256   3.615  16.794  0.00  0.00    +0.000 N 
ATOM     19  C   UNL     1       4.491   4.305  17.067  0.00  0.00    +0.000 C 
ATOM     20  C   UNL     1       5.610   3.975  16.078  0.00  0.00    +0.000 C 
ATOM     21  C   UNL     1       5.925   5.295  15.381  0.00  0.00    +0.000 C 
ATOM     22  C   UNL     1       5.588   6.354  16.418  0.00  0.00    +0.000 C 
ATOM     23  C   UNL     1       4.313   5.827  17.063  0.00  0.00    +0.000 C 
ATOM     24  C   UNL     1       4.784   3.778  18.480  0.00  0.00    +0.000 C 
ATOM     25  O   UNL     1       5.784   4.025  19.136  0.00  0.00    +0.000 OA
ATOM     26  H   UNL     1       2.710   3.673  15.946  0.00  0.00    +0.000 HD
ENDBRANCH  14  15
ENDBRANCH   1  14
TORSDOF 5
ENDMDL
MODEL 2
REMARK VINA RESULT:      -8.0      1.040      1.956
REMARK  Name = 
REMARK  5 active torsions:
REMARK  status: ('A' for Active; 'I' for Inactive)
REMARK    1  A    between atoms: C_2  and  C_3
REMARK    2  A    between atoms: C_3  and  C_4
REMARK    3  A    between atoms: C_4  and  C_5
REMARK    4  A    between atoms: C_5  and  N_6
REMARK    5  A    between atoms: N_17  and  C_18
REMARK                            x       y       z     vdW  Elec       q    Type
REMARK                         _______ _______ _______ _____ _____    ______ ____
ROOT
ATOM      1  C   UNL     1       1.840   2.708  20.914  0.00  0.00    +0.000 C 
ENDROOT
BRANCH   1   2
ATOM      2  C   UNL     1       2.464   4.062  21.256  0.00  0.00    +0.000 C 
BRANCH   2   4
ATOM      3  O   UNL     1       0.463   5.124  20.478  0.00  0.00    +0.000 OA
ATOM      4  C   UNL     1       1.672   5.217  20.668  0.00  0.00    +0.000 C 
ATOM      5  N   UNL     1       2.445   6.341  20.417  0.00  0.00    +0.000 N 
ATOM      6  H   UNL     1       3.452   6.219  20.417  0.00  0.00    +0.000 HD
BRANCH   5   7
ATOM      7  C   UNL     1       1.965   7.582  19.937  0.00  0.00    +0.000 A 
ATOM      8  C   UNL     1       1.261   8.488  20.738  0.00  0.00    +0.000 A 
ATOM      9  C   UNL     1       0.744   9.669  20.194  0.00  0.00    +0.000 A 
ATOM     10  C   UNL     1       0.946   9.950  18.852  0.00  0.00    +0.000 A 
ATOM     11  F   UNL     1       0.424  11.063  18.322  0.00  0.00    +0.000 F 
ATOM     12  C   UNL     1       1.685   9.088  18.050  0.00  0.00    +0.000 A 
ATOM     13  C   UNL     1       2.205   7.908  18.595  0.00  0.00    +0.000 A 
ENDBRANCH   5   7
ENDBRANCH   2   4
ENDBRANCH   1   2
BRANCH   1  14
ATOM     14  C   UNL     1       2.151   2.311  19.471  0.00  0.00    +0.000 C 
BRANCH  14  15
ATOM     15  N   UNL     1       3.364   2.937  18.994  0.00  0.00    +0.000 N 
ATOM     16  C   UNL     1       4.611   2.667  19.466  0.00  0.00    +0.000 C 
ATOM     17  O   UNL     1       4.924   1.840  20.307  0.00  0.00    +0.000 OA
ATOM     18  N   UNL     1       5.508   3.501  18.838  0.00  0.00    +0.000 N 
ATOM     19  C   UNL     1       4.874   4.352  17.864  0.00  0.00    +0.000 C 
ATOM     20  C   UNL     1       5.127   5.843  18.095  0.00  0.00    +0.000 C 
ATOM     21  C   UNL     1       5.896   6.310  16.863  0.00  0.00    +0.000 C 
ATOM     22  C   UNL     1       5.419   5.388  15.754  0.00  0.00    +0.000 C 
ATOM     23  C   UNL     1       5.325   4.029  16.436  0.00  0.00    +0.000 C 
ATOM     24  C   UNL     1       3.405   3.965  18.089  0.00  0.00    +0.000 C 
ATOM     25  O   UNL     1       2.444   4.475  17.532  0.00  0.00    +0.000 OA
ATOM     26  H   UNL     1       6.498   3.443  19.032  0.00  0.00    +0.000 HD
ENDBRANCH  14  15
ENDBRANCH   1  14
TORSDOF 5
ENDMDL
MODEL 3
REMARK VINA RESULT:      -7.7      6.045      7.376
REMARK  Name = 
REMARK  5 active torsions:
REMARK  status: ('A' for Active; 'I' for Inactive)
REMARK    1  A    between atoms: C_2  and  C_3
REMARK    2  A    between atoms: C_3  and  C_4
REMARK    3  A    between atoms: C_4  and  C_5
REMARK    4  A    between atoms: C_5  and  N_6
REMARK    5  A    between atoms: N_17  and  C_18
REMARK                            x       y       z     vdW  Elec       q    Type
REMARK                         _______ _______ _______ _____ _____    ______ ____
ROOT
ATOM      1  C   UNL     1       7.495   8.193  17.671  0.00  0.00    +0.000 C 
ENDROOT
BRANCH   1   2
ATOM      2  C   UNL     1       8.632   8.439  18.665  0.00  0.00    +0.000 C 
BRANCH   2   4
ATOM      3  O   UNL     1       8.725  10.706  17.896  0.00  0.00    +0.000 OA
ATOM      4  C   UNL     1       8.947   9.919  18.811  0.00  0.00    +0.000 C 
ATOM      5  N   UNL     1       9.459  10.250  20.056  0.00  0.00    +0.000 N 
ATOM      6  H   UNL     1       9.789   9.488  20.638  0.00  0.00    +0.000 HD
BRANCH   5   7
ATOM      7  C   UNL     1       9.776  11.556  20.497  0.00  0.00    +0.000 A 
ATOM      8  C   UNL     1       9.050  12.222  21.491  0.00  0.00    +0.000 A 
ATOM      9  C   UNL     1       9.360  13.542  21.837  0.00  0.00    +0.000 A 
ATOM     10  C   UNL     1      10.407  14.189  21.200  0.00  0.00    +0.000 A 
ATOM     11  F   UNL     1      10.683  15.463  21.507  0.00  0.00    +0.000 F 
ATOM     12  C   UNL     1      11.173  13.529  20.246  0.00  0.00    +0.000 A 
ATOM     13  C   UNL     1      10.864  12.208  19.901  0.00  0.00    +0.000 A 
ENDBRANCH   5   7
ENDBRANCH   2   4
ENDBRANCH   1   2
BRANCH   1  14
ATOM     14  C   UNL     1       7.450   6.727  17.241  0.00  0.00    +0.000 C 
BRANCH  14  15
ATOM     15  N   UNL     1       6.344   6.024  17.852  0.00  0.00    +0.000 N 
ATOM     16  C   UNL     1       6.387   5.430  19.075  0.00  0.00    +0.000 C 
ATOM     17  O   UNL     1       7.314   5.428  19.869  0.00  0.00    +0.000 OA
ATOM     18  N   UNL     1       5.185   4.794  19.296  0.00  0.00    +0.000 N 
ATOM     19  C   UNL     1       4.256   4.988  18.212  0.00  0.00    +0.000 C 
ATOM     20  C   UNL     1       3.733   3.682  17.611  0.00  0.00    +0.000 C 
ATOM     21  C   UNL     1       2.231   3.698  17.878  0.00  0.00    +0.000 C 
ATOM     22  C   UNL     1       1.871   5.174  17.898  0.00  0.00    +0.000 C 
ATOM     23  C   UNL     1       3.039   5.814  18.637  0.00  0.00    +0.000 C 
ATOM     24  C   UNL     1       5.149   5.766  17.233  0.00  0.00    +0.000 C 
ATOM     25  O   UNL     1       4.830   6.114  16.106  0.00  0.00    +0.000 OA
ATOM     26  H   UNL     1       5.003   4.309  20.164  0.00  0.00    +0.000 HD
ENDBRANCH  14  15
ENDBRANCH   1  14
TORSDOF 5
ENDMDL
MODEL 4
REMARK VINA RESULT:      -7.7      5.183      6.790
REMARK  Name = 
REMARK  5 active torsions:
REMARK  status: ('A' for Active; 'I' for Inactive)
REMARK    1  A    between atoms: C_2  and  C_3
REMARK    2  A    between atoms: C_3  and  C_4
REMARK    3  A    between atoms: C_4  and  C_5
REMARK    4  A    between atoms: C_5  and  N_6
REMARK    5  A    between atoms: N_17  and  C_18
REMARK                            x       y       z     vdW  Elec       q    Type
REMARK                         _______ _______ _______ _____ _____    ______ ____
ROOT
ATOM      1  C   UNL     1       7.255   6.794  17.105  0.00  0.00    +0.000 C 
ENDROOT
BRANCH   1   2
ATOM      2  C   UNL     1       8.094   7.286  18.286  0.00  0.00    +0.000 C 
BRANCH   2   4
ATOM      3  O   UNL     1       7.560   9.503  17.554  0.00  0.00    +0.000 OA
ATOM      4  C   UNL     1       8.259   8.796  18.275  0.00  0.00    +0.000 C 
ATOM      5  N   UNL     1       9.224   9.250  19.161  0.00  0.00    +0.000 N 
ATOM      6  H   UNL     1       9.868   8.562  19.535  0.00  0.00    +0.000 HD
BRANCH   5   7
ATOM      7  C   UNL     1       9.542  10.605  19.412  0.00  0.00    +0.000 A 
ATOM      8  C   UNL     1       9.312  11.225  20.646  0.00  0.00    +0.000 A 
ATOM      9  C   UNL     1       9.576  12.589  20.818  0.00  0.00    +0.000 A 
ATOM     10  C   UNL     1      10.084  13.327  19.761  0.00  0.00    +0.000 A 
ATOM     11  F   UNL     1      10.307  14.638  19.916  0.00  0.00    +0.000 F 
ATOM     12  C   UNL     1      10.368  12.720  18.544  0.00  0.00    +0.000 A 
ATOM     13  C   UNL     1      10.106  11.355  18.371  0.00  0.00    +0.000 A 
ENDBRANCH   5   7
ENDBRANCH   2   4
ENDBRANCH   1   2
BRANCH   1  14
ATOM     14  C   UNL     1       7.132   5.271  17.118  0.00  0.00    +0.000 C 
BRANCH  14  15
ATOM     15  N   UNL     1       5.933   4.838  17.803  0.00  0.00    +0.000 N 
ATOM     16  C   UNL     1       5.820   4.704  19.152  0.00  0.00    +0.000 C 
ATOM     17  O   UNL     1       6.660   4.965  19.998  0.00  0.00    +0.000 OA
ATOM     18  N   UNL     1       4.571   4.200  19.439  0.00  0.00    +0.000 N 
ATOM     19  C   UNL     1       3.769   4.018  18.256  0.00  0.00    +0.000 C 
ATOM     20  C   UNL     1       3.244   2.591  18.085  0.00  0.00    +0.000 C 
ATOM     21  C   UNL     1       1.725   2.718  18.157  0.00  0.00    +0.000 C 
ATOM     22  C   UNL     1       1.442   4.114  17.628  0.00  0.00    +0.000 C 
ATOM     23  C   UNL     1       2.559   4.956  18.230  0.00  0.00    +0.000 C 
ATOM     24  C   UNL     1       4.796   4.396  17.178  0.00  0.00    +0.000 C 
ATOM     25  O   UNL     1       4.613   4.336  15.972  0.00  0.00    +0.000 OA
ATOM     26  H   UNL     1       4.277   4.048  20.394  0.00  0.00    +0.000 HD
ENDBRANCH  14  15
ENDBRANCH   1  14
TORSDOF 5
ENDMDL
MODEL 5
REMARK VINA RESULT:      -7.6      4.910      6.585
REMARK  Name = 
REMARK  5 active torsions:
REMARK  status: ('A' for Active; 'I' for Inactive)
REMARK    1  A    between atoms: C_2  and  C_3
REMARK    2  A    between atoms: C_3  and  C_4
REMARK    3  A    between atoms: C_4  and  C_5
REMARK    4  A    between atoms: C_5  and  N_6
REMARK    5  A    between atoms: N_17  and  C_18
REMARK                            x       y       z     vdW  Elec       q    Type
REMARK                         _______ _______ _______ _____ _____    ______ ____
ROOT
ATOM      1  C   UNL     1       7.180   6.061  17.332  0.00  0.00    +0.000 C 
ENDROOT
BRANCH   1   2
ATOM      2  C   UNL     1       7.964   6.742  18.455  0.00  0.00    +0.000 C 
BRANCH   2   4
ATOM      3  O   UNL     1       7.546   8.792  17.288  0.00  0.00    +0.000 OA
ATOM      4  C   UNL     1       8.141   8.230  18.203  0.00  0.00    +0.000 C 
ATOM      5  N   UNL     1       8.988   8.844  19.112  0.00  0.00    +0.000 N 
ATOM      6  H   UNL     1       9.574   8.240  19.679  0.00  0.00    +0.000 HD
BRANCH   5   7
ATOM      7  C   UNL     1       9.282  10.227  19.164  0.00  0.00    +0.000 A 
ATOM      8  C   UNL     1       9.562  10.989  18.024  0.00  0.00    +0.000 A 
ATOM      9  C   UNL     1       9.920  12.337  18.138  0.00  0.00    +0.000 A 
ATOM     10  C   UNL     1       9.981  12.925  19.392  0.00  0.00    +0.000 A 
ATOM     11  F   UNL     1      10.355  14.206  19.504  0.00  0.00    +0.000 F 
ATOM     12  C   UNL     1       9.658  12.200  20.532  0.00  0.00    +0.000 A 
ATOM     13  C   UNL     1       9.297  10.852  20.418  0.00  0.00    +0.000 A 
ENDBRANCH   5   7
ENDBRANCH   2   4
ENDBRANCH   1   2
BRANCH   1  14
ATOM     14  C   UNL     1       6.594   4.731  17.801  0.00  0.00    +0.000 C 
BRANCH  14  15
ATOM     15  N   UNL     1       5.166   4.821  18.014  0.00  0.00    +0.000 N 
ATOM     16  C   UNL     1       4.356   5.751  17.440  0.00  0.00    +0.000 C 
ATOM     17  O   UNL     1       4.668   6.610  16.631  0.00  0.00    +0.000 OA
ATOM     18  N   UNL     1       3.080   5.583  17.929  0.00  0.00    +0.000 N 
ATOM     19  C   UNL     1       2.985   4.473  18.841  0.00  0.00    +0.000 C 
ATOM     20  C   UNL     1       2.422   4.852  20.212  0.00  0.00    +0.000 C 
ATOM     21  C   UNL     1       1.120   4.066  20.336  0.00  0.00    +0.000 C 
ATOM     22  C   UNL     1       1.356   2.819  19.500  0.00  0.00    +0.000 C 
ATOM     23  C   UNL     1       2.112   3.343  18.286  0.00  0.00    +0.000 C 
ATOM     24  C   UNL     1       4.463   4.058  18.909  0.00  0.00    +0.000 C 
ATOM     25  O   UNL     1       4.920   3.179  19.624  0.00  0.00    +0.000 OA
ATOM     26  H   UNL     1       2.317   6.164  17.607  0.00  0.00    +0.000 HD
ENDBRANCH  14  15
ENDBRANCH   1  14
TORSDOF 5
ENDMDL
MODEL 6
REMARK VINA RESULT:      -7.5      5.964      7.287
REMARK  Name = 
REMARK  5 active torsions:
REMARK  status: ('A' for Active; 'I' for Inactive)
REMARK    1  A    between atoms: C_2  and  C_3
REMARK    2  A    between atoms: C_3  and  C_4
REMARK    3  A    between atoms: C_4  and  C_5
REMARK    4  A    between atoms: C_5  and  N_6
REMARK    5  A    between atoms: N_17  and  C_18
REMARK                            x       y       z     vdW  Elec       q    Type
REMARK                         _______ _______ _______ _____ _____    ______ ____
ROOT
ATOM      1  C   UNL     1       7.549   8.041  17.522  0.00  0.00    +0.000 C 
ENDROOT
BRANCH   1   2
ATOM      2  C   UNL     1       8.594   8.360  18.593  0.00  0.00    +0.000 C 
BRANCH   2   4
ATOM      3  O   UNL     1       8.443  10.636  17.860  0.00  0.00    +0.000 OA
ATOM      4  C   UNL     1       8.833   9.855  18.724  0.00  0.00    +0.000 C 
ATOM      5  N   UNL     1       9.483  10.207  19.897  0.00  0.00    +0.000 N 
ATOM      6  H   UNL     1       9.934   9.462  20.416  0.00  0.00    +0.000 HD
BRANCH   5   7
ATOM      7  C   UNL     1       9.774  11.526  20.316  0.00  0.00    +0.000 A 
ATOM      8  C   UNL     1      10.833  12.276  19.793  0.00  0.00    +0.000 A 
ATOM      9  C   UNL     1      11.122  13.549  20.297  0.00  0.00    +0.000 A 
ATOM     10  C   UNL     1      10.342  14.077  21.313  0.00  0.00    +0.000 A 
ATOM     11  F   UNL     1      10.638  15.281  21.818  0.00  0.00    +0.000 F 
ATOM     12  C   UNL     1       9.254  13.370  21.811  0.00  0.00    +0.000 A 
ATOM     13  C   UNL     1       8.962  12.098  21.306  0.00  0.00    +0.000 A 
ENDBRANCH   5   7
ENDBRANCH   2   4
ENDBRANCH   1   2
BRANCH   1  14
ATOM     14  C   UNL     1       7.476   6.537  17.260  0.00  0.00    +0.000 C 
BRANCH  14  15
ATOM     15  N   UNL     1       6.149   6.016  17.502  0.00  0.00    +0.000 N 
ATOM     16  C   UNL     1       5.099   6.149  16.647  0.00  0.00    +0.000 C 
ATOM     17  O   UNL     1       5.101   6.664  15.541  0.00  0.00    +0.000 OA
ATOM     18  N   UNL     1       3.982   5.601  17.237  0.00  0.00    +0.000 N 
ATOM     19  C   UNL     1       4.269   5.028  18.527  0.00  0.00    +0.000 C 
ATOM     20  C   UNL     1       3.402   5.591  19.655  0.00  0.00    +0.000 C 
ATOM     21  C   UNL     1       2.596   4.401  20.166  0.00  0.00    +0.000 C 
ATOM     22  C   UNL     1       3.490   3.202  19.898  0.00  0.00    +0.000 C 
ATOM     23  C   UNL     1       4.094   3.507  18.534  0.00  0.00    +0.000 C 
ATOM     24  C   UNL     1       5.746   5.424  18.671  0.00  0.00    +0.000 C 
ATOM     25  O   UNL     1       6.443   5.219  19.653  0.00  0.00    +0.000 OA
ATOM     26  H   UNL     1       3.095   5.577  16.752  0.00  0.00    +0.000 HD
ENDBRANCH  14  15
ENDBRANCH   1  14
TORSDOF 5
ENDMDL
MODEL 7
REMARK VINA RESULT:      -7.4      6.011      7.632
REMARK  Name = 
REMARK  5 active torsions:
REMARK  status: ('A' for Active; 'I' for Inactive)
REMARK    1  A    between atoms: C_2  and  C_3
REMARK    2  A    between atoms: C_3  and  C_4
REMARK    3  A    between atoms: C_4  and  C_5
REMARK    4  A    between atoms: C_5  and  N_6
REMARK    5  A    between atoms: N_17  and  C_18
REMARK                            x       y       z     vdW  Elec       q    Type
REMARK                         _______ _______ _______ _____ _____    ______ ____
ROOT
ATOM      1  C   UNL     1       7.942   7.529  18.259  0.00  0.00    +0.000 C 
ENDROOT
BRANCH   1   2
ATOM      2  C   UNL     1       8.011   8.920  17.626  0.00  0.00    +0.000 C 
BRANCH   2   4
ATOM      3  O   UNL     1       9.027   9.645  19.672  0.00  0.00    +0.000 OA
ATOM      4  C   UNL     1       8.780   9.901  18.497  0.00  0.00    +0.000 C 
ATOM      5  N   UNL     1       9.173  11.044  17.819  0.00  0.00    +0.000 N 
ATOM      6  H   UNL     1       8.729  11.228  16.925  0.00  0.00    +0.000 HD
BRANCH   5   7
ATOM      7  C   UNL     1       9.957  12.092  18.354  0.00  0.00    +0.000 A 
ATOM      8  C   UNL     1       9.432  13.092  19.180  0.00  0.00    +0.000 A 
ATOM      9  C   UNL     1      10.237  14.148  19.621  0.00  0.00    +0.000 A 
ATOM     10  C   UNL     1      11.571  14.195  19.249  0.00  0.00    +0.000 A 
ATOM     11  F   UNL     1      12.333  15.222  19.643  0.00  0.00    +0.000 F 
ATOM     12  C   UNL     1      12.125  13.186  18.470  0.00  0.00    +0.000 A 
ATOM     13  C   UNL     1      11.321  12.127  18.031  0.00  0.00    +0.000 A 
ENDBRANCH   5   7
ENDBRANCH   2   4
ENDBRANCH   1   2
BRANCH   1  14
ATOM     14  C   UNL     1       7.376   6.506  17.274  0.00  0.00    +0.000 C 
BRANCH  14  15
ATOM     15  N   UNL     1       6.270   5.769  17.844  0.00  0.00    +0.000 N 
ATOM     16  C   UNL     1       6.287   5.174  19.067  0.00  0.00    +0.000 C 
ATOM     17  O   UNL     1       7.185   5.198  19.894  0.00  0.00    +0.000 OA
ATOM     18  N   UNL     1       5.099   4.502  19.244  0.00  0.00    +0.000 N 
ATOM     19  C   UNL     1       4.204   4.670  18.128  0.00  0.00    +0.000 C 
ATOM     20  C   UNL     1       3.742   3.349  17.508  0.00  0.00    +0.000 C 
ATOM     21  C   UNL     1       2.232   3.319  17.720  0.00  0.00    +0.000 C 
ATOM     22  C   UNL     1       1.827   4.783  17.729  0.00  0.00    +0.000 C 
ATOM     23  C   UNL     1       2.947   5.458  18.510  0.00  0.00    +0.000 C 
ATOM     24  C   UNL     1       5.107   5.476  17.182  0.00  0.00    +0.000 C 
ATOM     25  O   UNL     1       4.818   5.816  16.045  0.00  0.00    +0.000 OA
ATOM     26  H   UNL     1       4.901   4.009  20.105  0.00  0.00    +0.000 HD
ENDBRANCH  14  15
ENDBRANCH   1  14
TORSDOF 5
ENDMDL
MODEL 8
REMARK VINA RESULT:      -7.4      4.787      6.838
REMARK  Name = 
REMARK  5 active torsions:
REMARK  status: ('A' for Active; 'I' for Inactive)
REMARK    1  A    between atoms: C_2  and  C_3
REMARK    2  A    between atoms: C_3  and  C_4
REMARK    3  A    between atoms: C_4  and  C_5
REMARK    4  A    between atoms: C_5  and  N_6
REMARK    5  A    between atoms: N_17  and  C_18
REMARK                            x       y       z     vdW  Elec       q    Type
REMARK                         _______ _______ _______ _____ _____    ______ ____
ROOT
ATOM      1  C   UNL     1       5.690   7.205  17.513  0.00  0.00    +0.000 C 
ENDROOT
BRANCH   1   2
ATOM      2  C   UNL     1       7.118   7.328  16.979  0.00  0.00    +0.000 C 
BRANCH   2   4
ATOM      3  O   UNL     1       8.555   7.412  18.894  0.00  0.00    +0.000 OA
ATOM      4  C   UNL     1       8.035   8.028  17.968  0.00  0.00    +0.000 C 
ATOM      5  N   UNL     1       8.225   9.371  17.684  0.00  0.00    +0.000 N 
ATOM      6  H   UNL     1       7.581   9.801  17.029  0.00  0.00    +0.000 HD
BRANCH   5   7
ATOM      7  C   UNL     1       9.078  10.252  18.390  0.00  0.00    +0.000 A 
ATOM      8  C   UNL     1      10.036  11.054  17.758  0.00  0.00    +0.000 A 
ATOM      9  C   UNL     1      10.905  11.852  18.510  0.00  0.00    +0.000 A 
ATOM     10  C   UNL     1      10.806  11.858  19.893  0.00  0.00    +0.000 A 
ATOM     11  F   UNL     1      11.658  12.596  20.615  0.00  0.00    +0.000 F 
ATOM     12  C   UNL     1       9.829  11.108  20.537  0.00  0.00    +0.000 A 
ATOM     13  C   UNL     1       8.957  10.312  19.785  0.00  0.00    +0.000 A 
ENDBRANCH   5   7
ENDBRANCH   2   4
ENDBRANCH   1   2
BRANCH   1  14
ATOM     14  C   UNL     1       4.989   5.980  16.926  0.00  0.00    +0.000 C 
BRANCH  14  15
ATOM     15  N   UNL     1       4.518   5.087  17.962  0.00  0.00    +0.000 N 
ATOM     16  C   UNL     1       5.317   4.275  18.706  0.00  0.00    +0.000 C 
ATOM     17  O   UNL     1       6.534   4.196  18.671  0.00  0.00    +0.000 OA
ATOM     18  N   UNL     1       4.521   3.516  19.534  0.00  0.00    +0.000 N 
ATOM     19  C   UNL     1       3.124   3.838  19.396  0.00  0.00    +0.000 C 
ATOM     20  C   UNL     1       2.248   2.632  19.049  0.00  0.00    +0.000 C 
ATOM     21  C   UNL     1       1.301   2.477  20.236  0.00  0.00    +0.000 C 
ATOM     22  C   UNL     1       1.145   3.888  20.776  0.00  0.00    +0.000 C 
ATOM     23  C   UNL     1       2.549   4.468  20.669  0.00  0.00    +0.000 C 
ATOM     24  C   UNL     1       3.198   4.857  18.249  0.00  0.00    +0.000 C 
ATOM     25  O   UNL     1       2.239   5.387  17.709  0.00  0.00    +0.000 OA
ATOM     26  H   UNL     1       4.926   2.860  20.189  0.00  0.00    +0.000 HD
ENDBRANCH  14  15
ENDBRANCH   1  14
TORSDOF 5
ENDMDL
MODEL 9
REMARK VINA RESULT:      -7.4      6.404      7.996
REMARK  Name = 
REMARK  5 active torsions:
REMARK  status: ('A' for Active; 'I' for Inactive)
REMARK    1  A    between atoms: C_2  and  C_3
REMARK    2  A    between atoms: C_3  and  C_4
REMARK    3  A    between atoms: C_4  and  C_5
REMARK    4  A    between atoms: C_5  and  N_6
REMARK    5  A    between atoms: N_17  and  C_18
REMARK                            x       y       z     vdW  Elec       q    Type
REMARK                         _______ _______ _______ _____ _____    ______ ____
ROOT
ATOM      1  C   UNL     1       7.508   8.585  17.883  0.00  0.00    +0.000 C 
ENDROOT
BRANCH   1   2
ATOM      2  C   UNL     1       8.736   9.177  18.578  0.00  0.00    +0.000 C 
BRANCH   2   4
ATOM      3  O   UNL     1       8.084  11.274  17.621  0.00  0.00    +0.000 OA
ATOM      4  C   UNL     1       8.956  10.632  18.199  0.00  0.00    +0.000 C 
ATOM      5  N   UNL     1      10.188  11.123  18.600  0.00  0.00    +0.000 N 
ATOM      6  H   UNL     1      10.890  10.443  18.874  0.00  0.00    +0.000 HD
BRANCH   5   7
ATOM      7  C   UNL     1      10.636  12.455  18.445  0.00  0.00    +0.000 A 
ATOM      8  C   UNL     1      10.343  13.470  19.364  0.00  0.00    +0.000 A 
ATOM      9  C   UNL     1      10.748  14.787  19.124  0.00  0.00    +0.000 A 
ATOM     10  C   UNL     1      11.459  15.087  17.973  0.00  0.00    +0.000 A 
ATOM     11  F   UNL     1      11.819  16.353  17.727  0.00  0.00    +0.000 F 
ATOM     12  C   UNL     1      11.805  14.086  17.073  0.00  0.00    +0.000 A 
ATOM     13  C   UNL     1      11.403  12.767  17.313  0.00  0.00    +0.000 A 
ENDBRANCH   5   7
ENDBRANCH   2   4
ENDBRANCH   1   2
BRANCH   1  14
ATOM     14  C   UNL     1       7.730   7.112  17.540  0.00  0.00    +0.000 C 
BRANCH  14  15
ATOM     15  N   UNL     1       6.660   6.279  18.043  0.00  0.00    +0.000 N 
ATOM     16  C   UNL     1       6.732   5.529  19.176  0.00  0.00    +0.000 C 
ATOM     17  O   UNL     1       7.657   5.468  19.969  0.00  0.00    +0.000 OA
ATOM     18  N   UNL     1       5.564   4.811  19.301  0.00  0.00    +0.000 N 
ATOM     19  C   UNL     1       4.627   5.101  18.246  0.00  0.00    +0.000 C 
ATOM     20  C   UNL     1       4.171   3.862  17.472  0.00  0.00    +0.000 C 
ATOM     21  C   UNL     1       2.670   3.767  17.727  0.00  0.00    +0.000 C 
ATOM     22  C   UNL     1       2.236   5.207  17.941  0.00  0.00    +0.000 C 
ATOM     23  C   UNL     1       3.369   5.801  18.768  0.00  0.00    +0.000 C 
ATOM     24  C   UNL     1       5.480   6.047  17.386  0.00  0.00    +0.000 C 
ATOM     25  O   UNL     1       5.145   6.526  16.313  0.00  0.00    +0.000 OA
ATOM     26  H   UNL     1       5.406   4.205  20.094  0.00  0.00    +0.000 HD
ENDBRANCH  14  15
ENDBRANCH   1  14
TORSDOF 5
ENDMDL
