MODEL 1
REMARK VINA RESULT:      -8.1      0.000      0.000
REMARK  Name = 
REMARK  10 active torsions:
REMARK  status: ('A' for Active; 'I' for Inactive)
REMARK    1  A    between atoms: C_1  and  C_2
REMARK    2  A    between atoms: C_2  and  C_3
REMARK    3  A    between atoms: C_2  and  C_4
REMARK    4  A    between atoms: C_2  and  C_5
REMARK    5  A    between atoms: C_6  and  C_7
REMARK    6  A    between atoms: C_13  and  C_14
REMARK    7  A    between atoms: C_14  and  O_15
REMARK    8  A    between atoms: C_14  and  C_16
REMARK    9  A    between atoms: C_16  and  C_17
REMARK   10  A    between atoms: C_17  and  C_18
REMARK                            x       y       z     vdW  Elec       q    Type
REMARK                         _______ _______ _______ _____ _____    ______ ____
ROOT
ATOM      1  C   UNL     1       3.486   4.400  19.550  0.00  0.00    +0.000 C 
ATOM      2  C   UNL     1       3.944   3.501  18.647  0.00  0.00    +0.000 C 
ATOM      3  N   UNL     1       5.188   3.903  18.174  0.00  0.00    +0.000 N 
ATOM      4  C   UNL     1       5.223   4.497  16.937  0.00  0.00    +0.000 C 
ATOM      5  O   UNL     1       4.821   4.165  15.851  0.00  0.00    +0.000 OA
ATOM      6  C   UNL     1       5.621   5.855  17.526  0.00  0.00    +0.000 C 
ATOM      7  C   UNL     1       5.498   5.145  18.900  0.00  0.00    +0.000 C 
ATOM      8  O   UNL     1       4.376   5.487  19.762  0.00  0.00    +0.000 OA
ENDROOT
BRANCH   1  10
ATOM      9  C   UNL     1       2.295   3.666  21.647  0.00  0.00    +0.000 C 
ATOM     10  C   UNL     1       2.170   4.471  20.341  0.00  0.00    +0.000 C 
ATOM     11  C   UNL     1       0.973   3.937  19.540  0.00  0.00    +0.000 C 
ATOM     12  C   UNL     1       1.765   5.928  20.691  0.00  0.00    +0.000 C 
ENDBRANCH   1  10
BRANCH   2  13
ATOM     13  C   UNL     1       3.278   2.238  18.002  0.00  0.00    +0.000 C 
ATOM     14  O   UNL     1       2.347   2.439  17.184  0.00  0.00    +0.000 OA
ATOM     15  O   UNL     1       3.660   1.118  18.470  0.00  0.00    +0.000 OA
ENDBRANCH   2  13
BRANCH   6  16
ATOM     16  C   UNL     1       6.982   6.393  17.108  0.00  0.00    +0.000 C 
BRANCH  16  17
ATOM     17  O   UNL     1       7.994   5.623  17.768  0.00  0.00    +0.000 OA
ATOM     18  H   UNL     1       7.895   5.752  18.729  0.00  0.00    +0.000 HD
ENDBRANCH  16  17
BRANCH  16  19
ATOM     19  C   UNL     1       7.138   7.876  17.488  0.00  0.00    +0.000 C 
BRANCH  19  20
ATOM     20  C   UNL     1       8.332   8.127  18.421  0.00  0.00    +0.000 C 
BRANCH  20  21
ATOM     21  C   UNL     1       8.679   9.596  18.528  0.00  0.00    +0.000 A 
ATOM     22  C   UNL     1       9.468  10.060  19.589  0.00  0.00    +0.000 A 
ATOM     23  C   UNL     1       9.784  11.416  19.702  0.00  0.00    +0.000 A 
ATOM     24  C   UNL     1       9.320  12.323  18.752  0.00  0.00    +0.000 A 
ATOM     25  C   UNL     1       8.534  11.875  17.692  0.00  0.00    +0.000 A 
ATOM     26  C   UNL     1       8.210  10.519  17.582  0.00  0.00    +0.000 A 
ENDBRANCH  20  21
ENDBRANCH  19  20
ENDBRANCH  16  19
ENDBRANCH   6  16
TORSDOF 7
ENDMDL
MODEL 2
REMARK VINA RESULT:      -8.0      3.924      6.927
REMARK  Name = 
REMARK  10 active torsions:
REMARK  status: ('A' for Active; 'I' for Inactive)
REMARK    1  A    between atoms: C_1  and  C_2
REMARK    2  A    between atoms: C_2  and  C_3
REMARK    3  A    between atoms: C_2  and  C_4
REMARK    4  A    between atoms: C_2  and  C_5
REMARK    5  A    between atoms: C_6  and  C_7
REMARK    6  A    between atoms: C_13  and  C_14
REMARK    7  A    between atoms: C_14  and  O_15
REMARK    8  A    between atoms: C_14  and  C_16
REMARK    9  A    between atoms: C_16  and  C_17
REMARK   10  A    between atoms: C_17  and  C_18
REMARK                            x       y       z     vdW  Elec       q    Type
REMARK                         _______ _______ _______ _____ _____    ______ ____
ROOT
ATOM      1  C   UNL     1       5.467   6.039  17.766  0.00  0.00    +0.000 C 
ATOM      2  C   UNL     1       4.432   5.191  17.971  0.00  0.00    +0.000 C 
ATOM      3  N   UNL     1       3.229   5.862  17.779  0.00  0.00    +0.000 N 
ATOM      4  C   UNL     1       2.549   6.258  18.904  0.00  0.00    +0.000 C 
ATOM      5  O   UNL     1       2.165   5.672  19.885  0.00  0.00    +0.000 OA
ATOM      6  C   UNL     1       2.791   7.742  18.609  0.00  0.00    +0.000 C 
ATOM      7  C   UNL     1       3.605   7.231  17.392  0.00  0.00    +0.000 C 
ATOM      8  O   UNL     1       5.054   7.356  17.422  0.00  0.00    +0.000 OA
ENDROOT
BRANCH   1  10
ATOM      9  C   UNL     1       7.722   7.080  17.340  0.00  0.00    +0.000 C 
ATOM     10  C   UNL     1       6.986   5.841  17.882  0.00  0.00    +0.000 C 
ATOM     11  C   UNL     1       7.477   4.600  17.121  0.00  0.00    +0.000 C 
ATOM     12  C   UNL     1       7.444   5.589  19.343  0.00  0.00    +0.000 C 
ENDBRANCH   1  10
BRANCH   2  13
ATOM     13  C   UNL     1       4.381   3.711  18.483  0.00  0.00    +0.000 C 
ATOM     14  O   UNL     1       4.942   3.467  19.579  0.00  0.00    +0.000 OA
ATOM     15  O   UNL     1       3.886   2.867  17.670  0.00  0.00    +0.000 OA
ENDBRANCH   2  13
BRANCH   6  16
ATOM     16  C   UNL     1       1.549   8.583  18.349  0.00  0.00    +0.000 C 
BRANCH  16  17
ATOM     17  O   UNL     1       1.869   9.564  17.355  0.00  0.00    +0.000 OA
ATOM     18  H   UNL     1       1.035   9.890  16.971  0.00  0.00    +0.000 HD
ENDBRANCH  16  17
BRANCH  16  19
ATOM     19  C   UNL     1       1.072   9.289  19.631  0.00  0.00    +0.000 C 
BRANCH  19  20
ATOM     20  C   UNL     1      -0.044  10.309  19.366  0.00  0.00    +0.000 C 
BRANCH  20  21
ATOM     21  C   UNL     1      -0.669  10.821  20.646  0.00  0.00    +0.000 A 
ATOM     22  C   UNL     1      -0.401  10.186  21.866  0.00  0.00    +0.000 A 
ATOM     23  C   UNL     1      -0.982  10.644  23.051  0.00  0.00    +0.000 A 
ATOM     24  C   UNL     1      -1.833  11.747  23.031  0.00  0.00    +0.000 A 
ATOM     25  C   UNL     1      -2.109  12.388  21.825  0.00  0.00    +0.000 A 
ATOM     26  C   UNL     1      -1.534  11.925  20.636  0.00  0.00    +0.000 A 
ENDBRANCH  20  21
ENDBRANCH  19  20
ENDBRANCH  16  19
ENDBRANCH   6  16
TORSDOF 7
ENDMDL
MODEL 3
REMARK VINA RESULT:      -7.9      3.932      6.953
REMARK  Name = 
REMARK  10 active torsions:
REMARK  status: ('A' for Active; 'I' for Inactive)
REMARK    1  A    between atoms: C_1  and  C_2
REMARK    2  A    between atoms: C_2  and  C_3
REMARK    3  A    between atoms: C_2  and  C_4
REMARK    4  A    between atoms: C_2  and  C_5
REMARK    5  A    between atoms: C_6  and  C_7
REMARK    6  A    between atoms: C_13  and  C_14
REMARK    7  A    between atoms: C_14  and  O_15
REMARK    8  A    between atoms: C_14  and  C_16
REMARK    9  A    between atoms: C_16  and  C_17
REMARK   10  A    between atoms: C_17  and  C_18
REMARK                            x       y       z     vdW  Elec       q    Type
REMARK                         _______ _______ _______ _____ _____    ______ ____
ROOT
ATOM      1  C   UNL     1       5.478   6.056  17.752  0.00  0.00    +0.000 C 
ATOM      2  C   UNL     1       4.445   5.205  17.957  0.00  0.00    +0.000 C 
ATOM      3  N   UNL     1       3.240   5.875  17.774  0.00  0.00    +0.000 N 
ATOM      4  C   UNL     1       2.564   6.262  18.905  0.00  0.00    +0.000 C 
ATOM      5  O   UNL     1       2.186   5.669  19.883  0.00  0.00    +0.000 OA
ATOM      6  C   UNL     1       2.803   7.749  18.618  0.00  0.00    +0.000 C 
ATOM      7  C   UNL     1       3.613   7.247  17.394  0.00  0.00    +0.000 C 
ATOM      8  O   UNL     1       5.062   7.374  17.419  0.00  0.00    +0.000 OA
ENDROOT
BRANCH   1  10
ATOM      9  C   UNL     1       7.730   7.090  17.294  0.00  0.00    +0.000 C 
ATOM     10  C   UNL     1       6.998   5.860  17.860  0.00  0.00    +0.000 C 
ATOM     11  C   UNL     1       7.483   4.607  17.115  0.00  0.00    +0.000 C 
ATOM     12  C   UNL     1       7.466   5.630  19.321  0.00  0.00    +0.000 C 
ENDBRANCH   1  10
BRANCH   2  13
ATOM     13  C   UNL     1       4.399   3.722  18.460  0.00  0.00    +0.000 C 
ATOM     14  O   UNL     1       3.741   2.905  17.769  0.00  0.00    +0.000 OA
ATOM     15  O   UNL     1       4.927   3.513  19.599  0.00  0.00    +0.000 OA
ENDBRANCH   2  13
BRANCH   6  16
ATOM     16  C   UNL     1       1.558   8.590  18.369  0.00  0.00    +0.000 C 
BRANCH  16  17
ATOM     17  O   UNL     1       1.907   9.660  17.483  0.00  0.00    +0.000 OA
ATOM     18  H   UNL     1       2.869   9.803  17.544  0.00  0.00    +0.000 HD
ENDBRANCH  16  17
BRANCH  16  19
ATOM     19  C   UNL     1       1.004   9.172  19.681  0.00  0.00    +0.000 C 
BRANCH  19  20
ATOM     20  C   UNL     1       0.269  10.505  19.475  0.00  0.00    +0.000 C 
BRANCH  20  21
ATOM     21  C   UNL     1      -0.507  10.928  20.704  0.00  0.00    +0.000 A 
ATOM     22  C   UNL     1      -1.436  11.975  20.626  0.00  0.00    +0.000 A 
ATOM     23  C   UNL     1      -2.149  12.380  21.757  0.00  0.00    +0.000 A 
ATOM     24  C   UNL     1      -1.946  11.740  22.977  0.00  0.00    +0.000 A 
ATOM     25  C   UNL     1      -1.026  10.698  23.069  0.00  0.00    +0.000 A 
ATOM     26  C   UNL     1      -0.305  10.297  21.939  0.00  0.00    +0.000 A 
ENDBRANCH  20  21
ENDBRANCH  19  20
ENDBRANCH  16  19
ENDBRANCH   6  16
TORSDOF 7
ENDMDL
MODEL 4
REMARK VINA RESULT:      -7.9      4.311      7.259
REMARK  Name = 
REMARK  10 active torsions:
REMARK  status: ('A' for Active; 'I' for Inactive)
REMARK    1  A    between atoms: C_1  and  C_2
REMARK    2  A    between atoms: C_2  and  C_3
REMARK    3  A    between atoms: C_2  and  C_4
REMARK    4  A    between atoms: C_2  and  C_5
REMARK    5  A    between atoms: C_6  and  C_7
REMARK    6  A    between atoms: C_13  and  C_14
REMARK    7  A    between atoms: C_14  and  O_15
REMARK    8  A    between atoms: C_14  and  C_16
REMARK    9  A    between atoms: C_16  and  C_17
REMARK   10  A    between atoms: C_17  and  C_18
REMARK                            x       y       z     vdW  Elec       q    Type
REMARK                         _______ _______ _______ _____ _____    ______ ____
ROOT
ATOM      1  C   UNL     1       5.377   6.090  17.775  0.00  0.00    +0.000 C 
ATOM      2  C   UNL     1       4.290   5.320  18.017  0.00  0.00    +0.000 C 
ATOM      3  N   UNL     1       3.134   6.025  17.702  0.00  0.00    +0.000 N 
ATOM      4  C   UNL     1       2.430   6.569  18.748  0.00  0.00    +0.000 C 
ATOM      5  O   UNL     1       1.976   6.108  19.764  0.00  0.00    +0.000 OA
ATOM      6  C   UNL     1       2.763   8.001  18.315  0.00  0.00    +0.000 C 
ATOM      7  C   UNL     1       3.599   7.326  17.195  0.00  0.00    +0.000 C 
ATOM      8  O   UNL     1       5.050   7.382  17.280  0.00  0.00    +0.000 OA
ENDROOT
BRANCH   1  10
ATOM      9  C   UNL     1       7.328   4.633  17.125  0.00  0.00    +0.000 C 
ATOM     10  C   UNL     1       6.878   5.831  17.981  0.00  0.00    +0.000 C 
ATOM     11  C   UNL     1       7.230   5.553  19.449  0.00  0.00    +0.000 C 
ATOM     12  C   UNL     1       7.749   7.061  17.613  0.00  0.00    +0.000 C 
ENDBRANCH   1  10
BRANCH   2  13
ATOM     13  C   UNL     1       4.139   3.906  18.675  0.00  0.00    +0.000 C 
ATOM     14  O   UNL     1       4.215   3.847  19.927  0.00  0.00    +0.000 OA
ATOM     15  O   UNL     1       4.085   2.927  17.863  0.00  0.00    +0.000 OA
ENDBRANCH   2  13
BRANCH   6  16
ATOM     16  C   UNL     1       1.580   8.870  17.912  0.00  0.00    +0.000 C 
BRANCH  16  17
ATOM     17  O   UNL     1       2.082  10.038  17.252  0.00  0.00    +0.000 OA
ATOM     18  H   UNL     1       2.759  10.444  17.826  0.00  0.00    +0.000 HD
ENDBRANCH  16  17
BRANCH  16  19
ATOM     19  C   UNL     1       0.753   9.292  19.140  0.00  0.00    +0.000 C 
BRANCH  19  20
ATOM     20  C   UNL     1       0.213  10.725  19.028  0.00  0.00    +0.000 C 
BRANCH  20  21
ATOM     21  C   UNL     1      -1.205  10.764  18.500  0.00  0.00    +0.000 A 
ATOM     22  C   UNL     1      -2.137  11.658  19.044  0.00  0.00    +0.000 A 
ATOM     23  C   UNL     1      -3.451  11.694  18.572  0.00  0.00    +0.000 A 
ATOM     24  C   UNL     1      -3.848  10.841  17.545  0.00  0.00    +0.000 A 
ATOM     25  C   UNL     1      -2.932   9.947  16.995  0.00  0.00    +0.000 A 
ATOM     26  C   UNL     1      -1.618   9.904  17.473  0.00  0.00    +0.000 A 
ENDBRANCH  20  21
ENDBRANCH  19  20
ENDBRANCH  16  19
ENDBRANCH   6  16
TORSDOF 7
ENDMDL
MODEL 5
REMARK VINA RESULT:      -7.8      0.108      1.299
REMARK  Name = 
REMARK  10 active torsions:
REMARK  status: ('A' for Active; 'I' for Inactive)
REMARK    1  A    between atoms: C_1  and  C_2
REMARK    2  A    between atoms: C_2  and  C_3
REMARK    3  A    between atoms: C_2  and  C_4
REMARK    4  A    between atoms: C_2  and  C_5
REMARK    5  A    between atoms: C_6  and  C_7
REMARK    6  A    between atoms: C_13  and  C_14
REMARK    7  A    between atoms: C_14  and  O_15
REMARK    8  A    between atoms: C_14  and  C_16
REMARK    9  A    between atoms: C_16  and  C_17
REMARK   10  A    between atoms: C_17  and  C_18
REMARK                            x       y       z     vdW  Elec       q    Type
REMARK                         _______ _______ _______ _____ _____    ______ ____
ROOT
ATOM      1  C   UNL     1       3.489   4.437  19.491  0.00  0.00    +0.000 C 
ATOM      2  C   UNL     1       3.933   3.545  18.575  0.00  0.00    +0.000 C 
ATOM      3  N   UNL     1       5.191   3.925  18.120  0.00  0.00    +0.000 N 
ATOM      4  C   UNL     1       5.252   4.542  16.895  0.00  0.00    +0.000 C 
ATOM      5  O   UNL     1       4.851   4.241  15.800  0.00  0.00    +0.000 OA
ATOM      6  C   UNL     1       5.677   5.878  17.515  0.00  0.00    +0.000 C 
ATOM      7  C   UNL     1       5.525   5.145  18.873  0.00  0.00    +0.000 C 
ATOM      8  O   UNL     1       4.405   5.498  19.732  0.00  0.00    +0.000 OA
ENDROOT
BRANCH   1  10
ATOM      9  C   UNL     1       1.012   3.974  19.419  0.00  0.00    +0.000 C 
ATOM     10  C   UNL     1       2.169   4.526  20.273  0.00  0.00    +0.000 C 
ATOM     11  C   UNL     1       1.832   5.963  20.696  0.00  0.00    +0.000 C 
ATOM     12  C   UNL     1       2.216   3.743  21.611  0.00  0.00    +0.000 C 
ENDBRANCH   1  10
BRANCH   2  13
ATOM     13  C   UNL     1       3.242   2.312  17.899  0.00  0.00    +0.000 C 
ATOM     14  O   UNL     1       2.316   2.551  17.086  0.00  0.00    +0.000 OA
ATOM     15  O   UNL     1       3.601   1.173  18.340  0.00  0.00    +0.000 OA
ENDBRANCH   2  13
BRANCH   6  16
ATOM     16  C   UNL     1       7.055   6.390  17.119  0.00  0.00    +0.000 C 
BRANCH  16  17
ATOM     17  O   UNL     1       8.040   5.639  17.839  0.00  0.00    +0.000 OA
ATOM     18  H   UNL     1       7.797   4.696  17.792  0.00  0.00    +0.000 HD
ENDBRANCH  16  17
BRANCH  16  19
ATOM     19  C   UNL     1       7.212   7.886  17.446  0.00  0.00    +0.000 C 
BRANCH  19  20
ATOM     20  C   UNL     1       8.261   8.148  18.536  0.00  0.00    +0.000 C 
BRANCH  20  21
ATOM     21  C   UNL     1       8.685   9.600  18.588  0.00  0.00    +0.000 A 
ATOM     22  C   UNL     1       8.185  10.515  17.651  0.00  0.00    +0.000 A 
ATOM     23  C   UNL     1       8.578  11.855  17.684  0.00  0.00    +0.000 A 
ATOM     24  C   UNL     1       9.472  12.297  18.656  0.00  0.00    +0.000 A 
ATOM     25  C   UNL     1       9.977  11.398  19.594  0.00  0.00    +0.000 A 
ATOM     26  C   UNL     1       9.590  10.054  19.557  0.00  0.00    +0.000 A 
ENDBRANCH  20  21
ENDBRANCH  19  20
ENDBRANCH  16  19
ENDBRANCH   6  16
TORSDOF 7
ENDMDL
MODEL 6
REMARK VINA RESULT:      -7.8      4.162      6.864
REMARK  Name = 
REMARK  10 active torsions:
REMARK  status: ('A' for Active; 'I' for Inactive)
REMARK    1  A    between atoms: C_1  and  C_2
REMARK    2  A    between atoms: C_2  and  C_3
REMARK    3  A    between atoms: C_2  and  C_4
REMARK    4  A    between atoms: C_2  and  C_5
REMARK    5  A    between atoms: C_6  and  C_7
REMARK    6  A    between atoms: C_13  and  C_14
REMARK    7  A    between atoms: C_14  and  O_15
REMARK    8  A    between atoms: C_14  and  C_16
REMARK    9  A    between atoms: C_16  and  C_17
REMARK   10  A    between atoms: C_17  and  C_18
REMARK                            x       y       z     vdW  Elec       q    Type
REMARK                         _______ _______ _______ _____ _____    ______ ____
ROOT
ATOM      1  C   UNL     1       3.134   4.105  19.113  0.00  0.00    +0.000 C 
ATOM      2  C   UNL     1       4.225   4.808  18.726  0.00  0.00    +0.000 C 
ATOM      3  N   UNL     1       4.047   6.154  19.027  0.00  0.00    +0.000 N 
ATOM      4  C   UNL     1       3.694   6.983  17.991  0.00  0.00    +0.000 C 
ATOM      5  O   UNL     1       4.175   7.199  16.907  0.00  0.00    +0.000 OA
ATOM      6  C   UNL     1       2.301   7.234  18.578  0.00  0.00    +0.000 C 
ATOM      7  C   UNL     1       2.732   6.235  19.684  0.00  0.00    +0.000 C 
ATOM      8  O   UNL     1       2.125   4.914  19.703  0.00  0.00    +0.000 OA
ENDROOT
BRANCH   1  10
ATOM      9  C   UNL     1       1.553   2.286  19.851  0.00  0.00    +0.000 C 
ATOM     10  C   UNL     1       2.784   2.614  18.987  0.00  0.00    +0.000 C 
ATOM     11  C   UNL     1       3.945   1.700  19.408  0.00  0.00    +0.000 C 
ATOM     12  C   UNL     1       2.491   2.194  17.522  0.00  0.00    +0.000 C 
ENDBRANCH   1  10
BRANCH   2  13
ATOM     13  C   UNL     1       5.508   4.390  17.931  0.00  0.00    +0.000 C 
ATOM     14  O   UNL     1       6.609   4.500  18.525  0.00  0.00    +0.000 OA
ATOM     15  O   UNL     1       5.323   4.100  16.705  0.00  0.00    +0.000 OA
ENDBRANCH   2  13
BRANCH   6  16
ATOM     16  C   UNL     1       1.992   8.670  18.978  0.00  0.00    +0.000 C 
BRANCH  16  17
ATOM     17  O   UNL     1       1.321   8.651  20.243  0.00  0.00    +0.000 OA
ATOM     18  H   UNL     1       0.817   9.481  20.332  0.00  0.00    +0.000 HD
ENDBRANCH  16  17
BRANCH  16  19
ATOM     19  C   UNL     1       1.098   9.362  17.934  0.00  0.00    +0.000 C 
BRANCH  19  20
ATOM     20  C   UNL     1       0.414  10.623  18.481  0.00  0.00    +0.000 C 
BRANCH  20  21
ATOM     21  C   UNL     1      -1.066  10.655  18.167  0.00  0.00    +0.000 A 
ATOM     22  C   UNL     1      -1.605   9.783  17.211  0.00  0.00    +0.000 A 
ATOM     23  C   UNL     1      -2.967   9.812  16.905  0.00  0.00    +0.000 A 
ATOM     24  C   UNL     1      -3.810  10.712  17.555  0.00  0.00    +0.000 A 
ATOM     25  C   UNL     1      -3.288  11.585  18.508  0.00  0.00    +0.000 A 
ATOM     26  C   UNL     1      -1.922  11.562  18.809  0.00  0.00    +0.000 A 
ENDBRANCH  20  21
ENDBRANCH  19  20
ENDBRANCH  16  19
ENDBRANCH   6  16
TORSDOF 7
ENDMDL
MODEL 7
REMARK VINA RESULT:      -7.8      4.105      6.769
REMARK  Name = 
REMARK  10 active torsions:
REMARK  status: ('A' for Active; 'I' for Inactive)
REMARK    1  A    between atoms: C_1  and  C_2
REMARK    2  A    between atoms: C_2  and  C_3
REMARK    3  A    between atoms: C_2  and  C_4
REMARK    4  A    between atoms: C_2  and  C_5
REMARK    5  A    between atoms: C_6  and  C_7
REMARK    6  A    between atoms: C_13  and  C_14
REMARK    7  A    between atoms: C_14  and  O_15
REMARK    8  A    between atoms: C_14  and  C_16
REMARK    9  A    between atoms: C_16  and  C_17
REMARK   10  A    between atoms: C_17  and  C_18
REMARK                            x       y       z     vdW  Elec       q    Type
REMARK                         _______ _______ _______ _____ _____    ______ ____
ROOT
ATOM      1  C   UNL     1       3.209   4.032  19.087  0.00  0.00    +0.000 C 
ATOM      2  C   UNL     1       4.301   4.737  18.707  0.00  0.00    +0.000 C 
ATOM      3  N   UNL     1       4.118   6.083  19.005  0.00  0.00    +0.000 N 
ATOM      4  C   UNL     1       3.770   6.910  17.966  0.00  0.00    +0.000 C 
ATOM      5  O   UNL     1       4.258   7.127  16.886  0.00  0.00    +0.000 OA
ATOM      6  C   UNL     1       2.372   7.159  18.544  0.00  0.00    +0.000 C 
ATOM      7  C   UNL     1       2.799   6.162  19.653  0.00  0.00    +0.000 C 
ATOM      8  O   UNL     1       2.194   4.838  19.670  0.00  0.00    +0.000 OA
ENDROOT
BRANCH   1  10
ATOM      9  C   UNL     1       2.542   2.196  17.493  0.00  0.00    +0.000 C 
ATOM     10  C   UNL     1       2.863   2.540  18.959  0.00  0.00    +0.000 C 
ATOM     11  C   UNL     1       1.669   2.137  19.836  0.00  0.00    +0.000 C 
ATOM     12  C   UNL     1       4.013   1.619  19.446  0.00  0.00    +0.000 C 
ENDBRANCH   1  10
BRANCH   2  13
ATOM     13  C   UNL     1       5.590   4.321  17.920  0.00  0.00    +0.000 C 
ATOM     14  O   UNL     1       6.688   4.449  18.515  0.00  0.00    +0.000 OA
ATOM     15  O   UNL     1       5.411   4.015  16.697  0.00  0.00    +0.000 OA
ENDBRANCH   2  13
BRANCH   6  16
ATOM     16  C   UNL     1       2.058   8.594  18.941  0.00  0.00    +0.000 C 
BRANCH  16  17
ATOM     17  O   UNL     1       1.361   8.573  20.192  0.00  0.00    +0.000 OA
ATOM     18  H   UNL     1       0.694   9.284  20.180  0.00  0.00    +0.000 HD
ENDBRANCH  16  17
BRANCH  16  19
ATOM     19  C   UNL     1       1.186   9.290  17.880  0.00  0.00    +0.000 C 
BRANCH  19  20
ATOM     20  C   UNL     1       0.583  10.610  18.382  0.00  0.00    +0.000 C 
BRANCH  20  21
ATOM     21  C   UNL     1      -0.917  10.666  18.187  0.00  0.00    +0.000 A 
ATOM     22  C   UNL     1      -1.693  11.563  18.933  0.00  0.00    +0.000 A 
ATOM     23  C   UNL     1      -3.079  11.614  18.769  0.00  0.00    +0.000 A 
ATOM     24  C   UNL     1      -3.706  10.772  17.853  0.00  0.00    +0.000 A 
ATOM     25  C   UNL     1      -2.946   9.875  17.105  0.00  0.00    +0.000 A 
ATOM     26  C   UNL     1      -1.559   9.817  17.274  0.00  0.00    +0.000 A 
ENDBRANCH  20  21
ENDBRANCH  19  20
ENDBRANCH  16  19
ENDBRANCH   6  16
TORSDOF 7
ENDMDL
MODEL 8
REMARK VINA RESULT:      -7.8      4.413      7.087
REMARK  Name = 
REMARK  10 active torsions:
REMARK  status: ('A' for Active; 'I' for Inactive)
REMARK    1  A    between atoms: C_1  and  C_2
REMARK    2  A    between atoms: C_2  and  C_3
REMARK    3  A    between atoms: C_2  and  C_4
REMARK    4  A    between atoms: C_2  and  C_5
REMARK    5  A    between atoms: C_6  and  C_7
REMARK    6  A    between atoms: C_13  and  C_14
REMARK    7  A    between atoms: C_14  and  O_15
REMARK    8  A    between atoms: C_14  and  C_16
REMARK    9  A    between atoms: C_16  and  C_17
REMARK   10  A    between atoms: C_17  and  C_18
REMARK                            x       y       z     vdW  Elec       q    Type
REMARK                         _______ _______ _______ _____ _____    ______ ____
ROOT
ATOM      1  C   UNL     1       2.930   4.354  19.097  0.00  0.00    +0.000 C 
ATOM      2  C   UNL     1       4.049   5.036  18.756  0.00  0.00    +0.000 C 
ATOM      3  N   UNL     1       3.866   6.392  19.006  0.00  0.00    +0.000 N 
ATOM      4  C   UNL     1       3.585   7.192  17.926  0.00  0.00    +0.000 C 
ATOM      5  O   UNL     1       4.132   7.371  16.867  0.00  0.00    +0.000 OA
ATOM      6  C   UNL     1       2.161   7.472  18.419  0.00  0.00    +0.000 C 
ATOM      7  C   UNL     1       2.515   6.503  19.579  0.00  0.00    +0.000 C 
ATOM      8  O   UNL     1       1.895   5.188  19.600  0.00  0.00    +0.000 OA
ENDROOT
BRANCH   1  10
ATOM      9  C   UNL     1       2.291   2.487  17.527  0.00  0.00    +0.000 C 
ATOM     10  C   UNL     1       2.573   2.862  18.994  0.00  0.00    +0.000 C 
ATOM     11  C   UNL     1       1.351   2.490  19.846  0.00  0.00    +0.000 C 
ATOM     12  C   UNL     1       3.700   1.943  19.535  0.00  0.00    +0.000 C 
ENDBRANCH   1  10
BRANCH   2  13
ATOM     13  C   UNL     1       5.373   4.584  18.053  0.00  0.00    +0.000 C 
ATOM     14  O   UNL     1       5.289   4.229  16.852  0.00  0.00    +0.000 OA
ATOM     15  O   UNL     1       6.392   4.493  18.810  0.00  0.00    +0.000 OA
ENDBRANCH   2  13
BRANCH   6  16
ATOM     16  C   UNL     1       1.843   8.922  18.757  0.00  0.00    +0.000 C 
BRANCH  16  17
ATOM     17  O   UNL     1       1.499   8.996  20.146  0.00  0.00    +0.000 OA
ATOM     18  H   UNL     1       2.300   8.807  20.668  0.00  0.00    +0.000 HD
ENDBRANCH  16  17
BRANCH  16  19
ATOM     19  C   UNL     1       0.671   9.449  17.910  0.00  0.00    +0.000 C 
BRANCH  19  20
ATOM     20  C   UNL     1      -0.467  10.025  18.766  0.00  0.00    +0.000 C 
BRANCH  20  21
ATOM     21  C   UNL     1      -1.696  10.346  17.944  0.00  0.00    +0.000 A 
ATOM     22  C   UNL     1      -1.915   9.703  16.719  0.00  0.00    +0.000 A 
ATOM     23  C   UNL     1      -3.041  10.001  15.947  0.00  0.00    +0.000 A 
ATOM     24  C   UNL     1      -3.965  10.942  16.395  0.00  0.00    +0.000 A 
ATOM     25  C   UNL     1      -3.761  11.589  17.612  0.00  0.00    +0.000 A 
ATOM     26  C   UNL     1      -2.629  11.298  18.381  0.00  0.00    +0.000 A 
ENDBRANCH  20  21
ENDBRANCH  19  20
ENDBRANCH  16  19
ENDBRANCH   6  16
TORSDOF 7
ENDMDL
MODEL 9
REMARK VINA RESULT:      -7.7      3.983      6.979
REMARK  Name = 
REMARK  10 active torsions:
REMARK  status: ('A' for Active; 'I' for Inactive)
REMARK    1  A    between atoms: C_1  and  C_2
REMARK    2  A    between atoms: C_2  and  C_3
REMARK    3  A    between atoms: C_2  and  C_4
REMARK    4  A    between atoms: C_2  and  C_5
REMARK    5  A    between atoms: C_6  and  C_7
REMARK    6  A    between atoms: C_13  and  C_14
REMARK    7  A    between atoms: C_14  and  O_15
REMARK    8  A    between atoms: C_14  and  C_16
REMARK    9  A    between atoms: C_16  and  C_17
REMARK   10  A    between atoms: C_17  and  C_18
REMARK                            x       y       z     vdW  Elec       q    Type
REMARK                         _______ _______ _______ _____ _____    ______ ____
ROOT
ATOM      1  C   UNL     1       5.387   6.043  17.758  0.00  0.00    +0.000 C 
ATOM      2  C   UNL     1       4.325   5.229  17.964  0.00  0.00    +0.000 C 
ATOM      3  N   UNL     1       3.145   5.934  17.753  0.00  0.00    +0.000 N 
ATOM      4  C   UNL     1       2.467   6.364  18.867  0.00  0.00    +0.000 C 
ATOM      5  O   UNL     1       2.058   5.801  19.852  0.00  0.00    +0.000 OA
ATOM      6  C   UNL     1       2.756   7.836  18.557  0.00  0.00    +0.000 C 
ATOM      7  C   UNL     1       3.565   7.286  17.353  0.00  0.00    +0.000 C 
ATOM      8  O   UNL     1       5.017   7.367  17.395  0.00  0.00    +0.000 OA
ENDROOT
BRANCH   1  10
ATOM      9  C   UNL     1       7.273   5.589  19.367  0.00  0.00    +0.000 C 
ATOM     10  C   UNL     1       6.899   5.801  17.889  0.00  0.00    +0.000 C 
ATOM     11  C   UNL     1       7.731   6.964  17.328  0.00  0.00    +0.000 C 
ATOM     12  C   UNL     1       7.377   4.571  17.073  0.00  0.00    +0.000 C 
ENDBRANCH   1  10
BRANCH   2  13
ATOM     13  C   UNL     1       4.225   3.758  18.493  0.00  0.00    +0.000 C 
ATOM     14  O   UNL     1       4.487   3.569  19.706  0.00  0.00    +0.000 OA
ATOM     15  O   UNL     1       4.015   2.870  17.606  0.00  0.00    +0.000 OA
ENDBRANCH   2  13
BRANCH   6  16
ATOM     16  C   UNL     1       1.543   8.711  18.276  0.00  0.00    +0.000 C 
BRANCH  16  17
ATOM     17  O   UNL     1       1.920   9.712  17.323  0.00  0.00    +0.000 OA
ATOM     18  H   UNL     1       1.579   9.444  16.450  0.00  0.00    +0.000 HD
ENDBRANCH  16  17
BRANCH  16  19
ATOM     19  C   UNL     1       1.034   9.392  19.560  0.00  0.00    +0.000 C 
BRANCH  19  20
ATOM     20  C   UNL     1      -0.299  10.125  19.354  0.00  0.00    +0.000 C 
BRANCH  20  21
ATOM     21  C   UNL     1      -0.792  10.787  20.622  0.00  0.00    +0.000 A 
ATOM     22  C   UNL     1      -1.475  12.009  20.562  0.00  0.00    +0.000 A 
ATOM     23  C   UNL     1      -1.924  12.634  21.728  0.00  0.00    +0.000 A 
ATOM     24  C   UNL     1      -1.700  12.041  22.968  0.00  0.00    +0.000 A 
ATOM     25  C   UNL     1      -1.021  10.826  23.043  0.00  0.00    +0.000 A 
ATOM     26  C   UNL     1      -0.564  10.204  21.877  0.00  0.00    +0.000 A 
ENDBRANCH  20  21
ENDBRANCH  19  20
ENDBRANCH  16  19
ENDBRANCH   6  16
TORSDOF 7
ENDMDL
