MODEL 1
REMARK VINA RESULT:      -8.1      0.000      0.000
REMARK  Name = 
REMARK  14 active torsions:
REMARK  status: ('A' for Active; 'I' for Inactive)
REMARK    1  A    between atoms: C_1  and  O_2
REMARK    2  A    between atoms: O_2  and  C_3
REMARK    3  A    between atoms: C_6  and  C_7
REMARK    4  A    between atoms: C_7  and  C_9
REMARK    5  A    between atoms: C_11  and  O_12
REMARK    6  A    between atoms: O_12  and  C_13
REMARK    7  A    between atoms: C_14  and  O_15
REMARK    8  A    between atoms: O_15  and  C_16
REMARK    9  A    between atoms: C_17  and  O_18
REMARK   10  A    between atoms: O_18  and  C_19
REMARK   11  A    between atoms: C_22  and  O_23
REMARK   12  A    between atoms: O_23  and  C_24
REMARK   13  A    between atoms: C_24  and  C_25
REMARK   14  A    between atoms: C_28  and  N_29
REMARK                            x       y       z     vdW  Elec       q    Type
REMARK                         _______ _______ _______ _____ _____    ______ ____
ROOT
ATOM      1  C   UNL     1       2.103   4.148  19.687  0.00  0.00    +0.000 A 
ATOM      2  C   UNL     1       1.846   5.162  20.629  0.00  0.00    +0.000 A 
ATOM      3  C   UNL     1       1.895   6.513  20.285  0.00  0.00    +0.000 A 
ATOM      4  C   UNL     1       2.147   6.868  18.966  0.00  0.00    +0.000 A 
ATOM      5  C   UNL     1       2.423   5.867  18.029  0.00  0.00    +0.000 A 
ATOM      6  C   UNL     1       2.430   4.503  18.370  0.00  0.00    +0.000 A 
ENDROOT
BRANCH   1   8
ATOM      7  C   UNL     1       1.550   2.773  21.581  0.00  0.00    +0.000 C 
ATOM      8  O   UNL     1       1.962   2.903  20.232  0.00  0.00    +0.000 OA
ENDBRANCH   1   8
BRANCH   4   9
ATOM      9  C   UNL     1       2.184   8.301  18.574  0.00  0.00    +0.000 C 
ATOM     10  O   UNL     1       3.049   8.685  17.794  0.00  0.00    +0.000 OA
BRANCH   9  11
ATOM     11  C   UNL     1       1.158   9.264  19.066  0.00  0.00    +0.000 A 
ATOM     12  C   UNL     1       0.218   9.741  18.158  0.00  0.00    +0.000 A 
ATOM     13  C   UNL     1      -0.792  10.609  18.582  0.00  0.00    +0.000 A 
ATOM     14  C   UNL     1      -0.847  11.029  19.934  0.00  0.00    +0.000 A 
ATOM     15  C   UNL     1       0.120  10.562  20.850  0.00  0.00    +0.000 A 
ATOM     16  C   UNL     1       1.122   9.692  20.399  0.00  0.00    +0.000 A 
BRANCH  13  17
ATOM     17  O   UNL     1      -1.757  11.102  17.736  0.00  0.00    +0.000 OA
ATOM     18  C   UNL     1      -2.632  10.142  17.150  0.00  0.00    +0.000 C 
ENDBRANCH  13  17
BRANCH  14  19
ATOM     19  O   UNL     1      -1.834  11.947  20.216  0.00  0.00    +0.000 OA
ATOM     20  C   UNL     1      -1.465  13.319  20.263  0.00  0.00    +0.000 C 
ENDBRANCH  14  19
BRANCH  15  21
ATOM     21  O   UNL     1       0.056  11.009  22.143  0.00  0.00    +0.000 OA
ATOM     22  C   UNL     1      -0.746  10.290  23.073  0.00  0.00    +0.000 C 
ENDBRANCH  15  21
ENDBRANCH   9  11
ENDBRANCH   4   9
BRANCH   6  23
ATOM     23  O   UNL     1       2.742   3.535  17.436  0.00  0.00    +0.000 OA
BRANCH  23  24
ATOM     24  C   UNL     1       4.067   2.998  17.576  0.00  0.00    +0.000 C 
BRANCH  24  25
ATOM     25  C   UNL     1       5.084   4.038  17.307  0.00  0.00    +0.000 A 
ATOM     26  C   UNL     1       5.536   4.725  16.200  0.00  0.00    +0.000 A 
ATOM     27  C   UNL     1       6.569   5.586  16.650  0.00  0.00    +0.000 A 
ATOM     28  C   UNL     1       6.671   5.367  18.005  0.00  0.00    +0.000 A 
ATOM     29  O   UNL     1       5.772   4.442  18.421  0.00  0.00    +0.000 OA
BRANCH  28  30
ATOM     30  N   UNL     1       7.529   5.923  19.001  0.00  0.00    +0.000 N 
ATOM     31  O   UNL     1       8.157   6.939  18.682  0.00  0.00    +0.000 OA
ATOM     32  O   UNL     1       7.581   5.350  20.095  0.00  0.00    +0.000 OA
ENDBRANCH  28  30
ENDBRANCH  24  25
ENDBRANCH  23  24
ENDBRANCH   6  23
TORSDOF 10
ENDMDL
MODEL 2
REMARK VINA RESULT:      -7.8      1.397      2.659
REMARK  Name = 
REMARK  14 active torsions:
REMARK  status: ('A' for Active; 'I' for Inactive)
REMARK    1  A    between atoms: C_1  and  O_2
REMARK    2  A    between atoms: O_2  and  C_3
REMARK    3  A    between atoms: C_6  and  C_7
REMARK    4  A    between atoms: C_7  and  C_9
REMARK    5  A    between atoms: C_11  and  O_12
REMARK    6  A    between atoms: O_12  and  C_13
REMARK    7  A    between atoms: C_14  and  O_15
REMARK    8  A    between atoms: O_15  and  C_16
REMARK    9  A    between atoms: C_17  and  O_18
REMARK   10  A    between atoms: O_18  and  C_19
REMARK   11  A    between atoms: C_22  and  O_23
REMARK   12  A    between atoms: O_23  and  C_24
REMARK   13  A    between atoms: C_24  and  C_25
REMARK   14  A    between atoms: C_28  and  N_29
REMARK                            x       y       z     vdW  Elec       q    Type
REMARK                         _______ _______ _______ _____ _____    ______ ____
ROOT
ATOM      1  C   UNL     1       1.571   4.059  19.765  0.00  0.00    +0.000 A 
ATOM      2  C   UNL     1       1.531   5.077  20.737  0.00  0.00    +0.000 A 
ATOM      3  C   UNL     1       1.724   6.418  20.405  0.00  0.00    +0.000 A 
ATOM      4  C   UNL     1       1.905   6.766  19.073  0.00  0.00    +0.000 A 
ATOM      5  C   UNL     1       1.966   5.760  18.104  0.00  0.00    +0.000 A 
ATOM      6  C   UNL     1       1.825   4.398  18.428  0.00  0.00    +0.000 A 
ENDROOT
BRANCH   1   8
ATOM      7  C   UNL     1       1.809   2.522  21.599  0.00  0.00    +0.000 C 
ATOM      8  O   UNL     1       1.317   2.831  20.307  0.00  0.00    +0.000 OA
ENDBRANCH   1   8
BRANCH   4   9
ATOM      9  C   UNL     1       2.093   8.191  18.694  0.00  0.00    +0.000 C 
ATOM     10  O   UNL     1       3.026   8.496  17.958  0.00  0.00    +0.000 OA
BRANCH   9  11
ATOM     11  C   UNL     1       1.140   9.244  19.147  0.00  0.00    +0.000 A 
ATOM     12  C   UNL     1       1.066   9.521  20.509  0.00  0.00    +0.000 A 
ATOM     13  C   UNL     1       0.222  10.531  20.976  0.00  0.00    +0.000 A 
ATOM     14  C   UNL     1      -0.584  11.261  20.068  0.00  0.00    +0.000 A 
ATOM     15  C   UNL     1      -0.526  10.965  18.690  0.00  0.00    +0.000 A 
ATOM     16  C   UNL     1       0.330   9.947  18.247  0.00  0.00    +0.000 A 
BRANCH  13  17
ATOM     17  O   UNL     1       0.117  10.861  22.308  0.00  0.00    +0.000 OA
ATOM     18  C   UNL     1      -0.273   9.810  23.187  0.00  0.00    +0.000 C 
ENDBRANCH  13  17
BRANCH  14  19
ATOM     19  O   UNL     1      -1.435  12.173  20.652  0.00  0.00    +0.000 OA
ATOM     20  C   UNL     1      -1.064  13.544  20.609  0.00  0.00    +0.000 C 
ENDBRANCH  14  19
BRANCH  15  21
ATOM     21  O   UNL     1      -1.338  11.670  17.841  0.00  0.00    +0.000 OA
ATOM     22  C   UNL     1      -2.390  10.981  17.176  0.00  0.00    +0.000 C 
ENDBRANCH  15  21
ENDBRANCH   9  11
ENDBRANCH   4   9
BRANCH   6  23
ATOM     23  O   UNL     1       1.926   3.420  17.460  0.00  0.00    +0.000 OA
BRANCH  23  24
ATOM     24  C   UNL     1       3.123   2.630  17.554  0.00  0.00    +0.000 C 
BRANCH  24  25
ATOM     25  C   UNL     1       4.315   3.498  17.671  0.00  0.00    +0.000 A 
ATOM     26  C   UNL     1       5.195   3.850  18.673  0.00  0.00    +0.000 A 
ATOM     27  C   UNL     1       6.119   4.760  18.100  0.00  0.00    +0.000 A 
ATOM     28  C   UNL     1       5.740   4.895  16.783  0.00  0.00    +0.000 A 
ATOM     29  O   UNL     1       4.658   4.130  16.505  0.00  0.00    +0.000 OA
BRANCH  28  30
ATOM     30  N   UNL     1       6.270   5.674  15.712  0.00  0.00    +0.000 N 
ATOM     31  O   UNL     1       5.505   6.499  15.198  0.00  0.00    +0.000 OA
ATOM     32  O   UNL     1       7.442   5.466  15.379  0.00  0.00    +0.000 OA
ENDBRANCH  28  30
ENDBRANCH  24  25
ENDBRANCH  23  24
ENDBRANCH   6  23
TORSDOF 10
ENDMDL
MODEL 3
REMARK VINA RESULT:      -7.7      1.685      1.978
REMARK  Name = 
REMARK  14 active torsions:
REMARK  status: ('A' for Active; 'I' for Inactive)
REMARK    1  A    between atoms: C_1  and  O_2
REMARK    2  A    between atoms: O_2  and  C_3
REMARK    3  A    between atoms: C_6  and  C_7
REMARK    4  A    between atoms: C_7  and  C_9
REMARK    5  A    between atoms: C_11  and  O_12
REMARK    6  A    between atoms: O_12  and  C_13
REMARK    7  A    between atoms: C_14  and  O_15
REMARK    8  A    between atoms: O_15  and  C_16
REMARK    9  A    between atoms: C_17  and  O_18
REMARK   10  A    between atoms: O_18  and  C_19
REMARK   11  A    between atoms: C_22  and  O_23
REMARK   12  A    between atoms: O_23  and  C_24
REMARK   13  A    between atoms: C_24  and  C_25
REMARK   14  A    between atoms: C_28  and  N_29
REMARK                            x       y       z     vdW  Elec       q    Type
REMARK                         _______ _______ _______ _____ _____    ______ ____
ROOT
ATOM      1  C   UNL     1       2.187   4.456  19.606  0.00  0.00    +0.000 A 
ATOM      2  C   UNL     1       1.859   5.458  20.538  0.00  0.00    +0.000 A 
ATOM      3  C   UNL     1       1.833   6.808  20.186  0.00  0.00    +0.000 A 
ATOM      4  C   UNL     1       2.083   7.169  18.868  0.00  0.00    +0.000 A 
ATOM      5  C   UNL     1       2.428   6.181  17.941  0.00  0.00    +0.000 A 
ATOM      6  C   UNL     1       2.510   4.821  18.291  0.00  0.00    +0.000 A 
ENDROOT
BRANCH   1   8
ATOM      7  C   UNL     1       3.071   2.809  21.118  0.00  0.00    +0.000 C 
ATOM      8  O   UNL     1       2.111   3.207  20.157  0.00  0.00    +0.000 OA
ENDBRANCH   1   8
BRANCH   4   9
ATOM      9  C   UNL     1       2.041   8.600  18.467  0.00  0.00    +0.000 C 
ATOM     10  O   UNL     1       2.855   9.015  17.649  0.00  0.00    +0.000 OA
BRANCH   9  11
ATOM     11  C   UNL     1       0.996   9.522  18.997  0.00  0.00    +0.000 A 
ATOM     12  C   UNL     1       0.007   9.963  18.123  0.00  0.00    +0.000 A 
ATOM     13  C   UNL     1      -1.020  10.791  18.585  0.00  0.00    +0.000 A 
ATOM     14  C   UNL     1      -1.045  11.206  19.938  0.00  0.00    +0.000 A 
ATOM     15  C   UNL     1      -0.030  10.776  20.819  0.00  0.00    +0.000 A 
ATOM     16  C   UNL     1       0.989   9.946  20.332  0.00  0.00    +0.000 A 
BRANCH  13  17
ATOM     17  O   UNL     1      -2.033  11.247  17.773  0.00  0.00    +0.000 OA
ATOM     18  C   UNL     1      -3.014  10.288  17.390  0.00  0.00    +0.000 C 
ENDBRANCH  13  17
BRANCH  14  19
ATOM     19  O   UNL     1      -2.057  12.084  20.257  0.00  0.00    +0.000 OA
ATOM     20  C   UNL     1      -1.751  13.472  20.252  0.00  0.00    +0.000 C 
ENDBRANCH  14  19
BRANCH  15  21
ATOM     21  O   UNL     1      -0.067  11.217  22.116  0.00  0.00    +0.000 OA
ATOM     22  C   UNL     1      -0.676  10.390  23.100  0.00  0.00    +0.000 C 
ENDBRANCH  15  21
ENDBRANCH   9  11
ENDBRANCH   4   9
BRANCH   6  23
ATOM     23  O   UNL     1       2.890   3.868  17.368  0.00  0.00    +0.000 OA
BRANCH  23  24
ATOM     24  C   UNL     1       4.185   3.298  17.620  0.00  0.00    +0.000 C 
BRANCH  24  25
ATOM     25  C   UNL     1       5.254   4.182  17.109  0.00  0.00    +0.000 A 
ATOM     26  C   UNL     1       6.033   5.199  17.619  0.00  0.00    +0.000 A 
ATOM     27  C   UNL     1       6.867   5.642  16.561  0.00  0.00    +0.000 A 
ATOM     28  C   UNL     1       6.543   4.856  15.479  0.00  0.00    +0.000 A 
ATOM     29  O   UNL     1       5.577   3.961  15.796  0.00  0.00    +0.000 OA
BRANCH  28  30
ATOM     30  N   UNL     1       7.028   4.831  14.137  0.00  0.00    +0.000 N 
ATOM     31  O   UNL     1       6.483   4.031  13.368  0.00  0.00    +0.000 OA
ATOM     32  O   UNL     1       7.950   5.601  13.848  0.00  0.00    +0.000 OA
ENDBRANCH  28  30
ENDBRANCH  24  25
ENDBRANCH  23  24
ENDBRANCH   6  23
TORSDOF 10
ENDMDL
MODEL 4
REMARK VINA RESULT:      -7.7      2.092      3.017
REMARK  Name = 
REMARK  14 active torsions:
REMARK  status: ('A' for Active; 'I' for Inactive)
REMARK    1  A    between atoms: C_1  and  O_2
REMARK    2  A    between atoms: O_2  and  C_3
REMARK    3  A    between atoms: C_6  and  C_7
REMARK    4  A    between atoms: C_7  and  C_9
REMARK    5  A    between atoms: C_11  and  O_12
REMARK    6  A    between atoms: O_12  and  C_13
REMARK    7  A    between atoms: C_14  and  O_15
REMARK    8  A    between atoms: O_15  and  C_16
REMARK    9  A    between atoms: C_17  and  O_18
REMARK   10  A    between atoms: O_18  and  C_19
REMARK   11  A    between atoms: C_22  and  O_23
REMARK   12  A    between atoms: O_23  and  C_24
REMARK   13  A    between atoms: C_24  and  C_25
REMARK   14  A    between atoms: C_28  and  N_29
REMARK                            x       y       z     vdW  Elec       q    Type
REMARK                         _______ _______ _______ _____ _____    ______ ____
ROOT
ATOM      1  C   UNL     1       2.273   5.052  20.448  0.00  0.00    +0.000 A 
ATOM      2  C   UNL     1       1.800   6.275  20.960  0.00  0.00    +0.000 A 
ATOM      3  C   UNL     1       1.757   7.431  20.178  0.00  0.00    +0.000 A 
ATOM      4  C   UNL     1       2.137   7.360  18.844  0.00  0.00    +0.000 A 
ATOM      5  C   UNL     1       2.626   6.154  18.334  0.00  0.00    +0.000 A 
ATOM      6  C   UNL     1       2.726   4.993  19.122  0.00  0.00    +0.000 A 
ENDROOT
BRANCH   1   8
ATOM      7  C   UNL     1       1.279   2.984  21.168  0.00  0.00    +0.000 C 
ATOM      8  O   UNL     1       2.188   4.050  21.373  0.00  0.00    +0.000 OA
ENDBRANCH   1   8
BRANCH   4   9
ATOM      9  C   UNL     1       2.080   8.575  17.989  0.00  0.00    +0.000 C 
ATOM     10  O   UNL     1       2.849   8.672  17.038  0.00  0.00    +0.000 OA
BRANCH   9  11
ATOM     11  C   UNL     1       1.072   9.646  18.232  0.00  0.00    +0.000 A 
ATOM     12  C   UNL     1       1.505  10.834  18.814  0.00  0.00    +0.000 A 
ATOM     13  C   UNL     1       0.607  11.884  19.019  0.00  0.00    +0.000 A 
ATOM     14  C   UNL     1      -0.755  11.736  18.659  0.00  0.00    +0.000 A 
ATOM     15  C   UNL     1      -1.198  10.523  18.089  0.00  0.00    +0.000 A 
ATOM     16  C   UNL     1      -0.277   9.485  17.894  0.00  0.00    +0.000 A 
BRANCH  13  17
ATOM     17  O   UNL     1       0.977  13.086  19.576  0.00  0.00    +0.000 OA
ATOM     18  C   UNL     1       2.344  13.457  19.422  0.00  0.00    +0.000 C 
ENDBRANCH  13  17
BRANCH  14  19
ATOM     19  O   UNL     1      -1.560  12.805  18.984  0.00  0.00    +0.000 OA
ATOM     20  C   UNL     1      -2.329  12.715  20.176  0.00  0.00    +0.000 C 
ENDBRANCH  14  19
BRANCH  15  21
ATOM     21  O   UNL     1      -2.527  10.400  17.778  0.00  0.00    +0.000 OA
ATOM     22  C   UNL     1      -2.890  10.160  16.424  0.00  0.00    +0.000 C 
ENDBRANCH  15  21
ENDBRANCH   9  11
ENDBRANCH   4   9
BRANCH   6  23
ATOM     23  O   UNL     1       3.247   3.823  18.607  0.00  0.00    +0.000 OA
BRANCH  23  24
ATOM     24  C   UNL     1       3.481   3.866  17.190  0.00  0.00    +0.000 C 
BRANCH  24  25
ATOM     25  C   UNL     1       4.900   4.165  16.903  0.00  0.00    +0.000 A 
ATOM     26  C   UNL     1       6.041   4.385  17.647  0.00  0.00    +0.000 A 
ATOM     27  C   UNL     1       7.085   4.643  16.722  0.00  0.00    +0.000 A 
ATOM     28  C   UNL     1       6.507   4.555  15.476  0.00  0.00    +0.000 A 
ATOM     29  O   UNL     1       5.190   4.256  15.567  0.00  0.00    +0.000 OA
BRANCH  28  30
ATOM     30  N   UNL     1       7.040   4.724  14.163  0.00  0.00    +0.000 N 
ATOM     31  O   UNL     1       7.943   5.559  14.036  0.00  0.00    +0.000 OA
ATOM     32  O   UNL     1       6.560   4.032  13.258  0.00  0.00    +0.000 OA
ENDBRANCH  28  30
ENDBRANCH  24  25
ENDBRANCH  23  24
ENDBRANCH   6  23
TORSDOF 10
ENDMDL
MODEL 5
REMARK VINA RESULT:      -7.7      2.420      3.495
REMARK  Name = 
REMARK  14 active torsions:
REMARK  status: ('A' for Active; 'I' for Inactive)
REMARK    1  A    between atoms: C_1  and  O_2
REMARK    2  A    between atoms: O_2  and  C_3
REMARK    3  A    between atoms: C_6  and  C_7
REMARK    4  A    between atoms: C_7  and  C_9
REMARK    5  A    between atoms: C_11  and  O_12
REMARK    6  A    between atoms: O_12  and  C_13
REMARK    7  A    between atoms: C_14  and  O_15
REMARK    8  A    between atoms: O_15  and  C_16
REMARK    9  A    between atoms: C_17  and  O_18
REMARK   10  A    between atoms: O_18  and  C_19
REMARK   11  A    between atoms: C_22  and  O_23
REMARK   12  A    between atoms: O_23  and  C_24
REMARK   13  A    between atoms: C_24  and  C_25
REMARK   14  A    between atoms: C_28  and  N_29
REMARK                            x       y       z     vdW  Elec       q    Type
REMARK                         _______ _______ _______ _____ _____    ______ ____
ROOT
ATOM      1  C   UNL     1       2.462   6.904  19.392  0.00  0.00    +0.000 A 
ATOM      2  C   UNL     1       1.695   7.512  20.404  0.00  0.00    +0.000 A 
ATOM      3  C   UNL     1       1.175   8.799  20.258  0.00  0.00    +0.000 A 
ATOM      4  C   UNL     1       1.370   9.476  19.062  0.00  0.00    +0.000 A 
ATOM      5  C   UNL     1       2.147   8.887  18.060  0.00  0.00    +0.000 A 
ATOM      6  C   UNL     1       2.723   7.612  18.211  0.00  0.00    +0.000 A 
ENDROOT
BRANCH   1   8
ATOM      7  C   UNL     1       2.255   5.018  20.870  0.00  0.00    +0.000 C 
ATOM      8  O   UNL     1       2.833   5.633  19.733  0.00  0.00    +0.000 OA
ENDBRANCH   1   8
BRANCH   4   9
ATOM      9  C   UNL     1       0.808  10.840  18.878  0.00  0.00    +0.000 C 
ATOM     10  O   UNL     1       1.568  11.803  18.866  0.00  0.00    +0.000 OA
BRANCH   9  11
ATOM     11  C   UNL     1      -0.650  11.051  18.652  0.00  0.00    +0.000 A 
ATOM     12  C   UNL     1      -1.263  10.345  17.620  0.00  0.00    +0.000 A 
ATOM     13  C   UNL     1      -2.636  10.474  17.399  0.00  0.00    +0.000 A 
ATOM     14  C   UNL     1      -3.408  11.345  18.207  0.00  0.00    +0.000 A 
ATOM     15  C   UNL     1      -2.782  12.078  19.238  0.00  0.00    +0.000 A 
ATOM     16  C   UNL     1      -1.403  11.930  19.439  0.00  0.00    +0.000 A 
BRANCH  13  17
ATOM     17  O   UNL     1      -3.301   9.792  16.406  0.00  0.00    +0.000 OA
ATOM     18  C   UNL     1      -2.909  10.088  15.069  0.00  0.00    +0.000 C 
ENDBRANCH  13  17
BRANCH  14  19
ATOM     19  O   UNL     1      -4.731  11.453  17.843  0.00  0.00    +0.000 OA
ATOM     20  C   UNL     1      -5.678  10.671  18.558  0.00  0.00    +0.000 C 
ENDBRANCH  14  19
BRANCH  15  21
ATOM     21  O   UNL     1      -3.550  12.933  19.983  0.00  0.00    +0.000 OA
ATOM     22  C   UNL     1      -3.796  12.615  21.348  0.00  0.00    +0.000 C 
ENDBRANCH  15  21
ENDBRANCH   9  11
ENDBRANCH   4   9
BRANCH   6  23
ATOM     23  O   UNL     1       3.518   7.066  17.223  0.00  0.00    +0.000 OA
BRANCH  23  24
ATOM     24  C   UNL     1       4.926   7.240  17.447  0.00  0.00    +0.000 C 
BRANCH  24  25
ATOM     25  C   UNL     1       5.684   6.077  16.940  0.00  0.00    +0.000 A 
ATOM     26  C   UNL     1       6.185   4.907  17.471  0.00  0.00    +0.000 A 
ATOM     27  C   UNL     1       6.844   4.230  16.413  0.00  0.00    +0.000 A 
ATOM     28  C   UNL     1       6.692   5.034  15.306  0.00  0.00    +0.000 A 
ATOM     29  O   UNL     1       5.984   6.149  15.604  0.00  0.00    +0.000 OA
BRANCH  28  30
ATOM     30  N   UNL     1       7.140   4.897  13.958  0.00  0.00    +0.000 N 
ATOM     31  O   UNL     1       6.578   4.033  13.275  0.00  0.00    +0.000 OA
ATOM     32  O   UNL     1       8.049   5.644  13.580  0.00  0.00    +0.000 OA
ENDBRANCH  28  30
ENDBRANCH  24  25
ENDBRANCH  23  24
ENDBRANCH   6  23
TORSDOF 10
ENDMDL
MODEL 6
REMARK VINA RESULT:      -7.6      1.738      2.971
REMARK  Name = 
REMARK  14 active torsions:
REMARK  status: ('A' for Active; 'I' for Inactive)
REMARK    1  A    between atoms: C_1  and  O_2
REMARK    2  A    between atoms: O_2  and  C_3
REMARK    3  A    between atoms: C_6  and  C_7
REMARK    4  A    between atoms: C_7  and  C_9
REMARK    5  A    between atoms: C_11  and  O_12
REMARK    6  A    between atoms: O_12  and  C_13
REMARK    7  A    between atoms: C_14  and  O_15
REMARK    8  A    between atoms: O_15  and  C_16
REMARK    9  A    between atoms: C_17  and  O_18
REMARK   10  A    between atoms: O_18  and  C_19
REMARK   11  A    between atoms: C_22  and  O_23
REMARK   12  A    between atoms: O_23  and  C_24
REMARK   13  A    between atoms: C_24  and  C_25
REMARK   14  A    between atoms: C_28  and  N_29
REMARK                            x       y       z     vdW  Elec       q    Type
REMARK                         _______ _______ _______ _____ _____    ______ ____
ROOT
ATOM      1  C   UNL     1       2.352   4.561  19.607  0.00  0.00    +0.000 A 
ATOM      2  C   UNL     1       2.051   5.557  20.555  0.00  0.00    +0.000 A 
ATOM      3  C   UNL     1       1.937   6.901  20.197  0.00  0.00    +0.000 A 
ATOM      4  C   UNL     1       2.068   7.260  18.862  0.00  0.00    +0.000 A 
ATOM      5  C   UNL     1       2.386   6.279  17.918  0.00  0.00    +0.000 A 
ATOM      6  C   UNL     1       2.556   4.928  18.269  0.00  0.00    +0.000 A 
ENDROOT
BRANCH   1   8
ATOM      7  C   UNL     1       1.705   3.092  21.397  0.00  0.00    +0.000 C 
ATOM      8  O   UNL     1       2.376   3.317  20.171  0.00  0.00    +0.000 OA
ENDBRANCH   1   8
BRANCH   4   9
ATOM      9  C   UNL     1       1.930   8.683  18.456  0.00  0.00    +0.000 C 
ATOM     10  O   UNL     1       2.729   9.156  17.655  0.00  0.00    +0.000 OA
BRANCH   9  11
ATOM     11  C   UNL     1       0.809   9.526  18.961  0.00  0.00    +0.000 A 
ATOM     12  C   UNL     1       0.905  10.041  20.251  0.00  0.00    +0.000 A 
ATOM     13  C   UNL     1      -0.099  10.875  20.750  0.00  0.00    +0.000 A 
ATOM     14  C   UNL     1      -1.232  11.179  19.957  0.00  0.00    +0.000 A 
ATOM     15  C   UNL     1      -1.339  10.639  18.657  0.00  0.00    +0.000 A 
ATOM     16  C   UNL     1      -0.319   9.806  18.179  0.00  0.00    +0.000 A 
BRANCH  13  17
ATOM     17  O   UNL     1      -0.054  11.426  22.010  0.00  0.00    +0.000 OA
ATOM     18  C   UNL     1      -0.646  10.658  23.054  0.00  0.00    +0.000 C 
ENDBRANCH  13  17
BRANCH  14  19
ATOM     19  O   UNL     1      -2.192  11.941  20.584  0.00  0.00    +0.000 OA
ATOM     20  C   UNL     1      -2.204  13.338  20.319  0.00  0.00    +0.000 C 
ENDBRANCH  14  19
BRANCH  15  21
ATOM     21  O   UNL     1      -2.460  10.929  17.925  0.00  0.00    +0.000 OA
ATOM     22  C   UNL     1      -2.306  11.304  16.561  0.00  0.00    +0.000 C 
ENDBRANCH  15  21
ENDBRANCH   9  11
ENDBRANCH   4   9
BRANCH   6  23
ATOM     23  O   UNL     1       2.907   3.984  17.325  0.00  0.00    +0.000 OA
BRANCH  23  24
ATOM     24  C   UNL     1       4.176   3.357  17.573  0.00  0.00    +0.000 C 
BRANCH  24  25
ATOM     25  C   UNL     1       5.282   4.190  17.054  0.00  0.00    +0.000 A 
ATOM     26  C   UNL     1       6.124   5.157  17.564  0.00  0.00    +0.000 A 
ATOM     27  C   UNL     1       6.960   5.571  16.496  0.00  0.00    +0.000 A 
ATOM     28  C   UNL     1       6.572   4.821  15.409  0.00  0.00    +0.000 A 
ATOM     29  O   UNL     1       5.567   3.974  15.731  0.00  0.00    +0.000 OA
BRANCH  28  30
ATOM     30  N   UNL     1       7.030   4.792  14.057  0.00  0.00    +0.000 N 
ATOM     31  O   UNL     1       6.472   3.985  13.303  0.00  0.00    +0.000 OA
ATOM     32  O   UNL     1       7.942   5.565  13.745  0.00  0.00    +0.000 OA
ENDBRANCH  28  30
ENDBRANCH  24  25
ENDBRANCH  23  24
ENDBRANCH   6  23
TORSDOF 10
ENDMDL
MODEL 7
REMARK VINA RESULT:      -7.6      3.151      9.136
REMARK  Name = 
REMARK  14 active torsions:
REMARK  status: ('A' for Active; 'I' for Inactive)
REMARK    1  A    between atoms: C_1  and  O_2
REMARK    2  A    between atoms: O_2  and  C_3
REMARK    3  A    between atoms: C_6  and  C_7
REMARK    4  A    between atoms: C_7  and  C_9
REMARK    5  A    between atoms: C_11  and  O_12
REMARK    6  A    between atoms: O_12  and  C_13
REMARK    7  A    between atoms: C_14  and  O_15
REMARK    8  A    between atoms: O_15  and  C_16
REMARK    9  A    between atoms: C_17  and  O_18
REMARK   10  A    between atoms: O_18  and  C_19
REMARK   11  A    between atoms: C_22  and  O_23
REMARK   12  A    between atoms: O_23  and  C_24
REMARK   13  A    between atoms: C_24  and  C_25
REMARK   14  A    between atoms: C_28  and  N_29
REMARK                            x       y       z     vdW  Elec       q    Type
REMARK                         _______ _______ _______ _____ _____    ______ ____
ROOT
ATOM      1  C   UNL     1       0.002   9.985  21.032  0.00  0.00    +0.000 A 
ATOM      2  C   UNL     1       0.988   9.046  21.388  0.00  0.00    +0.000 A 
ATOM      3  C   UNL     1       1.738   8.367  20.426  0.00  0.00    +0.000 A 
ATOM      4  C   UNL     1       1.546   8.666  19.084  0.00  0.00    +0.000 A 
ATOM      5  C   UNL     1       0.555   9.583  18.721  0.00  0.00    +0.000 A 
ATOM      6  C   UNL     1      -0.246  10.237  19.675  0.00  0.00    +0.000 A 
ENDROOT
BRANCH   1   8
ATOM      7  C   UNL     1      -0.666   9.813  23.336  0.00  0.00    +0.000 C 
ATOM      8  O   UNL     1      -0.577  10.553  22.132  0.00  0.00    +0.000 OA
ENDBRANCH   1   8
BRANCH   4   9
ATOM      9  C   UNL     1       2.348   7.969  18.044  0.00  0.00    +0.000 C 
ATOM     10  O   UNL     1       2.671   8.579  17.030  0.00  0.00    +0.000 OA
BRANCH   9  11
ATOM     11  C   UNL     1       2.812   6.566  18.237  0.00  0.00    +0.000 A 
ATOM     12  C   UNL     1       4.182   6.317  18.203  0.00  0.00    +0.000 A 
ATOM     13  C   UNL     1       4.667   5.026  18.425  0.00  0.00    +0.000 A 
ATOM     14  C   UNL     1       3.767   3.958  18.660  0.00  0.00    +0.000 A 
ATOM     15  C   UNL     1       2.378   4.207  18.673  0.00  0.00    +0.000 A 
ATOM     16  C   UNL     1       1.916   5.510  18.448  0.00  0.00    +0.000 A 
BRANCH  13  17
ATOM     17  O   UNL     1       6.009   4.721  18.418  0.00  0.00    +0.000 OA
ATOM     18  C   UNL     1       6.878   5.694  18.990  0.00  0.00    +0.000 C 
ENDBRANCH  13  17
BRANCH  14  19
ATOM     19  O   UNL     1       4.356   2.720  18.783  0.00  0.00    +0.000 OA
ATOM     20  C   UNL     1       4.402   2.136  20.078  0.00  0.00    +0.000 C 
ENDBRANCH  14  19
BRANCH  15  21
ATOM     21  O   UNL     1       1.532   3.148  18.875  0.00  0.00    +0.000 OA
ATOM     22  C   UNL     1       0.729   3.131  20.050  0.00  0.00    +0.000 C 
ENDBRANCH  15  21
ENDBRANCH   9  11
ENDBRANCH   4   9
BRANCH   6  23
ATOM     23  O   UNL     1      -1.243  11.111  19.291  0.00  0.00    +0.000 OA
BRANCH  23  24
ATOM     24  C   UNL     1      -1.108  11.592  17.944  0.00  0.00    +0.000 C 
BRANCH  24  25
ATOM     25  C   UNL     1      -2.346  11.347  17.174  0.00  0.00    +0.000 A 
ATOM     26  C   UNL     1      -2.663  10.810  15.944  0.00  0.00    +0.000 A 
ATOM     27  C   UNL     1      -4.072  10.899  15.813  0.00  0.00    +0.000 A 
ATOM     28  C   UNL     1      -4.518  11.479  16.979  0.00  0.00    +0.000 A 
ATOM     29  O   UNL     1      -3.488  11.746  17.817  0.00  0.00    +0.000 OA
BRANCH  28  30
ATOM     30  N   UNL     1      -5.824  11.835  17.431  0.00  0.00    +0.000 N 
ATOM     31  O   UNL     1      -6.486  10.937  17.965  0.00  0.00    +0.000 OA
ATOM     32  O   UNL     1      -6.193  13.001  17.252  0.00  0.00    +0.000 OA
ENDBRANCH  28  30
ENDBRANCH  24  25
ENDBRANCH  23  24
ENDBRANCH   6  23
TORSDOF 10
ENDMDL
MODEL 8
REMARK VINA RESULT:      -7.5      2.332      4.217
REMARK  Name = 
REMARK  14 active torsions:
REMARK  status: ('A' for Active; 'I' for Inactive)
REMARK    1  A    between atoms: C_1  and  O_2
REMARK    2  A    between atoms: O_2  and  C_3
REMARK    3  A    between atoms: C_6  and  C_7
REMARK    4  A    between atoms: C_7  and  C_9
REMARK    5  A    between atoms: C_11  and  O_12
REMARK    6  A    between atoms: O_12  and  C_13
REMARK    7  A    between atoms: C_14  and  O_15
REMARK    8  A    between atoms: O_15  and  C_16
REMARK    9  A    between atoms: C_17  and  O_18
REMARK   10  A    between atoms: O_18  and  C_19
REMARK   11  A    between atoms: C_22  and  O_23
REMARK   12  A    between atoms: O_23  and  C_24
REMARK   13  A    between atoms: C_24  and  C_25
REMARK   14  A    between atoms: C_28  and  N_29
REMARK                            x       y       z     vdW  Elec       q    Type
REMARK                         _______ _______ _______ _____ _____    ______ ____
ROOT
ATOM      1  C   UNL     1       2.744   7.049  18.388  0.00  0.00    +0.000 A 
ATOM      2  C   UNL     1       2.611   8.097  17.457  0.00  0.00    +0.000 A 
ATOM      3  C   UNL     1       1.923   9.271  17.768  0.00  0.00    +0.000 A 
ATOM      4  C   UNL     1       1.404   9.434  19.045  0.00  0.00    +0.000 A 
ATOM      5  C   UNL     1       1.515   8.390  19.968  0.00  0.00    +0.000 A 
ATOM      6  C   UNL     1       2.159   7.179  19.656  0.00  0.00    +0.000 A 
ENDROOT
BRANCH   1   8
ATOM      7  C   UNL     1       4.860   5.920  18.215  0.00  0.00    +0.000 C 
ATOM      8  O   UNL     1       3.486   6.017  17.885  0.00  0.00    +0.000 OA
ENDBRANCH   1   8
BRANCH   4   9
ATOM      9  C   UNL     1       0.685  10.685  19.403  0.00  0.00    +0.000 C 
ATOM     10  O   UNL     1       1.284  11.565  20.013  0.00  0.00    +0.000 OA
BRANCH   9  11
ATOM     11  C   UNL     1      -0.727  10.912  18.984  0.00  0.00    +0.000 A 
ATOM     12  C   UNL     1      -1.191  10.246  17.853  0.00  0.00    +0.000 A 
ATOM     13  C   UNL     1      -2.521  10.390  17.449  0.00  0.00    +0.000 A 
ATOM     14  C   UNL     1      -3.397  11.235  18.173  0.00  0.00    +0.000 A 
ATOM     15  C   UNL     1      -2.921  11.927  19.307  0.00  0.00    +0.000 A 
ATOM     16  C   UNL     1      -1.583  11.765  19.692  0.00  0.00    +0.000 A 
BRANCH  13  17
ATOM     17  O   UNL     1      -3.041   9.747  16.349  0.00  0.00    +0.000 OA
ATOM     18  C   UNL     1      -2.807  10.367  15.088  0.00  0.00    +0.000 C 
ENDBRANCH  13  17
BRANCH  14  19
ATOM     19  O   UNL     1      -4.658  11.362  17.633  0.00  0.00    +0.000 OA
ATOM     20  C   UNL     1      -5.745  10.805  18.358  0.00  0.00    +0.000 C 
ENDBRANCH  14  19
BRANCH  15  21
ATOM     21  O   UNL     1      -3.785  12.758  19.969  0.00  0.00    +0.000 OA
ATOM     22  C   UNL     1      -3.523  13.068  21.333  0.00  0.00    +0.000 C 
ENDBRANCH  15  21
ENDBRANCH   9  11
ENDBRANCH   4   9
BRANCH   6  23
ATOM     23  O   UNL     1       2.224   6.148  20.571  0.00  0.00    +0.000 OA
BRANCH  23  24
ATOM     24  C   UNL     1       1.050   5.320  20.598  0.00  0.00    +0.000 C 
BRANCH  24  25
ATOM     25  C   UNL     1       1.313   4.017  19.952  0.00  0.00    +0.000 A 
ATOM     26  C   UNL     1       0.562   3.058  19.303  0.00  0.00    +0.000 A 
ATOM     27  C   UNL     1       1.458   2.020  18.940  0.00  0.00    +0.000 A 
ATOM     28  C   UNL     1       2.696   2.423  19.387  0.00  0.00    +0.000 A 
ATOM     29  O   UNL     1       2.628   3.633  19.991  0.00  0.00    +0.000 OA
BRANCH  28  30
ATOM     30  N   UNL     1       3.980   1.804  19.328  0.00  0.00    +0.000 N 
ATOM     31  O   UNL     1       4.823   2.204  20.139  0.00  0.00    +0.000 OA
ATOM     32  O   UNL     1       4.153   0.926  18.475  0.00  0.00    +0.000 OA
ENDBRANCH  28  30
ENDBRANCH  24  25
ENDBRANCH  23  24
ENDBRANCH   6  23
TORSDOF 10
ENDMDL
MODEL 9
REMARK VINA RESULT:      -7.5      2.310      3.495
REMARK  Name = 
REMARK  14 active torsions:
REMARK  status: ('A' for Active; 'I' for Inactive)
REMARK    1  A    between atoms: C_1  and  O_2
REMARK    2  A    between atoms: O_2  and  C_3
REMARK    3  A    between atoms: C_6  and  C_7
REMARK    4  A    between atoms: C_7  and  C_9
REMARK    5  A    between atoms: C_11  and  O_12
REMARK    6  A    between atoms: O_12  and  C_13
REMARK    7  A    between atoms: C_14  and  O_15
REMARK    8  A    between atoms: O_15  and  C_16
REMARK    9  A    between atoms: C_17  and  O_18
REMARK   10  A    between atoms: O_18  and  C_19
REMARK   11  A    between atoms: C_22  and  O_23
REMARK   12  A    between atoms: O_23  and  C_24
REMARK   13  A    between atoms: C_24  and  C_25
REMARK   14  A    between atoms: C_28  and  N_29
REMARK                            x       y       z     vdW  Elec       q    Type
REMARK                         _______ _______ _______ _____ _____    ______ ____
ROOT
ATOM      1  C   UNL     1       3.431   4.168  18.723  0.00  0.00    +0.000 A 
ATOM      2  C   UNL     1       2.102   4.636  18.719  0.00  0.00    +0.000 A 
ATOM      3  C   UNL     1       1.794   5.969  18.447  0.00  0.00    +0.000 A 
ATOM      4  C   UNL     1       2.818   6.847  18.116  0.00  0.00    +0.000 A 
ATOM      5  C   UNL     1       4.141   6.395  18.137  0.00  0.00    +0.000 A 
ATOM      6  C   UNL     1       4.474   5.067  18.460  0.00  0.00    +0.000 A 
ENDROOT
BRANCH   1   8
ATOM      7  C   UNL     1       2.296   2.085  19.120  0.00  0.00    +0.000 C 
ATOM      8  O   UNL     1       3.494   2.826  18.975  0.00  0.00    +0.000 OA
ENDBRANCH   1   8
BRANCH   4   9
ATOM      9  C   UNL     1       2.510   8.267  17.803  0.00  0.00    +0.000 C 
ATOM     10  O   UNL     1       3.106   8.820  16.885  0.00  0.00    +0.000 OA
BRANCH   9  11
ATOM     11  C   UNL     1       1.452   9.010  18.546  0.00  0.00    +0.000 A 
ATOM     12  C   UNL     1       1.612   9.182  19.918  0.00  0.00    +0.000 A 
ATOM     13  C   UNL     1       0.672   9.912  20.649  0.00  0.00    +0.000 A 
ATOM     14  C   UNL     1      -0.464  10.458  20.003  0.00  0.00    +0.000 A 
ATOM     15  C   UNL     1      -0.637  10.264  18.616  0.00  0.00    +0.000 A 
ATOM     16  C   UNL     1       0.321   9.529  17.905  0.00  0.00    +0.000 A 
BRANCH  13  17
ATOM     17  O   UNL     1       0.783  10.129  22.003  0.00  0.00    +0.000 OA
ATOM     18  C   UNL     1       1.533   9.164  22.736  0.00  0.00    +0.000 C 
ENDBRANCH  13  17
BRANCH  14  19
ATOM     19  O   UNL     1      -1.362  11.085  20.838  0.00  0.00    +0.000 OA
ATOM     20  C   UNL     1      -1.351  12.505  20.872  0.00  0.00    +0.000 C 
ENDBRANCH  14  19
BRANCH  15  21
ATOM     21  O   UNL     1      -1.760  10.781  18.024  0.00  0.00    +0.000 OA
ATOM     22  C   UNL     1      -2.741   9.882  17.522  0.00  0.00    +0.000 C 
ENDBRANCH  15  21
ENDBRANCH   9  11
ENDBRANCH   4   9
BRANCH   6  23
ATOM     23  O   UNL     1       5.790   4.653  18.511  0.00  0.00    +0.000 OA
BRANCH  23  24
ATOM     24  C   UNL     1       6.656   5.358  17.607  0.00  0.00    +0.000 C 
BRANCH  24  25
ATOM     25  C   UNL     1       6.529   4.822  16.235  0.00  0.00    +0.000 A 
ATOM     26  C   UNL     1       5.777   3.847  15.614  0.00  0.00    +0.000 A 
ATOM     27  C   UNL     1       6.174   3.835  14.253  0.00  0.00    +0.000 A 
ATOM     28  C   UNL     1       7.137   4.811  14.137  0.00  0.00    +0.000 A 
ATOM     29  O   UNL     1       7.355   5.426  15.324  0.00  0.00    +0.000 OA
BRANCH  28  30
ATOM     30  N   UNL     1       7.912   5.262  13.027  0.00  0.00    +0.000 N 
ATOM     31  O   UNL     1       8.859   6.014  13.285  0.00  0.00    +0.000 OA
ATOM     32  O   UNL     1       7.580   4.872  11.902  0.00  0.00    +0.000 OA
ENDBRANCH  28  30
ENDBRANCH  24  25
ENDBRANCH  23  24
ENDBRANCH   6  23
TORSDOF 10
ENDMDL
