MODEL 1
REMARK VINA RESULT:      -8.6      0.000      0.000
REMARK  Name = 
REMARK  4 active torsions:
REMARK  status: ('A' for Active; 'I' for Inactive)
REMARK    1  A    between atoms: C_4  and  C_5
REMARK    2  A    between atoms: C_4  and  C_23
REMARK    3  A    between atoms: C_7  and  N_8
REMARK    4  A    between atoms: C_9  and  C_11
REMARK                            x       y       z     vdW  Elec       q    Type
REMARK                         _______ _______ _______ _____ _____    ______ ____
ROOT
ATOM      1  C   UNL     1       4.353   5.756  17.279  0.00  0.00    +0.000 A 
ATOM      2  C   UNL     1       3.855   7.063  17.437  0.00  0.00    +0.000 A 
ATOM      3  C   UNL     1       2.552   7.332  17.872  0.00  0.00    +0.000 A 
ATOM      4  C   UNL     1       1.729   6.263  18.226  0.00  0.00    +0.000 A 
ATOM      5  C   UNL     1       2.198   4.952  18.095  0.00  0.00    +0.000 A 
ATOM      6  C   UNL     1       3.490   4.710  17.625  0.00  0.00    +0.000 A 
ATOM      7  F   UNL     1       3.885   3.436  17.497  0.00  0.00    +0.000 F 
ENDROOT
BRANCH   1  11
ATOM      8  N   UNL     1       7.601   8.500  17.456  0.00  0.00    +0.000 N 
ATOM      9  C   UNL     1       7.075   7.255  17.474  0.00  0.00    +0.000 C 
ATOM     10  N   UNL     1       6.438   6.759  16.477  0.00  0.00    +0.000 NA
ATOM     11  C   UNL     1       5.742   5.462  16.662  0.00  0.00    +0.000 C 
ATOM     12  C   UNL     1       6.559   4.530  17.542  0.00  0.00    +0.000 C 
ATOM     13  C   UNL     1       8.072   4.470  17.572  0.00  0.00    +0.000 C 
ATOM     14  C   UNL     1       7.310   5.178  18.660  0.00  0.00    +0.000 C 
ATOM     15  O   UNL     1       7.365   6.614  18.632  0.00  0.00    +0.000 OA
ATOM     16  H   UNL     1       7.741   8.859  16.521  0.00  0.00    +0.000 HD
ATOM     17  H   UNL     1       8.375   8.631  18.092  0.00  0.00    +0.000 HD
BRANCH  11  18
ATOM     18  C   UNL     1       5.566   4.781  15.272  0.00  0.00    +0.000 C 
ATOM     19  F   UNL     1       6.431   5.311  14.361  0.00  0.00    +0.000 F 
ATOM     20  F   UNL     1       5.882   3.456  15.348  0.00  0.00    +0.000 F 
ENDBRANCH  11  18
ENDBRANCH   1  11
BRANCH   3  21
ATOM     21  N   UNL     1       2.035   8.647  17.937  0.00  0.00    +0.000 N 
ATOM     22  C   UNL     1       1.473   9.241  19.063  0.00  0.00    +0.000 C 
ATOM     23  O   UNL     1       1.336   8.711  20.158  0.00  0.00    +0.000 OA
ATOM     24  H   UNL     1       2.173   9.261  17.139  0.00  0.00    +0.000 HD
BRANCH  22  25
ATOM     25  C   UNL     1       1.057  10.662  18.891  0.00  0.00    +0.000 A 
ATOM     26  N   UNL     1       2.051  11.567  18.638  0.00  0.00    +0.000 NA
ATOM     27  C   UNL     1       1.651  12.860  18.503  0.00  0.00    +0.000 A 
ATOM     28  C   UNL     1       0.331  13.285  18.626  0.00  0.00    +0.000 A 
ATOM     29 CL   UNL     1      -0.078  14.943  18.468  0.00  0.00    +0.000 Cl
ATOM     30  C   UNL     1      -0.656  12.344  18.883  0.00  0.00    +0.000 A 
ATOM     31  C   UNL     1      -0.288  11.012  19.012  0.00  0.00    +0.000 A 
ATOM     32  F   UNL     1      -1.250  10.116  19.265  0.00  0.00    +0.000 F 
ENDBRANCH  22  25
ENDBRANCH   3  21
TORSDOF 4
ENDMDL
MODEL 2
REMARK VINA RESULT:      -8.5      3.371      4.396
REMARK  Name = 
REMARK  4 active torsions:
REMARK  status: ('A' for Active; 'I' for Inactive)
REMARK    1  A    between atoms: C_4  and  C_5
REMARK    2  A    between atoms: C_4  and  C_23
REMARK    3  A    between atoms: C_7  and  N_8
REMARK    4  A    between atoms: C_9  and  C_11
REMARK                            x       y       z     vdW  Elec       q    Type
REMARK                         _______ _______ _______ _____ _____    ______ ____
ROOT
ATOM      1  C   UNL     1       3.293   5.738  18.631  0.00  0.00    +0.000 A 
ATOM      2  C   UNL     1       2.389   6.481  19.414  0.00  0.00    +0.000 A 
ATOM      3  C   UNL     1       2.066   7.815  19.140  0.00  0.00    +0.000 A 
ATOM      4  C   UNL     1       2.612   8.419  18.007  0.00  0.00    +0.000 A 
ATOM      5  C   UNL     1       3.502   7.703  17.199  0.00  0.00    +0.000 A 
ATOM      6  C   UNL     1       3.835   6.385  17.515  0.00  0.00    +0.000 A 
ATOM      7  F   UNL     1       4.709   5.749  16.722  0.00  0.00    +0.000 F 
ENDROOT
BRANCH   1  11
ATOM      8  N   UNL     1       0.920   3.077  20.955  0.00  0.00    +0.000 N 
ATOM      9  C   UNL     1       1.797   3.354  19.964  0.00  0.00    +0.000 C 
ATOM     10  N   UNL     1       2.947   3.877  20.184  0.00  0.00    +0.000 NA
ATOM     11  C   UNL     1       3.756   4.313  19.019  0.00  0.00    +0.000 C 
ATOM     12  C   UNL     1       3.606   3.340  17.860  0.00  0.00    +0.000 C 
ATOM     13  C   UNL     1       3.420   1.844  18.002  0.00  0.00    +0.000 C 
ATOM     14  C   UNL     1       2.250   2.737  17.685  0.00  0.00    +0.000 C 
ATOM     15  O   UNL     1       1.319   2.958  18.759  0.00  0.00    +0.000 OA
ATOM     16  H   UNL     1       1.359   3.000  21.863  0.00  0.00    +0.000 HD
ATOM     17  H   UNL     1       0.259   2.348  20.730  0.00  0.00    +0.000 HD
BRANCH  11  18
ATOM     18  C   UNL     1       5.259   4.343  19.431  0.00  0.00    +0.000 C 
ATOM     19  F   UNL     1       6.053   3.964  18.389  0.00  0.00    +0.000 F 
ATOM     20  F   UNL     1       5.642   5.616  19.738  0.00  0.00    +0.000 F 
ENDBRANCH  11  18
ENDBRANCH   1  11
BRANCH   3  21
ATOM     21  N   UNL     1       1.229   8.578  19.988  0.00  0.00    +0.000 N 
ATOM     22  C   UNL     1       0.968   9.938  19.857  0.00  0.00    +0.000 C 
ATOM     23  O   UNL     1       1.430  10.675  18.996  0.00  0.00    +0.000 OA
ATOM     24  H   UNL     1       0.680   8.090  20.690  0.00  0.00    +0.000 HD
BRANCH  22  25
ATOM     25  C   UNL     1       0.000  10.497  20.843  0.00  0.00    +0.000 A 
ATOM     26  N   UNL     1      -0.856  11.461  20.385  0.00  0.00    +0.000 NA
ATOM     27  C   UNL     1      -1.718  11.970  21.306  0.00  0.00    +0.000 A 
ATOM     28  C   UNL     1      -1.751  11.582  22.642  0.00  0.00    +0.000 A 
ATOM     29 CL   UNL     1      -2.853  12.301  23.741  0.00  0.00    +0.000 Cl
ATOM     30  C   UNL     1      -0.870  10.602  23.078  0.00  0.00    +0.000 A 
ATOM     31  C   UNL     1       0.015  10.047  22.163  0.00  0.00    +0.000 A 
ATOM     32  F   UNL     1       0.862   9.107  22.599  0.00  0.00    +0.000 F 
ENDBRANCH  22  25
ENDBRANCH   3  21
TORSDOF 4
ENDMDL
MODEL 3
REMARK VINA RESULT:      -8.4      2.941      4.268
REMARK  Name = 
REMARK  4 active torsions:
REMARK  status: ('A' for Active; 'I' for Inactive)
REMARK    1  A    between atoms: C_4  and  C_5
REMARK    2  A    between atoms: C_4  and  C_23
REMARK    3  A    between atoms: C_7  and  N_8
REMARK    4  A    between atoms: C_9  and  C_11
REMARK                            x       y       z     vdW  Elec       q    Type
REMARK                         _______ _______ _______ _____ _____    ______ ____
ROOT
ATOM      1  C   UNL     1       2.571   4.761  18.593  0.00  0.00    +0.000 A 
ATOM      2  C   UNL     1       2.067   5.967  19.114  0.00  0.00    +0.000 A 
ATOM      3  C   UNL     1       2.586   7.220  18.768  0.00  0.00    +0.000 A 
ATOM      4  C   UNL     1       3.605   7.284  17.818  0.00  0.00    +0.000 A 
ATOM      5  C   UNL     1       4.119   6.105  17.269  0.00  0.00    +0.000 A 
ATOM      6  C   UNL     1       3.607   4.866  17.658  0.00  0.00    +0.000 A 
ATOM      7  F   UNL     1       4.148   3.764  17.120  0.00  0.00    +0.000 F 
ENDROOT
BRANCH   1  11
ATOM      8  N   UNL     1       5.149   1.944  20.470  0.00  0.00    +0.000 N 
ATOM      9  C   UNL     1       3.961   2.569  20.312  0.00  0.00    +0.000 C 
ATOM     10  N   UNL     1       3.285   2.505  19.224  0.00  0.00    +0.000 NA
ATOM     11  C   UNL     1       2.091   3.375  19.086  0.00  0.00    +0.000 C 
ATOM     12  C   UNL     1       1.342   3.478  20.405  0.00  0.00    +0.000 C 
ATOM     13  C   UNL     1       1.226   2.366  21.426  0.00  0.00    +0.000 C 
ATOM     14  C   UNL     1       2.188   3.506  21.637  0.00  0.00    +0.000 C 
ATOM     15  O   UNL     1       3.579   3.195  21.451  0.00  0.00    +0.000 OA
ATOM     16  H   UNL     1       5.288   1.183  19.818  0.00  0.00    +0.000 HD
ATOM     17  H   UNL     1       5.384   1.739  21.431  0.00  0.00    +0.000 HD
BRANCH  11  18
ATOM     18  C   UNL     1       1.129   2.746  18.033  0.00  0.00    +0.000 C 
ATOM     19  F   UNL     1       1.782   1.824  17.271  0.00  0.00    +0.000 F 
ATOM     20  F   UNL     1       0.126   2.061  18.655  0.00  0.00    +0.000 F 
ENDBRANCH  11  18
ENDBRANCH   1  11
BRANCH   3  21
ATOM     21  N   UNL     1       2.132   8.417  19.369  0.00  0.00    +0.000 N 
ATOM     22  C   UNL     1       1.278   9.345  18.780  0.00  0.00    +0.000 C 
ATOM     23  O   UNL     1       0.803   9.267  17.655  0.00  0.00    +0.000 OA
ATOM     24  H   UNL     1       2.347   8.578  20.349  0.00  0.00    +0.000 HD
BRANCH  22  25
ATOM     25  C   UNL     1       0.898  10.497  19.646  0.00  0.00    +0.000 A 
ATOM     26  N   UNL     1       1.458  11.707  19.339  0.00  0.00    +0.000 NA
ATOM     27  C   UNL     1       1.111  12.741  20.153  0.00  0.00    +0.000 A 
ATOM     28  C   UNL     1       0.262  12.620  21.250  0.00  0.00    +0.000 A 
ATOM     29 CL   UNL     1      -0.097  13.973  22.239  0.00  0.00    +0.000 Cl
ATOM     30  C   UNL     1      -0.290  11.379  21.536  0.00  0.00    +0.000 A 
ATOM     31  C   UNL     1       0.028  10.303  20.719  0.00  0.00    +0.000 A 
ATOM     32  F   UNL     1      -0.509   9.112  21.011  0.00  0.00    +0.000 F 
ENDBRANCH  22  25
ENDBRANCH   3  21
TORSDOF 4
ENDMDL
MODEL 4
REMARK VINA RESULT:      -8.3      3.203      4.294
REMARK  Name = 
REMARK  4 active torsions:
REMARK  status: ('A' for Active; 'I' for Inactive)
REMARK    1  A    between atoms: C_4  and  C_5
REMARK    2  A    between atoms: C_4  and  C_23
REMARK    3  A    between atoms: C_7  and  N_8
REMARK    4  A    between atoms: C_9  and  C_11
REMARK                            x       y       z     vdW  Elec       q    Type
REMARK                         _______ _______ _______ _____ _____    ______ ____
ROOT
ATOM      1  C   UNL     1       3.326   5.730  18.553  0.00  0.00    +0.000 A 
ATOM      2  C   UNL     1       2.486   6.548  19.332  0.00  0.00    +0.000 A 
ATOM      3  C   UNL     1       2.207   7.881  19.004  0.00  0.00    +0.000 A 
ATOM      4  C   UNL     1       2.733   8.405  17.824  0.00  0.00    +0.000 A 
ATOM      5  C   UNL     1       3.560   7.614  17.019  0.00  0.00    +0.000 A 
ATOM      6  C   UNL     1       3.850   6.299  17.387  0.00  0.00    +0.000 A 
ATOM      7  F   UNL     1       4.665   5.589  16.595  0.00  0.00    +0.000 F 
ENDROOT
BRANCH   1  11
ATOM      8  N   UNL     1       0.817   3.181  20.858  0.00  0.00    +0.000 N 
ATOM      9  C   UNL     1       1.733   3.414  19.892  0.00  0.00    +0.000 C 
ATOM     10  N   UNL     1       2.886   3.918  20.140  0.00  0.00    +0.000 NA
ATOM     11  C   UNL     1       3.745   4.307  18.994  0.00  0.00    +0.000 C 
ATOM     12  C   UNL     1       3.614   3.307  17.856  0.00  0.00    +0.000 C 
ATOM     13  C   UNL     1       3.391   1.820  18.029  0.00  0.00    +0.000 C 
ATOM     14  C   UNL     1       2.253   2.728  17.648  0.00  0.00    +0.000 C 
ATOM     15  O   UNL     1       1.290   2.996  18.682  0.00  0.00    +0.000 OA
ATOM     16  H   UNL     1       1.221   3.118  21.783  0.00  0.00    +0.000 HD
ATOM     17  H   UNL     1       0.148   2.460  20.628  0.00  0.00    +0.000 HD
BRANCH  11  18
ATOM     18  C   UNL     1       5.232   4.317  19.458  0.00  0.00    +0.000 C 
ATOM     19  F   UNL     1       6.056   3.907  18.452  0.00  0.00    +0.000 F 
ATOM     20  F   UNL     1       5.628   5.587  19.759  0.00  0.00    +0.000 F 
ENDBRANCH  11  18
ENDBRANCH   1  11
BRANCH   3  21
ATOM     21  N   UNL     1       1.437   8.718  19.844  0.00  0.00    +0.000 N 
ATOM     22  C   UNL     1       0.488   9.641  19.415  0.00  0.00    +0.000 C 
ATOM     23  O   UNL     1       0.187   9.870  18.251  0.00  0.00    +0.000 OA
ATOM     24  H   UNL     1       1.487   8.574  20.849  0.00  0.00    +0.000 HD
BRANCH  22  25
ATOM     25  C   UNL     1      -0.236  10.360  20.502  0.00  0.00    +0.000 A 
ATOM     26  N   UNL     1      -0.127   9.838  21.762  0.00  0.00    +0.000 NA
ATOM     27  C   UNL     1      -0.810  10.500  22.735  0.00  0.00    +0.000 A 
ATOM     28  C   UNL     1      -1.596  11.625  22.509  0.00  0.00    +0.000 A 
ATOM     29 CL   UNL     1      -2.447  12.378  23.794  0.00  0.00    +0.000 Cl
ATOM     30  C   UNL     1      -1.687  12.132  21.220  0.00  0.00    +0.000 A 
ATOM     31  C   UNL     1      -0.992  11.493  20.203  0.00  0.00    +0.000 A 
ATOM     32  F   UNL     1      -1.094  11.990  18.964  0.00  0.00    +0.000 F 
ENDBRANCH  22  25
ENDBRANCH   3  21
TORSDOF 4
ENDMDL
MODEL 5
REMARK VINA RESULT:      -8.3      1.357      1.395
REMARK  Name = 
REMARK  4 active torsions:
REMARK  status: ('A' for Active; 'I' for Inactive)
REMARK    1  A    between atoms: C_4  and  C_5
REMARK    2  A    between atoms: C_4  and  C_23
REMARK    3  A    between atoms: C_7  and  N_8
REMARK    4  A    between atoms: C_9  and  C_11
REMARK                            x       y       z     vdW  Elec       q    Type
REMARK                         _______ _______ _______ _____ _____    ______ ____
ROOT
ATOM      1  C   UNL     1       4.241   5.582  18.367  0.00  0.00    +0.000 A 
ATOM      2  C   UNL     1       3.596   6.821  18.531  0.00  0.00    +0.000 A 
ATOM      3  C   UNL     1       2.528   7.010  19.417  0.00  0.00    +0.000 A 
ATOM      4  C   UNL     1       2.125   5.942  20.218  0.00  0.00    +0.000 A 
ATOM      5  C   UNL     1       2.755   4.700  20.090  0.00  0.00    +0.000 A 
ATOM      6  C   UNL     1       3.794   4.530  19.174  0.00  0.00    +0.000 A 
ATOM      7  F   UNL     1       4.351   3.315  19.073  0.00  0.00    +0.000 F 
ENDROOT
BRANCH   1  11
ATOM      8  N   UNL     1       7.200   8.470  17.361  0.00  0.00    +0.000 N 
ATOM      9  C   UNL     1       6.775   7.202  17.563  0.00  0.00    +0.000 C 
ATOM     10  N   UNL     1       5.842   6.666  16.865  0.00  0.00    +0.000 NA
ATOM     11  C   UNL     1       5.322   5.342  17.286  0.00  0.00    +0.000 C 
ATOM     12  C   UNL     1       6.446   4.458  17.804  0.00  0.00    +0.000 C 
ATOM     13  C   UNL     1       7.867   4.466  17.281  0.00  0.00    +0.000 C 
ATOM     14  C   UNL     1       7.521   5.154  18.575  0.00  0.00    +0.000 C 
ATOM     15  O   UNL     1       7.496   6.591  18.534  0.00  0.00    +0.000 OA
ATOM     16  H   UNL     1       6.974   8.823  16.441  0.00  0.00    +0.000 HD
ATOM     17  H   UNL     1       8.145   8.644  17.672  0.00  0.00    +0.000 HD
BRANCH  11  18
ATOM     18  C   UNL     1       4.684   4.635  16.051  0.00  0.00    +0.000 C 
ATOM     19  F   UNL     1       5.247   5.085  14.893  0.00  0.00    +0.000 F 
ATOM     20  F   UNL     1       4.940   3.296  16.086  0.00  0.00    +0.000 F 
ENDBRANCH  11  18
ENDBRANCH   1  11
BRANCH   3  21
ATOM     21  N   UNL     1       1.829   8.237  19.505  0.00  0.00    +0.000 N 
ATOM     22  C   UNL     1       1.610   9.120  18.453  0.00  0.00    +0.000 C 
ATOM     23  O   UNL     1       1.997   8.972  17.301  0.00  0.00    +0.000 OA
ATOM     24  H   UNL     1       1.346   8.457  20.372  0.00  0.00    +0.000 HD
BRANCH  22  25
ATOM     25  C   UNL     1       0.789  10.318  18.789  0.00  0.00    +0.000 A 
ATOM     26  N   UNL     1       1.340  11.214  19.665  0.00  0.00    +0.000 NA
ATOM     27  C   UNL     1       0.566  12.290  19.971  0.00  0.00    +0.000 A 
ATOM     28  C   UNL     1      -0.715  12.499  19.469  0.00  0.00    +0.000 A 
ATOM     29 CL   UNL     1      -1.631  13.872  19.935  0.00  0.00    +0.000 Cl
ATOM     30  C   UNL     1      -1.247  11.573  18.583  0.00  0.00    +0.000 A 
ATOM     31  C   UNL     1      -0.482  10.469  18.234  0.00  0.00    +0.000 A 
ATOM     32  F   UNL     1      -1.010   9.581  17.382  0.00  0.00    +0.000 F 
ENDBRANCH  22  25
ENDBRANCH   3  21
TORSDOF 4
ENDMDL
MODEL 6
REMARK VINA RESULT:      -8.2      3.003      4.380
REMARK  Name = 
REMARK  4 active torsions:
REMARK  status: ('A' for Active; 'I' for Inactive)
REMARK    1  A    between atoms: C_4  and  C_5
REMARK    2  A    between atoms: C_4  and  C_23
REMARK    3  A    between atoms: C_7  and  N_8
REMARK    4  A    between atoms: C_9  and  C_11
REMARK                            x       y       z     vdW  Elec       q    Type
REMARK                         _______ _______ _______ _____ _____    ______ ____
ROOT
ATOM      1  C   UNL     1       2.651   4.747  18.493  0.00  0.00    +0.000 A 
ATOM      2  C   UNL     1       2.191   5.993  18.957  0.00  0.00    +0.000 A 
ATOM      3  C   UNL     1       2.761   7.209  18.560  0.00  0.00    +0.000 A 
ATOM      4  C   UNL     1       3.788   7.191  17.616  0.00  0.00    +0.000 A 
ATOM      5  C   UNL     1       4.259   5.970  17.123  0.00  0.00    +0.000 A 
ATOM      6  C   UNL     1       3.696   4.770  17.562  0.00  0.00    +0.000 A 
ATOM      7  F   UNL     1       4.197   3.625  17.077  0.00  0.00    +0.000 F 
ENDROOT
BRANCH   1  11
ATOM      8  N   UNL     1       5.145   1.825  20.324  0.00  0.00    +0.000 N 
ATOM      9  C   UNL     1       3.988   2.516  20.204  0.00  0.00    +0.000 C 
ATOM     10  N   UNL     1       3.261   2.468  19.149  0.00  0.00    +0.000 NA
ATOM     11  C   UNL     1       2.114   3.403  19.042  0.00  0.00    +0.000 C 
ATOM     12  C   UNL     1       1.434   3.581  20.390  0.00  0.00    +0.000 C 
ATOM     13  C   UNL     1       1.301   2.502  21.444  0.00  0.00    +0.000 C 
ATOM     14  C   UNL     1       2.336   3.587  21.582  0.00  0.00    +0.000 C 
ATOM     15  O   UNL     1       3.697   3.190  21.342  0.00  0.00    +0.000 OA
ATOM     16  H   UNL     1       5.208   1.043  19.686  0.00  0.00    +0.000 HD
ATOM     17  H   UNL     1       5.411   1.629  21.278  0.00  0.00    +0.000 HD
BRANCH  11  18
ATOM     18  C   UNL     1       1.069   2.809  18.050  0.00  0.00    +0.000 C 
ATOM     19  F   UNL     1       0.014   2.269  18.725  0.00  0.00    +0.000 F 
ATOM     20  F   UNL     1       0.539   3.796  17.271  0.00  0.00    +0.000 F 
ENDBRANCH  11  18
ENDBRANCH   1  11
BRANCH   3  21
ATOM     21  N   UNL     1       2.351   8.448  19.105  0.00  0.00    +0.000 N 
ATOM     22  C   UNL     1       1.392   9.294  18.557  0.00  0.00    +0.000 C 
ATOM     23  O   UNL     1       0.770   9.097  17.521  0.00  0.00    +0.000 OA
ATOM     24  H   UNL     1       2.693   8.708  20.026  0.00  0.00    +0.000 HD
BRANCH  22  25
ATOM     25  C   UNL     1       1.092  10.516  19.357  0.00  0.00    +0.000 A 
ATOM     26  N   UNL     1       0.255  10.359  20.428  0.00  0.00    +0.000 NA
ATOM     27  C   UNL     1      -0.018  11.490  21.133  0.00  0.00    +0.000 A 
ATOM     28  C   UNL     1       0.479  12.749  20.812  0.00  0.00    +0.000 A 
ATOM     29 CL   UNL     1       0.056  14.127  21.741  0.00  0.00    +0.000 Cl
ATOM     30  C   UNL     1       1.325  12.878  19.719  0.00  0.00    +0.000 A 
ATOM     31  C   UNL     1       1.641  11.743  18.984  0.00  0.00    +0.000 A 
ATOM     32  F   UNL     1       2.454  11.883  17.930  0.00  0.00    +0.000 F 
ENDBRANCH  22  25
ENDBRANCH   3  21
TORSDOF 4
ENDMDL
MODEL 7
REMARK VINA RESULT:      -8.2      1.559      1.716
REMARK  Name = 
REMARK  4 active torsions:
REMARK  status: ('A' for Active; 'I' for Inactive)
REMARK    1  A    between atoms: C_4  and  C_5
REMARK    2  A    between atoms: C_4  and  C_23
REMARK    3  A    between atoms: C_7  and  N_8
REMARK    4  A    between atoms: C_9  and  C_11
REMARK                            x       y       z     vdW  Elec       q    Type
REMARK                         _______ _______ _______ _____ _____    ______ ____
ROOT
ATOM      1  C   UNL     1       4.225   5.532  18.334  0.00  0.00    +0.000 A 
ATOM      2  C   UNL     1       3.654   6.802  18.535  0.00  0.00    +0.000 A 
ATOM      3  C   UNL     1       2.563   7.018  19.387  0.00  0.00    +0.000 A 
ATOM      4  C   UNL     1       2.058   5.941  20.115  0.00  0.00    +0.000 A 
ATOM      5  C   UNL     1       2.613   4.668  19.949  0.00  0.00    +0.000 A 
ATOM      6  C   UNL     1       3.677   4.474  19.068  0.00  0.00    +0.000 A 
ATOM      7  F   UNL     1       4.159   3.231  18.927  0.00  0.00    +0.000 F 
ENDROOT
BRANCH   1  11
ATOM      8  N   UNL     1       7.160   8.433  17.298  0.00  0.00    +0.000 N 
ATOM      9  C   UNL     1       6.751   7.166  17.533  0.00  0.00    +0.000 C 
ATOM     10  N   UNL     1       5.843   6.592  16.833  0.00  0.00    +0.000 NA
ATOM     11  C   UNL     1       5.335   5.274  17.286  0.00  0.00    +0.000 C 
ATOM     12  C   UNL     1       6.460   4.427  17.859  0.00  0.00    +0.000 C 
ATOM     13  C   UNL     1       7.892   4.440  17.367  0.00  0.00    +0.000 C 
ATOM     14  C   UNL     1       7.506   5.165  18.630  0.00  0.00    +0.000 C 
ATOM     15  O   UNL     1       7.459   6.599  18.540  0.00  0.00    +0.000 OA
ATOM     16  H   UNL     1       6.950   8.751  16.361  0.00  0.00    +0.000 HD
ATOM     17  H   UNL     1       8.096   8.632  17.624  0.00  0.00    +0.000 HD
BRANCH  11  18
ATOM     18  C   UNL     1       4.736   4.516  16.062  0.00  0.00    +0.000 C 
ATOM     19  F   UNL     1       5.232   5.017  14.895  0.00  0.00    +0.000 F 
ATOM     20  F   UNL     1       5.111   3.204  16.086  0.00  0.00    +0.000 F 
ENDBRANCH  11  18
ENDBRANCH   1  11
BRANCH   3  21
ATOM     21  N   UNL     1       1.941   8.282  19.509  0.00  0.00    +0.000 N 
ATOM     22  C   UNL     1       1.638   9.140  18.457  0.00  0.00    +0.000 C 
ATOM     23  O   UNL     1       1.873   8.932  17.274  0.00  0.00    +0.000 OA
ATOM     24  H   UNL     1       1.580   8.557  20.418  0.00  0.00    +0.000 HD
BRANCH  22  25
ATOM     25  C   UNL     1       0.924  10.391  18.842  0.00  0.00    +0.000 A 
ATOM     26  N   UNL     1      -0.328  10.244  19.376  0.00  0.00    +0.000 NA
ATOM     27  C   UNL     1      -0.967  11.399  19.703  0.00  0.00    +0.000 A 
ATOM     28  C   UNL     1      -0.434  12.669  19.508  0.00  0.00    +0.000 A 
ATOM     29 CL   UNL     1      -1.327  14.073  19.924  0.00  0.00    +0.000 Cl
ATOM     30  C   UNL     1       0.837  12.786  18.964  0.00  0.00    +0.000 A 
ATOM     31  C   UNL     1       1.529  11.630  18.631  0.00  0.00    +0.000 A 
ATOM     32  F   UNL     1       2.752  11.758  18.103  0.00  0.00    +0.000 F 
ENDBRANCH  22  25
ENDBRANCH   3  21
TORSDOF 4
ENDMDL
MODEL 8
REMARK VINA RESULT:      -8.1      3.134      4.298
REMARK  Name = 
REMARK  4 active torsions:
REMARK  status: ('A' for Active; 'I' for Inactive)
REMARK    1  A    between atoms: C_4  and  C_5
REMARK    2  A    between atoms: C_4  and  C_23
REMARK    3  A    between atoms: C_7  and  N_8
REMARK    4  A    between atoms: C_9  and  C_11
REMARK                            x       y       z     vdW  Elec       q    Type
REMARK                         _______ _______ _______ _____ _____    ______ ____
ROOT
ATOM      1  C   UNL     1       3.414   5.741  18.413  0.00  0.00    +0.000 A 
ATOM      2  C   UNL     1       2.508   6.566  19.106  0.00  0.00    +0.000 A 
ATOM      3  C   UNL     1       2.261   7.896  18.743  0.00  0.00    +0.000 A 
ATOM      4  C   UNL     1       2.891   8.409  17.609  0.00  0.00    +0.000 A 
ATOM      5  C   UNL     1       3.785   7.611  16.889  0.00  0.00    +0.000 A 
ATOM      6  C   UNL     1       4.041   6.299  17.293  0.00  0.00    +0.000 A 
ATOM      7  F   UNL     1       4.923   5.582  16.583  0.00  0.00    +0.000 F 
ENDROOT
BRANCH   1  11
ATOM      8  N   UNL     1       0.783   3.298  20.697  0.00  0.00    +0.000 N 
ATOM      9  C   UNL     1       1.735   3.489  19.756  0.00  0.00    +0.000 C 
ATOM     10  N   UNL     1       2.889   3.978  20.028  0.00  0.00    +0.000 NA
ATOM     11  C   UNL     1       3.791   4.322  18.902  0.00  0.00    +0.000 C 
ATOM     12  C   UNL     1       3.677   3.296  17.785  0.00  0.00    +0.000 C 
ATOM     13  C   UNL     1       3.420   1.818  17.988  0.00  0.00    +0.000 C 
ATOM     14  C   UNL     1       2.312   2.737  17.547  0.00  0.00    +0.000 C 
ATOM     15  O   UNL     1       1.323   3.049  18.542  0.00  0.00    +0.000 OA
ATOM     16  H   UNL     1       1.157   3.251  21.636  0.00  0.00    +0.000 HD
ATOM     17  H   UNL     1       0.108   2.584  20.463  0.00  0.00    +0.000 HD
BRANCH  11  18
ATOM     18  C   UNL     1       5.263   4.316  19.414  0.00  0.00    +0.000 C 
ATOM     19  F   UNL     1       6.116   3.920  18.427  0.00  0.00    +0.000 F 
ATOM     20  F   UNL     1       5.654   5.578  19.750  0.00  0.00    +0.000 F 
ENDBRANCH  11  18
ENDBRANCH   1  11
BRANCH   3  21
ATOM     21  N   UNL     1       1.420   8.741  19.503  0.00  0.00    +0.000 N 
ATOM     22  C   UNL     1       1.023   8.518  20.818  0.00  0.00    +0.000 C 
ATOM     23  O   UNL     1       1.336   7.555  21.506  0.00  0.00    +0.000 OA
ATOM     24  H   UNL     1       1.161   9.643  19.113  0.00  0.00    +0.000 HD
BRANCH  22  25
ATOM     25  C   UNL     1       0.181   9.591  21.419  0.00  0.00    +0.000 A 
ATOM     26  N   UNL     1      -0.155   9.443  22.737  0.00  0.00    +0.000 NA
ATOM     27  C   UNL     1      -0.938  10.425  23.259  0.00  0.00    +0.000 A 
ATOM     28  C   UNL     1      -1.407  11.517  22.536  0.00  0.00    +0.000 A 
ATOM     29 CL   UNL     1      -2.416  12.693  23.270  0.00  0.00    +0.000 Cl
ATOM     30  C   UNL     1      -1.050  11.640  21.200  0.00  0.00    +0.000 A 
ATOM     31  C   UNL     1      -0.239  10.666  20.635  0.00  0.00    +0.000 A 
ATOM     32  F   UNL     1       0.094  10.795  19.345  0.00  0.00    +0.000 F 
ENDBRANCH  22  25
ENDBRANCH   3  21
TORSDOF 4
ENDMDL
MODEL 9
REMARK VINA RESULT:      -8.1      1.091      1.306
REMARK  Name = 
REMARK  4 active torsions:
REMARK  status: ('A' for Active; 'I' for Inactive)
REMARK    1  A    between atoms: C_4  and  C_5
REMARK    2  A    between atoms: C_4  and  C_23
REMARK    3  A    between atoms: C_7  and  N_8
REMARK    4  A    between atoms: C_9  and  C_11
REMARK                            x       y       z     vdW  Elec       q    Type
REMARK                         _______ _______ _______ _____ _____    ______ ____
ROOT
ATOM      1  C   UNL     1       4.311   6.085  17.287  0.00  0.00    +0.000 A 
ATOM      2  C   UNL     1       3.842   7.401  17.457  0.00  0.00    +0.000 A 
ATOM      3  C   UNL     1       2.586   7.696  18.002  0.00  0.00    +0.000 A 
ATOM      4  C   UNL     1       1.788   6.644  18.453  0.00  0.00    +0.000 A 
ATOM      5  C   UNL     1       2.231   5.325  18.312  0.00  0.00    +0.000 A 
ATOM      6  C   UNL     1       3.472   5.058  17.733  0.00  0.00    +0.000 A 
ATOM      7  F   UNL     1       3.842   3.776  17.600  0.00  0.00    +0.000 F 
ENDROOT
BRANCH   1  11
ATOM      8  N   UNL     1       7.776   8.539  17.560  0.00  0.00    +0.000 N 
ATOM      9  C   UNL     1       7.153   7.343  17.473  0.00  0.00    +0.000 C 
ATOM     10  N   UNL     1       6.424   7.015  16.470  0.00  0.00    +0.000 NA
ATOM     11  C   UNL     1       5.635   5.761  16.555  0.00  0.00    +0.000 C 
ATOM     12  C   UNL     1       6.420   4.675  17.273  0.00  0.00    +0.000 C 
ATOM     13  C   UNL     1       7.922   4.498  17.200  0.00  0.00    +0.000 C 
ATOM     14  C   UNL     1       7.281   5.131  18.406  0.00  0.00    +0.000 C 
ATOM     15  O   UNL     1       7.452   6.553  18.533  0.00  0.00    +0.000 OA
ATOM     16  H   UNL     1       7.895   8.992  16.663  0.00  0.00    +0.000 HD
ATOM     17  H   UNL     1       8.592   8.538  18.156  0.00  0.00    +0.000 HD
BRANCH  11  18
ATOM     18  C   UNL     1       5.329   5.259  15.111  0.00  0.00    +0.000 C 
ATOM     19  F   UNL     1       6.404   5.452  14.294  0.00  0.00    +0.000 F 
ATOM     20  F   UNL     1       5.108   3.913  15.113  0.00  0.00    +0.000 F 
ENDBRANCH  11  18
ENDBRANCH   1  11
BRANCH   3  21
ATOM     21  N   UNL     1       2.090   9.018  18.082  0.00  0.00    +0.000 N 
ATOM     22  C   UNL     1       1.423   9.567  19.173  0.00  0.00    +0.000 C 
ATOM     23  O   UNL     1       1.161   8.986  20.217  0.00  0.00    +0.000 OA
ATOM     24  H   UNL     1       2.324   9.668  17.337  0.00  0.00    +0.000 HD
BRANCH  22  25
ATOM     25  C   UNL     1       1.054  11.005  19.034  0.00  0.00    +0.000 A 
ATOM     26  N   UNL     1      -0.154  11.381  19.554  0.00  0.00    +0.000 NA
ATOM     27  C   UNL     1      -0.478  12.694  19.400  0.00  0.00    +0.000 A 
ATOM     28  C   UNL     1       0.324  13.624  18.747  0.00  0.00    +0.000 A 
ATOM     29 CL   UNL     1      -0.179  15.254  18.574  0.00  0.00    +0.000 Cl
ATOM     30  C   UNL     1       1.545  13.212  18.229  0.00  0.00    +0.000 A 
ATOM     31  C   UNL     1       1.917  11.884  18.380  0.00  0.00    +0.000 A 
ATOM     32  F   UNL     1       3.095  11.500  17.872  0.00  0.00    +0.000 F 
ENDBRANCH  22  25
ENDBRANCH   3  21
TORSDOF 4
ENDMDL
