MODEL 1
REMARK VINA RESULT:      -7.9      0.000      0.000
REMARK  Name = 
REMARK  3 active torsions:
REMARK  status: ('A' for Active; 'I' for Inactive)
REMARK    1  A    between atoms: C_5  and  C_6
REMARK    2  A    between atoms: C_9  and  C_10
REMARK    3  A    between atoms: C_10  and  N_11
REMARK                            x       y       z     vdW  Elec       q    Type
REMARK                         _______ _______ _______ _____ _____    ______ ____
ROOT
ATOM      1  C   UNL     1       6.818   4.922  16.322  0.00  0.00    +0.000 A 
ATOM      2  N   UNL     1       7.623   4.458  17.258  0.00  0.00    +0.000 NA
ATOM      3  N   UNL     1       7.043   4.768  18.468  0.00  0.00    +0.000 NA
ATOM      4  C   UNL     1       5.912   5.384  18.190  0.00  0.00    +0.000 A 
ATOM      5  O   UNL     1       5.728   5.574  16.843  0.00  0.00    +0.000 OA
ENDROOT
BRANCH   1  10
ATOM      6  F   UNL     1       7.305   4.104  10.808  0.00  0.00    +0.000 F 
ATOM      7  C   UNL     1       7.149   4.326  12.119  0.00  0.00    +0.000 A 
ATOM      8  C   UNL     1       7.947   5.266  12.754  0.00  0.00    +0.000 A 
ATOM      9  C   UNL     1       7.805   5.478  14.128  0.00  0.00    +0.000 A 
ATOM     10  C   UNL     1       6.871   4.741  14.877  0.00  0.00    +0.000 A 
ATOM     11  C   UNL     1       6.055   3.814  14.207  0.00  0.00    +0.000 A 
ATOM     12  C   UNL     1       6.195   3.608  12.831  0.00  0.00    +0.000 A 
ENDBRANCH   1  10
BRANCH   4  13
ATOM     13  C   UNL     1       4.852   5.858  19.125  0.00  0.00    +0.000 C 
BRANCH  13  14
ATOM     14  N   UNL     1       3.495   6.101  18.594  0.00  0.00    +0.000 NA
ATOM     15  C   UNL     1       2.544   6.707  19.550  0.00  0.00    +0.000 C 
ATOM     16  C   UNL     1       1.909   5.760  20.601  0.00  0.00    +0.000 C 
ATOM     17  C   UNL     1       1.665   4.392  20.038  0.00  0.00    +0.000 A 
ATOM     18  C   UNL     1       1.013   3.298  20.674  0.00  0.00    +0.000 A 
ATOM     19  C   UNL     1       0.995   2.173  19.876  0.00  0.00    +0.000 A 
ATOM     20  S   UNL     1       1.764   2.437  18.369  0.00  0.00    +0.000 S 
ATOM     21  C   UNL     1       2.143   4.041  18.790  0.00  0.00    +0.000 A 
ATOM     22  C   UNL     1       2.907   4.952  17.880  0.00  0.00    +0.000 C 
ENDBRANCH  13  14
ENDBRANCH   4  13
TORSDOF 3
ENDMDL
MODEL 2
REMARK VINA RESULT:      -7.6      5.177      8.502
REMARK  Name = 
REMARK  3 active torsions:
REMARK  status: ('A' for Active; 'I' for Inactive)
REMARK    1  A    between atoms: C_5  and  C_6
REMARK    2  A    between atoms: C_9  and  C_10
REMARK    3  A    between atoms: C_10  and  N_11
REMARK                            x       y       z     vdW  Elec       q    Type
REMARK                         _______ _______ _______ _____ _____    ______ ____
ROOT
ATOM      1  C   UNL     1       1.125   9.619  19.519  0.00  0.00    +0.000 A 
ATOM      2  N   UNL     1       1.181  10.078  18.284  0.00  0.00    +0.000 NA
ATOM      3  N   UNL     1       1.916   9.168  17.558  0.00  0.00    +0.000 NA
ATOM      4  C   UNL     1       2.244   8.204  18.394  0.00  0.00    +0.000 A 
ATOM      5  O   UNL     1       1.826   8.449  19.678  0.00  0.00    +0.000 OA
ENDROOT
BRANCH   1  10
ATOM      6  F   UNL     1      -2.090  11.436  23.724  0.00  0.00    +0.000 F 
ATOM      7  C   UNL     1      -1.282  11.019  22.741  0.00  0.00    +0.000 A 
ATOM      8  C   UNL     1      -1.197  11.751  21.567  0.00  0.00    +0.000 A 
ATOM      9  C   UNL     1      -0.376  11.300  20.529  0.00  0.00    +0.000 A 
ATOM     10  C   UNL     1       0.355  10.106  20.657  0.00  0.00    +0.000 A 
ATOM     11  C   UNL     1       0.273   9.396  21.866  0.00  0.00    +0.000 A 
ATOM     12  C   UNL     1      -0.544   9.852  22.906  0.00  0.00    +0.000 A 
ENDBRANCH   1  10
BRANCH   4  13
ATOM     13  C   UNL     1       2.963   6.928  18.114  0.00  0.00    +0.000 C 
BRANCH  13  14
ATOM     14  N   UNL     1       3.522   6.166  19.249  0.00  0.00    +0.000 NA
ATOM     15  C   UNL     1       4.746   5.394  18.947  0.00  0.00    +0.000 C 
ATOM     16  C   UNL     1       4.558   4.048  18.199  0.00  0.00    +0.000 C 
ATOM     17  C   UNL     1       3.296   3.355  18.618  0.00  0.00    +0.000 A 
ATOM     18  C   UNL     1       2.846   2.063  18.221  0.00  0.00    +0.000 A 
ATOM     19  C   UNL     1       1.620   1.753  18.772  0.00  0.00    +0.000 A 
ATOM     20  S   UNL     1       1.016   3.015  19.758  0.00  0.00    +0.000 S 
ATOM     21  C   UNL     1       2.375   3.984  19.432  0.00  0.00    +0.000 A 
ATOM     22  C   UNL     1       2.531   5.365  19.991  0.00  0.00    +0.000 C 
ENDBRANCH  13  14
ENDBRANCH   4  13
TORSDOF 3
ENDMDL
MODEL 3
REMARK VINA RESULT:      -7.5      4.412      6.427
REMARK  Name = 
REMARK  3 active torsions:
REMARK  status: ('A' for Active; 'I' for Inactive)
REMARK    1  A    between atoms: C_5  and  C_6
REMARK    2  A    between atoms: C_9  and  C_10
REMARK    3  A    between atoms: C_10  and  N_11
REMARK                            x       y       z     vdW  Elec       q    Type
REMARK                         _______ _______ _______ _____ _____    ______ ____
ROOT
ATOM      1  C   UNL     1       3.179   7.514  18.026  0.00  0.00    +0.000 A 
ATOM      2  N   UNL     1       3.708   7.646  16.826  0.00  0.00    +0.000 NA
ATOM      3  N   UNL     1       4.563   6.580  16.652  0.00  0.00    +0.000 NA
ATOM      4  C   UNL     1       4.483   5.858  17.751  0.00  0.00    +0.000 A 
ATOM      5  O   UNL     1       3.667   6.421  18.699  0.00  0.00    +0.000 OA
ENDROOT
BRANCH   1  10
ATOM      6  F   UNL     1      -0.719  10.571  20.627  0.00  0.00    +0.000 F 
ATOM      7  C   UNL     1       0.178   9.813  19.985  0.00  0.00    +0.000 A 
ATOM      8  C   UNL     1       0.859   8.824  20.678  0.00  0.00    +0.000 A 
ATOM      9  C   UNL     1       1.817   8.052  20.015  0.00  0.00    +0.000 A 
ATOM     10  C   UNL     1       2.108   8.274  18.657  0.00  0.00    +0.000 A 
ATOM     11  C   UNL     1       1.385   9.264  17.971  0.00  0.00    +0.000 A 
ATOM     12  C   UNL     1       0.423  10.032  18.635  0.00  0.00    +0.000 A 
ENDBRANCH   1  10
BRANCH   4  13
ATOM     13  C   UNL     1       5.132   4.551  18.060  0.00  0.00    +0.000 C 
BRANCH  13  14
ATOM     14  N   UNL     1       4.370   3.308  17.825  0.00  0.00    +0.000 NA
ATOM     15  C   UNL     1       3.118   3.473  17.056  0.00  0.00    +0.000 C 
ATOM     16  C   UNL     1       1.890   4.022  17.828  0.00  0.00    +0.000 C 
ATOM     17  C   UNL     1       1.862   3.531  19.244  0.00  0.00    +0.000 A 
ATOM     18  C   UNL     1       0.842   3.747  20.215  0.00  0.00    +0.000 A 
ATOM     19  C   UNL     1       1.161   3.181  21.431  0.00  0.00    +0.000 A 
ATOM     20  S   UNL     1       2.683   2.398  21.402  0.00  0.00    +0.000 S 
ATOM     21  C   UNL     1       2.929   2.834  19.776  0.00  0.00    +0.000 A 
ATOM     22  C   UNL     1       4.176   2.478  19.028  0.00  0.00    +0.000 C 
ENDBRANCH  13  14
ENDBRANCH   4  13
TORSDOF 3
ENDMDL
MODEL 4
REMARK VINA RESULT:      -7.5      5.203      8.543
REMARK  Name = 
REMARK  3 active torsions:
REMARK  status: ('A' for Active; 'I' for Inactive)
REMARK    1  A    between atoms: C_5  and  C_6
REMARK    2  A    between atoms: C_9  and  C_10
REMARK    3  A    between atoms: C_10  and  N_11
REMARK                            x       y       z     vdW  Elec       q    Type
REMARK                         _______ _______ _______ _____ _____    ______ ____
ROOT
ATOM      1  C   UNL     1       1.087   9.691  19.473  0.00  0.00    +0.000 A 
ATOM      2  N   UNL     1       1.330  10.226  18.293  0.00  0.00    +0.000 NA
ATOM      3  N   UNL     1       2.076   9.306  17.589  0.00  0.00    +0.000 NA
ATOM      4  C   UNL     1       2.221   8.263  18.381  0.00  0.00    +0.000 A 
ATOM      5  O   UNL     1       1.670   8.457  19.622  0.00  0.00    +0.000 OA
ENDROOT
BRANCH   1  10
ATOM      6  F   UNL     1      -1.974  11.584  23.758  0.00  0.00    +0.000 F 
ATOM      7  C   UNL     1      -1.282  11.112  22.714  0.00  0.00    +0.000 A 
ATOM      8  C   UNL     1      -0.526   9.959  22.858  0.00  0.00    +0.000 A 
ATOM      9  C   UNL     1       0.220   9.482  21.776  0.00  0.00    +0.000 A 
ATOM     10  C   UNL     1       0.223  10.165  20.547  0.00  0.00    +0.000 A 
ATOM     11  C   UNL     1      -0.572  11.316  20.418  0.00  0.00    +0.000 A 
ATOM     12  C   UNL     1      -1.322  11.789  21.500  0.00  0.00    +0.000 A 
ENDBRANCH   1  10
BRANCH   4  13
ATOM     13  C   UNL     1       2.868   6.952  18.089  0.00  0.00    +0.000 C 
BRANCH  13  14
ATOM     14  N   UNL     1       3.476   6.198  19.203  0.00  0.00    +0.000 NA
ATOM     15  C   UNL     1       4.700   5.443  18.859  0.00  0.00    +0.000 C 
ATOM     16  C   UNL     1       4.505   4.094  18.119  0.00  0.00    +0.000 C 
ATOM     17  C   UNL     1       3.268   3.383  18.580  0.00  0.00    +0.000 A 
ATOM     18  C   UNL     1       2.823   2.085  18.199  0.00  0.00    +0.000 A 
ATOM     19  C   UNL     1       1.621   1.759  18.791  0.00  0.00    +0.000 A 
ATOM     20  S   UNL     1       1.034   3.012  19.797  0.00  0.00    +0.000 S 
ATOM     21  C   UNL     1       2.367   4.000  19.426  0.00  0.00    +0.000 A 
ATOM     22  C   UNL     1       2.522   5.383  19.979  0.00  0.00    +0.000 C 
ENDBRANCH  13  14
ENDBRANCH   4  13
TORSDOF 3
ENDMDL
MODEL 5
REMARK VINA RESULT:      -7.5      0.837      1.317
REMARK  Name = 
REMARK  3 active torsions:
REMARK  status: ('A' for Active; 'I' for Inactive)
REMARK    1  A    between atoms: C_5  and  C_6
REMARK    2  A    between atoms: C_9  and  C_10
REMARK    3  A    between atoms: C_10  and  N_11
REMARK                            x       y       z     vdW  Elec       q    Type
REMARK                         _______ _______ _______ _____ _____    ______ ____
ROOT
ATOM      1  C   UNL     1       6.498   5.658  15.810  0.00  0.00    +0.000 A 
ATOM      2  N   UNL     1       7.384   6.380  16.467  0.00  0.00    +0.000 NA
ATOM      3  N   UNL     1       6.808   6.709  17.674  0.00  0.00    +0.000 NA
ATOM      4  C   UNL     1       5.616   6.148  17.681  0.00  0.00    +0.000 A 
ATOM      5  O   UNL     1       5.322   5.510  16.502  0.00  0.00    +0.000 OA
ENDROOT
BRANCH   1  10
ATOM      6  F   UNL     1       6.768   2.984  10.902  0.00  0.00    +0.000 F 
ATOM      7  C   UNL     1       6.741   3.597  12.091  0.00  0.00    +0.000 A 
ATOM      8  C   UNL     1       5.795   3.223  13.033  0.00  0.00    +0.000 A 
ATOM      9  C   UNL     1       5.747   3.884  14.264  0.00  0.00    +0.000 A 
ATOM     10  C   UNL     1       6.639   4.931  14.555  0.00  0.00    +0.000 A 
ATOM     11  C   UNL     1       7.606   5.273  13.595  0.00  0.00    +0.000 A 
ATOM     12  C   UNL     1       7.656   4.607  12.365  0.00  0.00    +0.000 A 
ENDBRANCH   1  10
BRANCH   4  13
ATOM     13  C   UNL     1       4.607   6.111  18.778  0.00  0.00    +0.000 C 
BRANCH  13  14
ATOM     14  N   UNL     1       3.178   6.253  18.433  0.00  0.00    +0.000 NA
ATOM     15  C   UNL     1       2.326   6.823  19.498  0.00  0.00    +0.000 C 
ATOM     16  C   UNL     1       1.903   5.864  20.642  0.00  0.00    +0.000 C 
ATOM     17  C   UNL     1       1.677   4.470  20.140  0.00  0.00    +0.000 A 
ATOM     18  C   UNL     1       1.189   3.353  20.878  0.00  0.00    +0.000 A 
ATOM     19  C   UNL     1       1.139   2.210  20.109  0.00  0.00    +0.000 A 
ATOM     20  S   UNL     1       1.680   2.483  18.508  0.00  0.00    +0.000 S 
ATOM     21  C   UNL     1       2.004   4.118  18.846  0.00  0.00    +0.000 A 
ATOM     22  C   UNL     1       2.577   5.052  17.825  0.00  0.00    +0.000 C 
ENDBRANCH  13  14
ENDBRANCH   4  13
TORSDOF 3
ENDMDL
MODEL 6
REMARK VINA RESULT:      -7.4      4.378      6.378
REMARK  Name = 
REMARK  3 active torsions:
REMARK  status: ('A' for Active; 'I' for Inactive)
REMARK    1  A    between atoms: C_5  and  C_6
REMARK    2  A    between atoms: C_9  and  C_10
REMARK    3  A    between atoms: C_10  and  N_11
REMARK                            x       y       z     vdW  Elec       q    Type
REMARK                         _______ _______ _______ _____ _____    ______ ____
ROOT
ATOM      1  C   UNL     1       3.212   7.524  17.984  0.00  0.00    +0.000 A 
ATOM      2  N   UNL     1       3.677   7.636  16.755  0.00  0.00    +0.000 NA
ATOM      3  N   UNL     1       4.495   6.549  16.542  0.00  0.00    +0.000 NA
ATOM      4  C   UNL     1       4.459   5.834  17.648  0.00  0.00    +0.000 A 
ATOM      5  O   UNL     1       3.710   6.423  18.636  0.00  0.00    +0.000 OA
ENDROOT
BRANCH   1  10
ATOM      6  F   UNL     1      -0.901  10.424  20.428  0.00  0.00    +0.000 F 
ATOM      7  C   UNL     1       0.116   9.759  19.866  0.00  0.00    +0.000 A 
ATOM      8  C   UNL     1       0.465  10.025  18.552  0.00  0.00    +0.000 A 
ATOM      9  C   UNL     1       1.507   9.309  17.955  0.00  0.00    +0.000 A 
ATOM     10  C   UNL     1       2.197   8.313  18.668  0.00  0.00    +0.000 A 
ATOM     11  C   UNL     1       1.842   8.081  20.008  0.00  0.00    +0.000 A 
ATOM     12  C   UNL     1       0.803   8.802  20.605  0.00  0.00    +0.000 A 
ENDBRANCH   1  10
BRANCH   4  13
ATOM     13  C   UNL     1       5.093   4.514  17.929  0.00  0.00    +0.000 C 
BRANCH  13  14
ATOM     14  N   UNL     1       4.294   3.288  17.730  0.00  0.00    +0.000 NA
ATOM     15  C   UNL     1       3.018   3.478  17.008  0.00  0.00    +0.000 C 
ATOM     16  C   UNL     1       1.833   4.058  17.823  0.00  0.00    +0.000 C 
ATOM     17  C   UNL     1       1.847   3.575  19.242  0.00  0.00    +0.000 A 
ATOM     18  C   UNL     1       0.870   3.818  20.249  0.00  0.00    +0.000 A 
ATOM     19  C   UNL     1       1.222   3.251  21.456  0.00  0.00    +0.000 A 
ATOM     20  S   UNL     1       2.723   2.433  21.373  0.00  0.00    +0.000 S 
ATOM     21  C   UNL     1       2.917   2.856  19.737  0.00  0.00    +0.000 A 
ATOM     22  C   UNL     1       4.127   2.467  18.944  0.00  0.00    +0.000 C 
ENDBRANCH  13  14
ENDBRANCH   4  13
TORSDOF 3
ENDMDL
MODEL 7
REMARK VINA RESULT:      -7.4      5.683      6.917
REMARK  Name = 
REMARK  3 active torsions:
REMARK  status: ('A' for Active; 'I' for Inactive)
REMARK    1  A    between atoms: C_5  and  C_6
REMARK    2  A    between atoms: C_9  and  C_10
REMARK    3  A    between atoms: C_10  and  N_11
REMARK                            x       y       z     vdW  Elec       q    Type
REMARK                         _______ _______ _______ _____ _____    ______ ____
ROOT
ATOM      1  C   UNL     1       8.764   9.899  18.241  0.00  0.00    +0.000 A 
ATOM      2  N   UNL     1       9.132   9.003  19.136  0.00  0.00    +0.000 NA
ATOM      3  N   UNL     1       8.459   7.841  18.830  0.00  0.00    +0.000 NA
ATOM      4  C   UNL     1       7.740   8.100  17.756  0.00  0.00    +0.000 A 
ATOM      5  O   UNL     1       7.835   9.409  17.356  0.00  0.00    +0.000 OA
ENDROOT
BRANCH   1  10
ATOM      6  F   UNL     1      10.616  15.142  17.617  0.00  0.00    +0.000 F 
ATOM      7  C   UNL     1      10.183  13.880  17.720  0.00  0.00    +0.000 A 
ATOM      8  C   UNL     1       8.823  13.618  17.694  0.00  0.00    +0.000 A 
ATOM      9  C   UNL     1       8.369  12.302  17.831  0.00  0.00    +0.000 A 
ATOM     10  C   UNL     1       9.277  11.243  18.007  0.00  0.00    +0.000 A 
ATOM     11  C   UNL     1      10.652  11.531  18.001  0.00  0.00    +0.000 A 
ATOM     12  C   UNL     1      11.103  12.847  17.859  0.00  0.00    +0.000 A 
ENDBRANCH   1  10
BRANCH   4  13
ATOM     13  C   UNL     1       6.893   7.172  16.954  0.00  0.00    +0.000 C 
BRANCH  13  14
ATOM     14  N   UNL     1       7.289   5.753  16.857  0.00  0.00    +0.000 NA
ATOM     15  C   UNL     1       6.934   5.085  15.587  0.00  0.00    +0.000 C 
ATOM     16  C   UNL     1       5.459   4.632  15.424  0.00  0.00    +0.000 C 
ATOM     17  C   UNL     1       4.875   4.170  16.725  0.00  0.00    +0.000 A 
ATOM     18  C   UNL     1       3.589   3.597  16.942  0.00  0.00    +0.000 A 
ATOM     19  C   UNL     1       3.366   3.321  18.274  0.00  0.00    +0.000 A 
ATOM     20  S   UNL     1       4.699   3.754  19.257  0.00  0.00    +0.000 S 
ATOM     21  C   UNL     1       5.564   4.332  17.912  0.00  0.00    +0.000 A 
ATOM     22  C   UNL     1       6.927   4.939  18.033  0.00  0.00    +0.000 C 
ENDBRANCH  13  14
ENDBRANCH   4  13
TORSDOF 3
ENDMDL
MODEL 8
REMARK VINA RESULT:      -7.3      1.464      1.930
REMARK  Name = 
REMARK  3 active torsions:
REMARK  status: ('A' for Active; 'I' for Inactive)
REMARK    1  A    between atoms: C_5  and  C_6
REMARK    2  A    between atoms: C_9  and  C_10
REMARK    3  A    between atoms: C_10  and  N_11
REMARK                            x       y       z     vdW  Elec       q    Type
REMARK                         _______ _______ _______ _____ _____    ______ ____
ROOT
ATOM      1  C   UNL     1       6.258   5.671  15.486  0.00  0.00    +0.000 A 
ATOM      2  N   UNL     1       7.163   6.355  16.159  0.00  0.00    +0.000 NA
ATOM      3  N   UNL     1       6.568   6.739  17.341  0.00  0.00    +0.000 NA
ATOM      4  C   UNL     1       5.346   6.247  17.319  0.00  0.00    +0.000 A 
ATOM      5  O   UNL     1       5.054   5.604  16.142  0.00  0.00    +0.000 OA
ENDROOT
BRANCH   1  10
ATOM      6  F   UNL     1       7.051   2.633  10.855  0.00  0.00    +0.000 F 
ATOM      7  C   UNL     1       6.828   3.385  11.939  0.00  0.00    +0.000 A 
ATOM      8  C   UNL     1       7.705   4.411  12.254  0.00  0.00    +0.000 A 
ATOM      9  C   UNL     1       7.488   5.178  13.402  0.00  0.00    +0.000 A 
ATOM     10  C   UNL     1       6.398   4.913  14.250  0.00  0.00    +0.000 A 
ATOM     11  C   UNL     1       5.508   3.886  13.895  0.00  0.00    +0.000 A 
ATOM     12  C   UNL     1       5.723   3.123  12.742  0.00  0.00    +0.000 A 
ENDBRANCH   1  10
BRANCH   4  13
ATOM     13  C   UNL     1       4.302   6.289  18.383  0.00  0.00    +0.000 C 
BRANCH  13  14
ATOM     14  N   UNL     1       4.409   5.351  19.518  0.00  0.00    +0.000 NA
ATOM     15  C   UNL     1       5.155   4.105  19.237  0.00  0.00    +0.000 C 
ATOM     16  C   UNL     1       4.398   2.998  18.458  0.00  0.00    +0.000 C 
ATOM     17  C   UNL     1       2.945   2.957  18.824  0.00  0.00    +0.000 A 
ATOM     18  C   UNL     1       1.969   2.017  18.387  0.00  0.00    +0.000 A 
ATOM     19  C   UNL     1       0.718   2.301  18.893  0.00  0.00    +0.000 A 
ATOM     20  S   UNL     1       0.723   3.695  19.886  0.00  0.00    +0.000 S 
ATOM     21  C   UNL     1       2.385   3.935  19.622  0.00  0.00    +0.000 A 
ATOM     22  C   UNL     1       3.135   5.090  20.213  0.00  0.00    +0.000 C 
ENDBRANCH  13  14
ENDBRANCH   4  13
TORSDOF 3
ENDMDL
MODEL 9
REMARK VINA RESULT:      -7.3      1.807      2.440
REMARK  Name = 
REMARK  3 active torsions:
REMARK  status: ('A' for Active; 'I' for Inactive)
REMARK    1  A    between atoms: C_5  and  C_6
REMARK    2  A    between atoms: C_9  and  C_10
REMARK    3  A    between atoms: C_10  and  N_11
REMARK                            x       y       z     vdW  Elec       q    Type
REMARK                         _______ _______ _______ _____ _____    ______ ____
ROOT
ATOM      1  C   UNL     1       6.207   4.884  14.400  0.00  0.00    +0.000 A 
ATOM      2  N   UNL     1       7.218   5.552  14.921  0.00  0.00    +0.000 NA
ATOM      3  N   UNL     1       6.757   6.118  16.089  0.00  0.00    +0.000 NA
ATOM      4  C   UNL     1       5.500   5.742  16.213  0.00  0.00    +0.000 A 
ATOM      5  O   UNL     1       5.060   5.002  15.145  0.00  0.00    +0.000 OA
ENDROOT
BRANCH   1  10
ATOM      6  F   UNL     1       6.254   1.217  10.175  0.00  0.00    +0.000 F 
ATOM      7  C   UNL     1       6.229   2.128  11.155  0.00  0.00    +0.000 A 
ATOM      8  C   UNL     1       7.415   2.696  11.593  0.00  0.00    +0.000 A 
ATOM      9  C   UNL     1       7.392   3.626  12.636  0.00  0.00    +0.000 A 
ATOM     10  C   UNL     1       6.181   3.984  13.255  0.00  0.00    +0.000 A 
ATOM     11  C   UNL     1       4.989   3.416  12.774  0.00  0.00    +0.000 A 
ATOM     12  C   UNL     1       5.014   2.489  11.727  0.00  0.00    +0.000 A 
ENDBRANCH   1  10
BRANCH   4  13
ATOM     13  C   UNL     1       4.555   5.998  17.337  0.00  0.00    +0.000 C 
BRANCH  13  14
ATOM     14  N   UNL     1       4.853   5.416  18.661  0.00  0.00    +0.000 NA
ATOM     15  C   UNL     1       5.352   4.024  18.640  0.00  0.00    +0.000 C 
ATOM     16  C   UNL     1       4.296   2.906  18.441  0.00  0.00    +0.000 C 
ATOM     17  C   UNL     1       2.997   3.246  19.109  0.00  0.00    +0.000 A 
ATOM     18  C   UNL     1       1.840   2.423  19.221  0.00  0.00    +0.000 A 
ATOM     19  C   UNL     1       0.809   3.070  19.870  0.00  0.00    +0.000 A 
ATOM     20  S   UNL     1       1.235   4.661  20.337  0.00  0.00    +0.000 S 
ATOM     21  C   UNL     1       2.784   4.497  19.653  0.00  0.00    +0.000 A 
ATOM     22  C   UNL     1       3.789   5.608  19.664  0.00  0.00    +0.000 C 
ENDBRANCH  13  14
ENDBRANCH   4  13
TORSDOF 3
ENDMDL
