MODEL 1
REMARK VINA RESULT:      -7.5      0.000      0.000
REMARK  Name = 
REMARK  14 active torsions:
REMARK  status: ('A' for Active; 'I' for Inactive)
REMARK    1  A    between atoms: C_1  and  C_2
REMARK    2  A    between atoms: C_2  and  O_3
REMARK    3  A    between atoms: O_3  and  C_4
REMARK    4  A    between atoms: C_9  and  N_10
REMARK    5  A    between atoms: C_11  and  C_13
REMARK    6  A    between atoms: C_13  and  N_14
REMARK    7  A    between atoms: N_14  and  C_15
REMARK    8  A    between atoms: N_14  and  S_23
REMARK    9  A    between atoms: C_18  and  O_19
REMARK   10  A    between atoms: O_19  and  C_20
REMARK   11  A    between atoms: S_23  and  C_26
REMARK   12  A    between atoms: C_27  and  C_28
REMARK   13  A    between atoms: C_30  and  O_31
REMARK   14  A    between atoms: C_33  and  O_34
REMARK                            x       y       z     vdW  Elec       q    Type
REMARK                         _______ _______ _______ _____ _____    ______ ____
ROOT
ATOM      1  N   UNL     1       3.601   6.832  17.848  0.00  0.00    +0.000 N 
ENDROOT
BRANCH   1   2
ATOM      2  C   UNL     1       2.902   5.735  18.468  0.00  0.00    +0.000 A 
ATOM      3  C   UNL     1       3.169   5.496  19.818  0.00  0.00    +0.000 A 
ATOM      4  C   UNL     1       2.431   4.547  20.527  0.00  0.00    +0.000 A 
ATOM      5  C   UNL     1       1.443   3.808  19.884  0.00  0.00    +0.000 A 
ATOM      6  C   UNL     1       1.283   3.934  18.503  0.00  0.00    +0.000 A 
ATOM      7  C   UNL     1       2.021   4.893  17.789  0.00  0.00    +0.000 A 
BRANCH   5   8
ATOM      8  O   UNL     1       0.717   2.973  20.687  0.00  0.00    +0.000 OA
ATOM      9  C   UNL     1       1.390   2.545  21.868  0.00  0.00    +0.000 C 
ENDBRANCH   5   8
ENDBRANCH   1   2
BRANCH   1  10
ATOM     10  S   UNL     1       4.792   6.318  16.690  0.00  0.00    +0.000 S 
ATOM     11  O   UNL     1       4.419   5.045  16.114  0.00  0.00    +0.000 OA
ATOM     12  O   UNL     1       5.021   7.463  15.834  0.00  0.00    +0.000 OA
BRANCH  10  13
ATOM     13  C   UNL     1       6.206   6.034  17.695  0.00  0.00    +0.000 A 
ATOM     14  C   UNL     1       7.183   6.955  18.034  0.00  0.00    +0.000 A 
ATOM     15  C   UNL     1       7.325   8.364  17.547  0.00  0.00    +0.000 C 
ATOM     16  N   UNL     1       8.185   6.615  18.896  0.00  0.00    +0.000 NA
ATOM     17  C   UNL     1       8.189   5.375  19.384  0.00  0.00    +0.000 A 
ATOM     18  N   UNL     1       7.312   4.424  19.119  0.00  0.00    +0.000 NA
ATOM     19  C   UNL     1       6.343   4.786  18.272  0.00  0.00    +0.000 A 
BRANCH  17  20
ATOM     20  O   UNL     1       9.169   5.106  20.276  0.00  0.00    +0.000 OA
ATOM     21  H   UNL     1       8.785   4.324  20.707  0.00  0.00    +0.000 HD
ENDBRANCH  17  20
BRANCH  19  22
ATOM     22  O   UNL     1       5.452   3.781  18.095  0.00  0.00    +0.000 OA
ATOM     23  H   UNL     1       5.109   3.680  19.004  0.00  0.00    +0.000 HD
ENDBRANCH  19  22
ENDBRANCH  10  13
ENDBRANCH   1  10
BRANCH   1  24
ATOM     24  C   UNL     1       2.820   8.004  17.363  0.00  0.00    +0.000 C 
BRANCH  24  26
ATOM     25  N   UNL     1       1.941   8.696  19.544  0.00  0.00    +0.000 N 
ATOM     26  C   UNL     1       1.710   8.625  18.186  0.00  0.00    +0.000 C 
ATOM     27  O   UNL     1       0.749   9.116  17.593  0.00  0.00    +0.000 OA
ATOM     28  H   UNL     1       2.844   8.359  19.828  0.00  0.00    +0.000 HD
BRANCH  25  34
ATOM     29  C   UNL     1       0.959  10.622  20.765  0.00  0.00    +0.000 A 
ATOM     30  C   UNL     1       0.070  11.104  21.748  0.00  0.00    +0.000 A 
ATOM     31  C   UNL     1      -0.679  10.234  22.534  0.00  0.00    +0.000 A 
ATOM     32  C   UNL     1      -0.556   8.868  22.338  0.00  0.00    +0.000 A 
ATOM     33  C   UNL     1       0.320   8.377  21.364  0.00  0.00    +0.000 A 
ATOM     34  C   UNL     1       1.088   9.229  20.551  0.00  0.00    +0.000 A 
BRANCH  29  35
ATOM     35  O   UNL     1       1.530  11.645  20.042  0.00  0.00    +0.000 OA
BRANCH  35  37
ATOM     36  C   UNL     1       1.495  13.289  18.267  0.00  0.00    +0.000 C 
ATOM     37  C   UNL     1       0.697  12.301  19.097  0.00  0.00    +0.000 C 
ENDBRANCH  35  37
ENDBRANCH  29  35
ENDBRANCH  25  34
ENDBRANCH  24  26
ENDBRANCH   1  24
TORSDOF 11
ENDMDL
MODEL 2
REMARK VINA RESULT:      -7.5      1.526      1.679
REMARK  Name = 
REMARK  14 active torsions:
REMARK  status: ('A' for Active; 'I' for Inactive)
REMARK    1  A    between atoms: C_1  and  C_2
REMARK    2  A    between atoms: C_2  and  O_3
REMARK    3  A    between atoms: O_3  and  C_4
REMARK    4  A    between atoms: C_9  and  N_10
REMARK    5  A    between atoms: C_11  and  C_13
REMARK    6  A    between atoms: C_13  and  N_14
REMARK    7  A    between atoms: N_14  and  C_15
REMARK    8  A    between atoms: N_14  and  S_23
REMARK    9  A    between atoms: C_18  and  O_19
REMARK   10  A    between atoms: O_19  and  C_20
REMARK   11  A    between atoms: S_23  and  C_26
REMARK   12  A    between atoms: C_27  and  C_28
REMARK   13  A    between atoms: C_30  and  O_31
REMARK   14  A    between atoms: C_33  and  O_34
REMARK                            x       y       z     vdW  Elec       q    Type
REMARK                         _______ _______ _______ _____ _____    ______ ____
ROOT
ATOM      1  N   UNL     1       3.573   6.828  17.861  0.00  0.00    +0.000 N 
ENDROOT
BRANCH   1   2
ATOM      2  C   UNL     1       2.888   5.749  18.527  0.00  0.00    +0.000 A 
ATOM      3  C   UNL     1       3.162   5.567  19.884  0.00  0.00    +0.000 A 
ATOM      4  C   UNL     1       2.437   4.640  20.634  0.00  0.00    +0.000 A 
ATOM      5  C   UNL     1       1.455   3.866  20.024  0.00  0.00    +0.000 A 
ATOM      6  C   UNL     1       1.289   3.934  18.640  0.00  0.00    +0.000 A 
ATOM      7  C   UNL     1       2.014   4.872  17.885  0.00  0.00    +0.000 A 
BRANCH   5   8
ATOM      8  O   UNL     1       0.741   3.056  20.862  0.00  0.00    +0.000 OA
ATOM      9  C   UNL     1       1.521   2.367  21.836  0.00  0.00    +0.000 C 
ENDBRANCH   5   8
ENDBRANCH   1   2
BRANCH   1  10
ATOM     10  S   UNL     1       4.752   6.281  16.705  0.00  0.00    +0.000 S 
ATOM     11  O   UNL     1       4.364   4.999  16.158  0.00  0.00    +0.000 OA
ATOM     12  O   UNL     1       4.983   7.406  15.823  0.00  0.00    +0.000 OA
BRANCH  10  13
ATOM     13  C   UNL     1       6.171   6.006  17.705  0.00  0.00    +0.000 A 
ATOM     14  C   UNL     1       7.158   6.926  18.017  0.00  0.00    +0.000 A 
ATOM     15  C   UNL     1       7.309   8.322  17.498  0.00  0.00    +0.000 C 
ATOM     16  N   UNL     1       8.164   6.595  18.878  0.00  0.00    +0.000 NA
ATOM     17  C   UNL     1       8.161   5.367  19.394  0.00  0.00    +0.000 A 
ATOM     18  N   UNL     1       7.272   4.418  19.157  0.00  0.00    +0.000 NA
ATOM     19  C   UNL     1       6.301   4.771  18.309  0.00  0.00    +0.000 A 
BRANCH  17  20
ATOM     20  O   UNL     1       9.144   5.108  20.285  0.00  0.00    +0.000 OA
ATOM     21  H   UNL     1       9.284   6.003  20.636  0.00  0.00    +0.000 HD
ENDBRANCH  17  20
BRANCH  19  22
ATOM     22  O   UNL     1       5.399   3.770  18.162  0.00  0.00    +0.000 OA
ATOM     23  H   UNL     1       5.965   2.990  18.319  0.00  0.00    +0.000 HD
ENDBRANCH  19  22
ENDBRANCH  10  13
ENDBRANCH   1  10
BRANCH   1  24
ATOM     24  C   UNL     1       2.779   7.980  17.346  0.00  0.00    +0.000 C 
BRANCH  24  26
ATOM     25  N   UNL     1       1.011   9.658  17.597  0.00  0.00    +0.000 N 
ATOM     26  C   UNL     1       1.862   8.786  18.243  0.00  0.00    +0.000 C 
ATOM     27  O   UNL     1       1.856   8.534  19.448  0.00  0.00    +0.000 OA
ATOM     28  H   UNL     1       1.072   9.630  16.594  0.00  0.00    +0.000 HD
BRANCH  25  34
ATOM     29  C   UNL     1       0.419  11.667  18.931  0.00  0.00    +0.000 A 
ATOM     30  C   UNL     1      -0.573  12.523  19.451  0.00  0.00    +0.000 A 
ATOM     31  C   UNL     1      -1.927  12.265  19.253  0.00  0.00    +0.000 A 
ATOM     32  C   UNL     1      -2.304  11.150  18.522  0.00  0.00    +0.000 A 
ATOM     33  C   UNL     1      -1.329  10.295  17.997  0.00  0.00    +0.000 A 
ATOM     34  C   UNL     1       0.046  10.530  18.176  0.00  0.00    +0.000 A 
BRANCH  29  35
ATOM     35  O   UNL     1       1.687  12.151  19.162  0.00  0.00    +0.000 OA
BRANCH  35  37
ATOM     36  C   UNL     1       2.504  14.342  18.540  0.00  0.00    +0.000 C 
ATOM     37  C   UNL     1       2.283  12.903  18.115  0.00  0.00    +0.000 C 
ENDBRANCH  35  37
ENDBRANCH  29  35
ENDBRANCH  25  34
ENDBRANCH  24  26
ENDBRANCH   1  24
TORSDOF 11
ENDMDL
MODEL 3
REMARK VINA RESULT:      -7.4      1.636      2.246
REMARK  Name = 
REMARK  14 active torsions:
REMARK  status: ('A' for Active; 'I' for Inactive)
REMARK    1  A    between atoms: C_1  and  C_2
REMARK    2  A    between atoms: C_2  and  O_3
REMARK    3  A    between atoms: O_3  and  C_4
REMARK    4  A    between atoms: C_9  and  N_10
REMARK    5  A    between atoms: C_11  and  C_13
REMARK    6  A    between atoms: C_13  and  N_14
REMARK    7  A    between atoms: N_14  and  C_15
REMARK    8  A    between atoms: N_14  and  S_23
REMARK    9  A    between atoms: C_18  and  O_19
REMARK   10  A    between atoms: O_19  and  C_20
REMARK   11  A    between atoms: S_23  and  C_26
REMARK   12  A    between atoms: C_27  and  C_28
REMARK   13  A    between atoms: C_30  and  O_31
REMARK   14  A    between atoms: C_33  and  O_34
REMARK                            x       y       z     vdW  Elec       q    Type
REMARK                         _______ _______ _______ _____ _____    ______ ____
ROOT
ATOM      1  N   UNL     1       3.584   6.754  17.854  0.00  0.00    +0.000 N 
ENDROOT
BRANCH   1   2
ATOM      2  C   UNL     1       2.901   5.655  18.487  0.00  0.00    +0.000 A 
ATOM      3  C   UNL     1       3.185   5.423  19.834  0.00  0.00    +0.000 A 
ATOM      4  C   UNL     1       2.463   4.471  20.556  0.00  0.00    +0.000 A 
ATOM      5  C   UNL     1       1.473   3.723  19.926  0.00  0.00    +0.000 A 
ATOM      6  C   UNL     1       1.296   3.842  18.547  0.00  0.00    +0.000 A 
ATOM      7  C   UNL     1       2.018   4.804  17.821  0.00  0.00    +0.000 A 
BRANCH   5   8
ATOM      8  O   UNL     1       0.762   2.886  20.741  0.00  0.00    +0.000 OA
ATOM      9  C   UNL     1       1.453   2.466  21.915  0.00  0.00    +0.000 C 
ENDBRANCH   5   8
ENDBRANCH   1   2
BRANCH   1  10
ATOM     10  S   UNL     1       4.783   6.245  16.703  0.00  0.00    +0.000 S 
ATOM     11  O   UNL     1       4.422   4.965  16.132  0.00  0.00    +0.000 OA
ATOM     12  O   UNL     1       5.004   7.387  15.840  0.00  0.00    +0.000 OA
BRANCH  10  13
ATOM     13  C   UNL     1       6.196   5.978  17.713  0.00  0.00    +0.000 A 
ATOM     14  C   UNL     1       7.165   6.909  18.048  0.00  0.00    +0.000 A 
ATOM     15  C   UNL     1       7.298   8.315  17.551  0.00  0.00    +0.000 C 
ATOM     16  N   UNL     1       8.168   6.582  18.914  0.00  0.00    +0.000 NA
ATOM     17  C   UNL     1       8.180   5.346  19.412  0.00  0.00    +0.000 A 
ATOM     18  N   UNL     1       7.309   4.387  19.152  0.00  0.00    +0.000 NA
ATOM     19  C   UNL     1       6.340   4.736  18.299  0.00  0.00    +0.000 A 
BRANCH  17  20
ATOM     20  O   UNL     1       9.158   5.090  20.309  0.00  0.00    +0.000 OA
ATOM     21  H   UNL     1       9.523   5.985  20.410  0.00  0.00    +0.000 HD
ENDBRANCH  17  20
BRANCH  19  22
ATOM     22  O   UNL     1       5.457   3.723  18.128  0.00  0.00    +0.000 OA
ATOM     23  H   UNL     1       5.719   3.400  17.245  0.00  0.00    +0.000 HD
ENDBRANCH  19  22
ENDBRANCH  10  13
ENDBRANCH   1  10
BRANCH   1  24
ATOM     24  C   UNL     1       2.786   7.910  17.355  0.00  0.00    +0.000 C 
BRANCH  24  26
ATOM     25  N   UNL     1       1.509   9.971  17.718  0.00  0.00    +0.000 N 
ATOM     26  C   UNL     1       2.042   8.837  18.295  0.00  0.00    +0.000 C 
ATOM     27  O   UNL     1       1.867   8.471  19.457  0.00  0.00    +0.000 OA
ATOM     28  H   UNL     1       1.646  10.033  16.724  0.00  0.00    +0.000 HD
BRANCH  25  34
ATOM     29  C   UNL     1      -0.645  10.941  18.482  0.00  0.00    +0.000 A 
ATOM     30  C   UNL     1      -1.337  11.971  19.150  0.00  0.00    +0.000 A 
ATOM     31  C   UNL     1      -0.665  13.072  19.673  0.00  0.00    +0.000 A 
ATOM     32  C   UNL     1       0.712  13.151  19.541  0.00  0.00    +0.000 A 
ATOM     33  C   UNL     1       1.411  12.133  18.883  0.00  0.00    +0.000 A 
ATOM     34  C   UNL     1       0.762  11.006  18.348  0.00  0.00    +0.000 A 
BRANCH  29  35
ATOM     35  O   UNL     1      -1.481   9.907  18.126  0.00  0.00    +0.000 OA
BRANCH  35  37
ATOM     36  C   UNL     1      -3.570  10.343  16.983  0.00  0.00    +0.000 C 
ATOM     37  C   UNL     1      -2.099   9.995  16.850  0.00  0.00    +0.000 C 
ENDBRANCH  35  37
ENDBRANCH  29  35
ENDBRANCH  25  34
ENDBRANCH  24  26
ENDBRANCH   1  24
TORSDOF 11
ENDMDL
MODEL 4
REMARK VINA RESULT:      -7.4      2.426      4.603
REMARK  Name = 
REMARK  14 active torsions:
REMARK  status: ('A' for Active; 'I' for Inactive)
REMARK    1  A    between atoms: C_1  and  C_2
REMARK    2  A    between atoms: C_2  and  O_3
REMARK    3  A    between atoms: O_3  and  C_4
REMARK    4  A    between atoms: C_9  and  N_10
REMARK    5  A    between atoms: C_11  and  C_13
REMARK    6  A    between atoms: C_13  and  N_14
REMARK    7  A    between atoms: N_14  and  C_15
REMARK    8  A    between atoms: N_14  and  S_23
REMARK    9  A    between atoms: C_18  and  O_19
REMARK   10  A    between atoms: O_19  and  C_20
REMARK   11  A    between atoms: S_23  and  C_26
REMARK   12  A    between atoms: C_27  and  C_28
REMARK   13  A    between atoms: C_30  and  O_31
REMARK   14  A    between atoms: C_33  and  O_34
REMARK                            x       y       z     vdW  Elec       q    Type
REMARK                         _______ _______ _______ _____ _____    ______ ____
ROOT
ATOM      1  N   UNL     1       2.388   5.457  18.809  0.00  0.00    +0.000 N 
ENDROOT
BRANCH   1   2
ATOM      2  C   UNL     1       3.739   5.715  18.380  0.00  0.00    +0.000 A 
ATOM      3  C   UNL     1       3.909   6.211  17.086  0.00  0.00    +0.000 A 
ATOM      4  C   UNL     1       5.168   6.619  16.645  0.00  0.00    +0.000 A 
ATOM      5  C   UNL     1       6.272   6.505  17.484  0.00  0.00    +0.000 A 
ATOM      6  C   UNL     1       6.133   5.866  18.717  0.00  0.00    +0.000 A 
ATOM      7  C   UNL     1       4.864   5.460  19.165  0.00  0.00    +0.000 A 
BRANCH   5   8
ATOM      8  O   UNL     1       7.440   7.018  16.992  0.00  0.00    +0.000 OA
ATOM      9  C   UNL     1       7.865   8.233  17.605  0.00  0.00    +0.000 C 
ENDBRANCH   5   8
ENDBRANCH   1   2
BRANCH   1  10
ATOM     10  S   UNL     1       1.910   3.798  18.609  0.00  0.00    +0.000 S 
ATOM     11  O   UNL     1       0.589   3.583  19.157  0.00  0.00    +0.000 OA
ATOM     12  O   UNL     1       2.180   3.479  17.223  0.00  0.00    +0.000 OA
BRANCH  10  13
ATOM     13  C   UNL     1       3.043   2.945  19.648  0.00  0.00    +0.000 A 
ATOM     14  C   UNL     1       2.917   2.724  21.009  0.00  0.00    +0.000 A 
ATOM     15  C   UNL     1       1.857   3.243  21.929  0.00  0.00    +0.000 C 
ATOM     16  N   UNL     1       3.839   1.969  21.675  0.00  0.00    +0.000 NA
ATOM     17  C   UNL     1       4.853   1.466  20.973  0.00  0.00    +0.000 A 
ATOM     18  N   UNL     1       5.066   1.623  19.679  0.00  0.00    +0.000 NA
ATOM     19  C   UNL     1       4.149   2.368  19.054  0.00  0.00    +0.000 A 
BRANCH  17  20
ATOM     20  O   UNL     1       5.706   0.679  21.667  0.00  0.00    +0.000 OA
ATOM     21  H   UNL     1       5.404   0.869  22.570  0.00  0.00    +0.000 HD
ENDBRANCH  17  20
BRANCH  19  22
ATOM     22  O   UNL     1       4.402   2.435  17.724  0.00  0.00    +0.000 OA
ATOM     23  H   UNL     1       5.223   1.910  17.669  0.00  0.00    +0.000 HD
ENDBRANCH  19  22
ENDBRANCH  10  13
ENDBRANCH   1  10
BRANCH   1  24
ATOM     24  C   UNL     1       1.923   6.019  20.110  0.00  0.00    +0.000 C 
BRANCH  24  26
ATOM     25  N   UNL     1       0.515   7.764  21.099  0.00  0.00    +0.000 N 
ATOM     26  C   UNL     1       1.585   7.487  20.274  0.00  0.00    +0.000 C 
ATOM     27  O   UNL     1       2.336   8.319  19.766  0.00  0.00    +0.000 OA
ATOM     28  H   UNL     1       0.104   6.954  21.530  0.00  0.00    +0.000 HD
BRANCH  25  34
ATOM     29  C   UNL     1      -0.368   9.994  20.457  0.00  0.00    +0.000 A 
ATOM     30  C   UNL     1      -0.933  11.227  20.842  0.00  0.00    +0.000 A 
ATOM     31  C   UNL     1      -1.143  11.539  22.182  0.00  0.00    +0.000 A 
ATOM     32  C   UNL     1      -0.799  10.614  23.154  0.00  0.00    +0.000 A 
ATOM     33  C   UNL     1      -0.241   9.385  22.785  0.00  0.00    +0.000 A 
ATOM     34  C   UNL     1      -0.020   9.038  21.441  0.00  0.00    +0.000 A 
BRANCH  29  35
ATOM     35  O   UNL     1      -0.331   9.850  19.088  0.00  0.00    +0.000 OA
BRANCH  35  37
ATOM     36  C   UNL     1      -2.281   9.942  17.657  0.00  0.00    +0.000 C 
ATOM     37  C   UNL     1      -1.165  10.717  18.332  0.00  0.00    +0.000 C 
ENDBRANCH  35  37
ENDBRANCH  29  35
ENDBRANCH  25  34
ENDBRANCH  24  26
ENDBRANCH   1  24
TORSDOF 11
ENDMDL
MODEL 5
REMARK VINA RESULT:      -7.2      2.385      4.460
REMARK  Name = 
REMARK  14 active torsions:
REMARK  status: ('A' for Active; 'I' for Inactive)
REMARK    1  A    between atoms: C_1  and  C_2
REMARK    2  A    between atoms: C_2  and  O_3
REMARK    3  A    between atoms: O_3  and  C_4
REMARK    4  A    between atoms: C_9  and  N_10
REMARK    5  A    between atoms: C_11  and  C_13
REMARK    6  A    between atoms: C_13  and  N_14
REMARK    7  A    between atoms: N_14  and  C_15
REMARK    8  A    between atoms: N_14  and  S_23
REMARK    9  A    between atoms: C_18  and  O_19
REMARK   10  A    between atoms: O_19  and  C_20
REMARK   11  A    between atoms: S_23  and  C_26
REMARK   12  A    between atoms: C_27  and  C_28
REMARK   13  A    between atoms: C_30  and  O_31
REMARK   14  A    between atoms: C_33  and  O_34
REMARK                            x       y       z     vdW  Elec       q    Type
REMARK                         _______ _______ _______ _____ _____    ______ ____
ROOT
ATOM      1  N   UNL     1       1.983   5.298  19.028  0.00  0.00    +0.000 N 
ENDROOT
BRANCH   1   2
ATOM      2  C   UNL     1       3.294   5.706  18.588  0.00  0.00    +0.000 A 
ATOM      3  C   UNL     1       4.352   5.500  19.475  0.00  0.00    +0.000 A 
ATOM      4  C   UNL     1       5.668   5.735  19.074  0.00  0.00    +0.000 A 
ATOM      5  C   UNL     1       5.932   6.206  17.792  0.00  0.00    +0.000 A 
ATOM      6  C   UNL     1       4.869   6.560  16.959  0.00  0.00    +0.000 A 
ATOM      7  C   UNL     1       3.544   6.319  17.360  0.00  0.00    +0.000 A 
BRANCH   5   8
ATOM      8  O   UNL     1       7.255   6.315  17.466  0.00  0.00    +0.000 OA
ATOM      9  C   UNL     1       8.096   6.764  18.526  0.00  0.00    +0.000 C 
ENDBRANCH   5   8
ENDBRANCH   1   2
BRANCH   1  10
ATOM     10  S   UNL     1       1.669   3.608  18.768  0.00  0.00    +0.000 S 
ATOM     11  O   UNL     1       0.382   3.243  19.320  0.00  0.00    +0.000 OA
ATOM     12  O   UNL     1       1.950   3.370  17.368  0.00  0.00    +0.000 OA
BRANCH  10  13
ATOM     13  C   UNL     1       2.893   2.833  19.762  0.00  0.00    +0.000 A 
ATOM     14  C   UNL     1       2.809   2.551  21.115  0.00  0.00    +0.000 A 
ATOM     15  C   UNL     1       1.716   2.930  22.065  0.00  0.00    +0.000 C 
ATOM     16  N   UNL     1       3.809   1.866  21.743  0.00  0.00    +0.000 NA
ATOM     17  C   UNL     1       4.857   1.491  21.012  0.00  0.00    +0.000 A 
ATOM     18  N   UNL     1       5.036   1.715  19.722  0.00  0.00    +0.000 NA
ATOM     19  C   UNL     1       4.042   2.389  19.136  0.00  0.00    +0.000 A 
BRANCH  17  20
ATOM     20  O   UNL     1       5.792   0.766  21.666  0.00  0.00    +0.000 OA
ATOM     21  H   UNL     1       5.268  -0.026  21.872  0.00  0.00    +0.000 HD
ENDBRANCH  17  20
BRANCH  19  22
ATOM     22  O   UNL     1       4.268   2.528  17.806  0.00  0.00    +0.000 OA
ATOM     23  H   UNL     1       4.570   3.455  17.769  0.00  0.00    +0.000 HD
ENDBRANCH  19  22
ENDBRANCH  10  13
ENDBRANCH   1  10
BRANCH   1  24
ATOM     24  C   UNL     1       1.492   5.760  20.357  0.00  0.00    +0.000 C 
BRANCH  24  26
ATOM     25  N   UNL     1       0.130   7.667  21.075  0.00  0.00    +0.000 N 
ATOM     26  C   UNL     1       1.385   7.230  20.706  0.00  0.00    +0.000 C 
ATOM     27  O   UNL     1       2.420   7.896  20.748  0.00  0.00    +0.000 OA
ATOM     28  H   UNL     1      -0.568   6.944  21.106  0.00  0.00    +0.000 HD
BRANCH  25  34
ATOM     29  C   UNL     1      -0.410  10.025  20.514  0.00  0.00    +0.000 A 
ATOM     30  C   UNL     1      -0.840  11.299  20.936  0.00  0.00    +0.000 A 
ATOM     31  C   UNL     1      -1.111  11.564  22.275  0.00  0.00    +0.000 A 
ATOM     32  C   UNL     1      -0.963  10.552  23.209  0.00  0.00    +0.000 A 
ATOM     33  C   UNL     1      -0.540   9.281  22.803  0.00  0.00    +0.000 A 
ATOM     34  C   UNL     1      -0.263   8.981  21.458  0.00  0.00    +0.000 A 
BRANCH  29  35
ATOM     35  O   UNL     1      -0.287   9.951  19.145  0.00  0.00    +0.000 OA
BRANCH  35  37
ATOM     36  C   UNL     1       1.706   9.519  17.842  0.00  0.00    +0.000 C 
ATOM     37  C   UNL     1       0.867  10.550  18.573  0.00  0.00    +0.000 C 
ENDBRANCH  35  37
ENDBRANCH  29  35
ENDBRANCH  25  34
ENDBRANCH  24  26
ENDBRANCH   1  24
TORSDOF 11
ENDMDL
MODEL 6
REMARK VINA RESULT:      -7.2      2.527      4.394
REMARK  Name = 
REMARK  14 active torsions:
REMARK  status: ('A' for Active; 'I' for Inactive)
REMARK    1  A    between atoms: C_1  and  C_2
REMARK    2  A    between atoms: C_2  and  O_3
REMARK    3  A    between atoms: O_3  and  C_4
REMARK    4  A    between atoms: C_9  and  N_10
REMARK    5  A    between atoms: C_11  and  C_13
REMARK    6  A    between atoms: C_13  and  N_14
REMARK    7  A    between atoms: N_14  and  C_15
REMARK    8  A    between atoms: N_14  and  S_23
REMARK    9  A    between atoms: C_18  and  O_19
REMARK   10  A    between atoms: O_19  and  C_20
REMARK   11  A    between atoms: S_23  and  C_26
REMARK   12  A    between atoms: C_27  and  C_28
REMARK   13  A    between atoms: C_30  and  O_31
REMARK   14  A    between atoms: C_33  and  O_34
REMARK                            x       y       z     vdW  Elec       q    Type
REMARK                         _______ _______ _______ _____ _____    ______ ____
ROOT
ATOM      1  N   UNL     1       2.006   5.557  19.204  0.00  0.00    +0.000 N 
ENDROOT
BRANCH   1   2
ATOM      2  C   UNL     1       3.325   5.691  18.639  0.00  0.00    +0.000 A 
ATOM      3  C   UNL     1       4.406   5.558  19.513  0.00  0.00    +0.000 A 
ATOM      4  C   UNL     1       5.712   5.533  19.024  0.00  0.00    +0.000 A 
ATOM      5  C   UNL     1       5.949   5.672  17.659  0.00  0.00    +0.000 A 
ATOM      6  C   UNL     1       4.884   5.962  16.805  0.00  0.00    +0.000 A 
ATOM      7  C   UNL     1       3.567   5.982  17.296  0.00  0.00    +0.000 A 
BRANCH   5   8
ATOM      8  O   UNL     1       7.253   5.542  17.273  0.00  0.00    +0.000 OA
ATOM      9  C   UNL     1       7.957   4.471  17.898  0.00  0.00    +0.000 C 
ENDBRANCH   5   8
ENDBRANCH   1   2
BRANCH   1  10
ATOM     10  S   UNL     1       1.377   3.939  19.098  0.00  0.00    +0.000 S 
ATOM     11  O   UNL     1       0.266   3.768  20.009  0.00  0.00    +0.000 OA
ATOM     12  O   UNL     1       1.200   3.683  17.683  0.00  0.00    +0.000 OA
BRANCH  10  13
ATOM     13  C   UNL     1       2.705   2.969  19.717  0.00  0.00    +0.000 A 
ATOM     14  C   UNL     1       3.736   2.407  18.983  0.00  0.00    +0.000 A 
ATOM     15  C   UNL     1       3.906   2.399  17.495  0.00  0.00    +0.000 C 
ATOM     16  N   UNL     1       4.751   1.745  19.611  0.00  0.00    +0.000 NA
ATOM     17  C   UNL     1       4.706   1.657  20.939  0.00  0.00    +0.000 A 
ATOM     18  N   UNL     1       3.768   2.150  21.727  0.00  0.00    +0.000 NA
ATOM     19  C   UNL     1       2.787   2.792  21.084  0.00  0.00    +0.000 A 
BRANCH  17  20
ATOM     20  O   UNL     1       5.763   1.042  21.516  0.00  0.00    +0.000 OA
ATOM     21  H   UNL     1       6.401   1.096  20.786  0.00  0.00    +0.000 HD
ENDBRANCH  17  20
BRANCH  19  22
ATOM     22  O   UNL     1       1.897   3.319  21.960  0.00  0.00    +0.000 OA
ATOM     23  H   UNL     1       1.725   4.186  21.544  0.00  0.00    +0.000 HD
ENDBRANCH  19  22
ENDBRANCH  10  13
ENDBRANCH   1  10
BRANCH   1  24
ATOM     24  C   UNL     1       1.721   6.181  20.528  0.00  0.00    +0.000 C 
BRANCH  24  26
ATOM     25  N   UNL     1       0.259   7.973  21.338  0.00  0.00    +0.000 N 
ATOM     26  C   UNL     1       1.424   7.659  20.670  0.00  0.00    +0.000 C 
ATOM     27  O   UNL     1       2.276   8.464  20.292  0.00  0.00    +0.000 OA
ATOM     28  H   UNL     1      -0.244   7.177  21.689  0.00  0.00    +0.000 HD
BRANCH  25  34
ATOM     29  C   UNL     1      -0.533  10.209  20.602  0.00  0.00    +0.000 A 
ATOM     30  C   UNL     1      -1.091  11.461  20.930  0.00  0.00    +0.000 A 
ATOM     31  C   UNL     1      -1.372  11.805  22.249  0.00  0.00    +0.000 A 
ATOM     32  C   UNL     1      -1.108  10.892  23.257  0.00  0.00    +0.000 A 
ATOM     33  C   UNL     1      -0.558   9.644  22.945  0.00  0.00    +0.000 A 
ATOM     34  C   UNL     1      -0.266   9.266  21.623  0.00  0.00    +0.000 A 
BRANCH  29  35
ATOM     35  O   UNL     1      -0.420  10.037  19.241  0.00  0.00    +0.000 OA
BRANCH  35  37
ATOM     36  C   UNL     1      -1.699  11.265  17.595  0.00  0.00    +0.000 C 
ATOM     37  C   UNL     1      -1.627  10.045  18.493  0.00  0.00    +0.000 C 
ENDBRANCH  35  37
ENDBRANCH  29  35
ENDBRANCH  25  34
ENDBRANCH  24  26
ENDBRANCH   1  24
TORSDOF 11
ENDMDL
MODEL 7
REMARK VINA RESULT:      -7.0      2.347      4.861
REMARK  Name = 
REMARK  14 active torsions:
REMARK  status: ('A' for Active; 'I' for Inactive)
REMARK    1  A    between atoms: C_1  and  C_2
REMARK    2  A    between atoms: C_2  and  O_3
REMARK    3  A    between atoms: O_3  and  C_4
REMARK    4  A    between atoms: C_9  and  N_10
REMARK    5  A    between atoms: C_11  and  C_13
REMARK    6  A    between atoms: C_13  and  N_14
REMARK    7  A    between atoms: N_14  and  C_15
REMARK    8  A    between atoms: N_14  and  S_23
REMARK    9  A    between atoms: C_18  and  O_19
REMARK   10  A    between atoms: O_19  and  C_20
REMARK   11  A    between atoms: S_23  and  C_26
REMARK   12  A    between atoms: C_27  and  C_28
REMARK   13  A    between atoms: C_30  and  O_31
REMARK   14  A    between atoms: C_33  and  O_34
REMARK                            x       y       z     vdW  Elec       q    Type
REMARK                         _______ _______ _______ _____ _____    ______ ____
ROOT
ATOM      1  N   UNL     1       2.408   5.454  18.621  0.00  0.00    +0.000 N 
ENDROOT
BRANCH   1   2
ATOM      2  C   UNL     1       3.778   5.714  18.257  0.00  0.00    +0.000 A 
ATOM      3  C   UNL     1       4.012   6.175  16.960  0.00  0.00    +0.000 A 
ATOM      4  C   UNL     1       5.289   6.584  16.574  0.00  0.00    +0.000 A 
ATOM      5  C   UNL     1       6.348   6.505  17.473  0.00  0.00    +0.000 A 
ATOM      6  C   UNL     1       6.149   5.899  18.715  0.00  0.00    +0.000 A 
ATOM      7  C   UNL     1       4.863   5.493  19.106  0.00  0.00    +0.000 A 
BRANCH   5   8
ATOM      8  O   UNL     1       7.536   7.016  17.029  0.00  0.00    +0.000 OA
ATOM      9  C   UNL     1       7.919   8.249  17.632  0.00  0.00    +0.000 C 
ENDBRANCH   5   8
ENDBRANCH   1   2
BRANCH   1  10
ATOM     10  S   UNL     1       1.955   3.786  18.438  0.00  0.00    +0.000 S 
ATOM     11  O   UNL     1       0.613   3.570  18.932  0.00  0.00    +0.000 OA
ATOM     12  O   UNL     1       2.289   3.440  17.072  0.00  0.00    +0.000 OA
BRANCH  10  13
ATOM     13  C   UNL     1       3.049   2.968  19.543  0.00  0.00    +0.000 A 
ATOM     14  C   UNL     1       2.869   2.780  20.904  0.00  0.00    +0.000 A 
ATOM     15  C   UNL     1       1.768   3.315  21.766  0.00  0.00    +0.000 C 
ATOM     16  N   UNL     1       3.767   2.049  21.626  0.00  0.00    +0.000 NA
ATOM     17  C   UNL     1       4.812   1.536  20.979  0.00  0.00    +0.000 A 
ATOM     18  N   UNL     1       5.078   1.662  19.691  0.00  0.00    +0.000 NA
ATOM     19  C   UNL     1       4.182   2.384  19.010  0.00  0.00    +0.000 A 
BRANCH  17  20
ATOM     20  O   UNL     1       5.640   0.772  21.727  0.00  0.00    +0.000 OA
ATOM     21  H   UNL     1       4.995   0.148  22.097  0.00  0.00    +0.000 HD
ENDBRANCH  17  20
BRANCH  19  22
ATOM     22  O   UNL     1       4.489   2.419  17.691  0.00  0.00    +0.000 OA
ATOM     23  H   UNL     1       4.986   3.257  17.642  0.00  0.00    +0.000 HD
ENDBRANCH  19  22
ENDBRANCH  10  13
ENDBRANCH   1  10
BRANCH   1  24
ATOM     24  C   UNL     1       1.872   6.043  19.881  0.00  0.00    +0.000 C 
BRANCH  24  26
ATOM     25  N   UNL     1       1.426   8.315  19.075  0.00  0.00    +0.000 N 
ATOM     26  C   UNL     1       1.864   7.538  20.128  0.00  0.00    +0.000 C 
ATOM     27  O   UNL     1       2.132   7.944  21.259  0.00  0.00    +0.000 OA
ATOM     28  H   UNL     1       1.125   7.792  18.272  0.00  0.00    +0.000 HD
BRANCH  25  34
ATOM     29  C   UNL     1       0.388  10.438  19.835  0.00  0.00    +0.000 A 
ATOM     30  C   UNL     1       0.334  11.846  19.778  0.00  0.00    +0.000 A 
ATOM     31  C   UNL     1       1.160  12.566  18.921  0.00  0.00    +0.000 A 
ATOM     32  C   UNL     1       2.059  11.886  18.115  0.00  0.00    +0.000 A 
ATOM     33  C   UNL     1       2.124  10.489  18.165  0.00  0.00    +0.000 A 
ATOM     34  C   UNL     1       1.307   9.732  19.023  0.00  0.00    +0.000 A 
BRANCH  29  35
ATOM     35  O   UNL     1      -0.443   9.931  20.809  0.00  0.00    +0.000 OA
BRANCH  35  37
ATOM     36  C   UNL     1      -1.141  10.870  22.928  0.00  0.00    +0.000 C 
ATOM     37  C   UNL     1      -0.052  10.147  22.158  0.00  0.00    +0.000 C 
ENDBRANCH  35  37
ENDBRANCH  29  35
ENDBRANCH  25  34
ENDBRANCH  24  26
ENDBRANCH   1  24
TORSDOF 11
ENDMDL
MODEL 8
REMARK VINA RESULT:      -7.0      2.473      4.831
REMARK  Name = 
REMARK  14 active torsions:
REMARK  status: ('A' for Active; 'I' for Inactive)
REMARK    1  A    between atoms: C_1  and  C_2
REMARK    2  A    between atoms: C_2  and  O_3
REMARK    3  A    between atoms: O_3  and  C_4
REMARK    4  A    between atoms: C_9  and  N_10
REMARK    5  A    between atoms: C_11  and  C_13
REMARK    6  A    between atoms: C_13  and  N_14
REMARK    7  A    between atoms: N_14  and  C_15
REMARK    8  A    between atoms: N_14  and  S_23
REMARK    9  A    between atoms: C_18  and  O_19
REMARK   10  A    between atoms: O_19  and  C_20
REMARK   11  A    between atoms: S_23  and  C_26
REMARK   12  A    between atoms: C_27  and  C_28
REMARK   13  A    between atoms: C_30  and  O_31
REMARK   14  A    between atoms: C_33  and  O_34
REMARK                            x       y       z     vdW  Elec       q    Type
REMARK                         _______ _______ _______ _____ _____    ______ ____
ROOT
ATOM      1  N   UNL     1       2.849   5.380  17.828  0.00  0.00    +0.000 N 
ENDROOT
BRANCH   1   2
ATOM      2  C   UNL     1       4.169   5.265  17.262  0.00  0.00    +0.000 A 
ATOM      3  C   UNL     1       4.265   4.711  15.984  0.00  0.00    +0.000 A 
ATOM      4  C   UNL     1       5.486   4.695  15.309  0.00  0.00    +0.000 A 
ATOM      5  C   UNL     1       6.627   5.205  15.921  0.00  0.00    +0.000 A 
ATOM      6  C   UNL     1       6.565   5.615  17.254  0.00  0.00    +0.000 A 
ATOM      7  C   UNL     1       5.335   5.637  17.932  0.00  0.00    +0.000 A 
BRANCH   5   8
ATOM      8  O   UNL     1       7.751   5.228  15.143  0.00  0.00    +0.000 OA
ATOM      9  C   UNL     1       7.523   4.986  13.757  0.00  0.00    +0.000 C 
ENDBRANCH   5   8
ENDBRANCH   1   2
BRANCH   1  10
ATOM     10  S   UNL     1       2.083   3.842  18.095  0.00  0.00    +0.000 S 
ATOM     11  O   UNL     1       0.783   4.025  18.704  0.00  0.00    +0.000 OA
ATOM     12  O   UNL     1       2.202   3.125  16.843  0.00  0.00    +0.000 OA
BRANCH  10  13
ATOM     13  C   UNL     1       3.119   3.102  19.306  0.00  0.00    +0.000 A 
ATOM     14  C   UNL     1       2.993   3.204  20.682  0.00  0.00    +0.000 A 
ATOM     15  C   UNL     1       2.024   4.043  21.455  0.00  0.00    +0.000 C 
ATOM     16  N   UNL     1       3.825   2.504  21.506  0.00  0.00    +0.000 NA
ATOM     17  C   UNL     1       4.755   1.735  20.941  0.00  0.00    +0.000 A 
ATOM     18  N   UNL     1       4.961   1.575  19.646  0.00  0.00    +0.000 NA
ATOM     19  C   UNL     1       4.132   2.274  18.864  0.00  0.00    +0.000 A 
BRANCH  17  20
ATOM     20  O   UNL     1       5.516   1.018  21.799  0.00  0.00    +0.000 OA
ATOM     21  H   UNL     1       5.298   1.474  22.628  0.00  0.00    +0.000 HD
ENDBRANCH  17  20
BRANCH  19  22
ATOM     22  O   UNL     1       4.366   2.014  17.555  0.00  0.00    +0.000 OA
ATOM     23  H   UNL     1       3.876   1.176  17.446  0.00  0.00    +0.000 HD
ENDBRANCH  19  22
ENDBRANCH  10  13
ENDBRANCH   1  10
BRANCH   1  24
ATOM     24  C   UNL     1       2.629   6.318  18.965  0.00  0.00    +0.000 C 
BRANCH  24  26
ATOM     25  N   UNL     1       1.296   8.279  19.586  0.00  0.00    +0.000 N 
ATOM     26  C   UNL     1       2.265   7.772  18.745  0.00  0.00    +0.000 C 
ATOM     27  O   UNL     1       2.921   8.421  17.930  0.00  0.00    +0.000 OA
ATOM     28  H   UNL     1       0.968   7.629  20.278  0.00  0.00    +0.000 HD
BRANCH  25  34
ATOM     29  C   UNL     1       0.866  10.424  20.761  0.00  0.00    +0.000 A 
ATOM     30  C   UNL     1       0.361  11.740  20.729  0.00  0.00    +0.000 A 
ATOM     31  C   UNL     1      -0.256  12.249  19.590  0.00  0.00    +0.000 A 
ATOM     32  C   UNL     1      -0.367  11.449  18.465  0.00  0.00    +0.000 A 
ATOM     33  C   UNL     1       0.133  10.142  18.483  0.00  0.00    +0.000 A 
ATOM     34  C   UNL     1       0.766   9.600  19.615  0.00  0.00    +0.000 A 
BRANCH  29  35
ATOM     35  O   UNL     1       1.516  10.152  21.944  0.00  0.00    +0.000 OA
BRANCH  35  37
ATOM     36  C   UNL     1      -0.417   9.623  23.300  0.00  0.00    +0.000 C 
ATOM     37  C   UNL     1       0.933   9.164  22.781  0.00  0.00    +0.000 C 
ENDBRANCH  35  37
ENDBRANCH  29  35
ENDBRANCH  25  34
ENDBRANCH  24  26
ENDBRANCH   1  24
TORSDOF 11
ENDMDL
MODEL 9
REMARK VINA RESULT:      -7.0      2.587      4.658
REMARK  Name = 
REMARK  14 active torsions:
REMARK  status: ('A' for Active; 'I' for Inactive)
REMARK    1  A    between atoms: C_1  and  C_2
REMARK    2  A    between atoms: C_2  and  O_3
REMARK    3  A    between atoms: O_3  and  C_4
REMARK    4  A    between atoms: C_9  and  N_10
REMARK    5  A    between atoms: C_11  and  C_13
REMARK    6  A    between atoms: C_13  and  N_14
REMARK    7  A    between atoms: N_14  and  C_15
REMARK    8  A    between atoms: N_14  and  S_23
REMARK    9  A    between atoms: C_18  and  O_19
REMARK   10  A    between atoms: O_19  and  C_20
REMARK   11  A    between atoms: S_23  and  C_26
REMARK   12  A    between atoms: C_27  and  C_28
REMARK   13  A    between atoms: C_30  and  O_31
REMARK   14  A    between atoms: C_33  and  O_34
REMARK                            x       y       z     vdW  Elec       q    Type
REMARK                         _______ _______ _______ _____ _____    ______ ____
ROOT
ATOM      1  N   UNL     1       2.216   5.896  19.219  0.00  0.00    +0.000 N 
ENDROOT
BRANCH   1   2
ATOM      2  C   UNL     1       3.508   5.957  18.584  0.00  0.00    +0.000 A 
ATOM      3  C   UNL     1       4.620   5.679  19.382  0.00  0.00    +0.000 A 
ATOM      4  C   UNL     1       5.890   5.577  18.815  0.00  0.00    +0.000 A 
ATOM      5  C   UNL     1       6.063   5.783  17.449  0.00  0.00    +0.000 A 
ATOM      6  C   UNL     1       4.982   6.215  16.679  0.00  0.00    +0.000 A 
ATOM      7  C   UNL     1       3.701   6.312  17.249  0.00  0.00    +0.000 A 
BRANCH   5   8
ATOM      8  O   UNL     1       7.328   5.570  16.978  0.00  0.00    +0.000 OA
ATOM      9  C   UNL     1       7.394   4.854  15.747  0.00  0.00    +0.000 C 
ENDBRANCH   5   8
ENDBRANCH   1   2
BRANCH   1  10
ATOM     10  S   UNL     1       1.463   4.335  19.092  0.00  0.00    +0.000 S 
ATOM     11  O   UNL     1       0.362   4.227  20.025  0.00  0.00    +0.000 OA
ATOM     12  O   UNL     1       1.237   4.125  17.677  0.00  0.00    +0.000 OA
BRANCH  10  13
ATOM     13  C   UNL     1       2.726   3.253  19.660  0.00  0.00    +0.000 A 
ATOM     14  C   UNL     1       3.710   2.649  18.894  0.00  0.00    +0.000 A 
ATOM     15  C   UNL     1       3.866   2.687  17.405  0.00  0.00    +0.000 C 
ATOM     16  N   UNL     1       4.682   1.895  19.485  0.00  0.00    +0.000 NA
ATOM     17  C   UNL     1       4.642   1.760  20.809  0.00  0.00    +0.000 A 
ATOM     18  N   UNL     1       3.747   2.286  21.626  0.00  0.00    +0.000 NA
ATOM     19  C   UNL     1       2.808   3.018  21.018  0.00  0.00    +0.000 A 
BRANCH  17  20
ATOM     20  O   UNL     1       5.659   1.052  21.352  0.00  0.00    +0.000 OA
ATOM     21  H   UNL     1       5.303   0.918  22.246  0.00  0.00    +0.000 HD
ENDBRANCH  17  20
BRANCH  19  22
ATOM     22  O   UNL     1       1.964   3.571  21.923  0.00  0.00    +0.000 OA
ATOM     23  H   UNL     1       1.108   3.453  21.470  0.00  0.00    +0.000 HD
ENDBRANCH  19  22
ENDBRANCH  10  13
ENDBRANCH   1  10
BRANCH   1  24
ATOM     24  C   UNL     1       2.050   6.488  20.578  0.00  0.00    +0.000 C 
BRANCH  24  26
ATOM     25  N   UNL     1       1.412   8.666  19.653  0.00  0.00    +0.000 N 
ATOM     26  C   UNL     1       1.488   7.879  20.784  0.00  0.00    +0.000 C 
ATOM     27  O   UNL     1       1.041   8.168  21.893  0.00  0.00    +0.000 OA
ATOM     28  H   UNL     1       1.707   8.207  18.809  0.00  0.00    +0.000 HD
BRANCH  25  34
ATOM     29  C   UNL     1      -0.052  10.367  18.591  0.00  0.00    +0.000 A 
ATOM     30  C   UNL     1      -0.533  11.691  18.549  0.00  0.00    +0.000 A 
ATOM     31  C   UNL     1      -0.053  12.662  19.423  0.00  0.00    +0.000 A 
ATOM     32  C   UNL     1       0.910  12.316  20.357  0.00  0.00    +0.000 A 
ATOM     33  C   UNL     1       1.393  11.004  20.411  0.00  0.00    +0.000 A 
ATOM     34  C   UNL     1       0.925  10.000  19.546  0.00  0.00    +0.000 A 
BRANCH  29  35
ATOM     35  O   UNL     1      -0.722   9.549  17.709  0.00  0.00    +0.000 OA
BRANCH  35  37
ATOM     36  C   UNL     1      -2.454   9.863  16.049  0.00  0.00    +0.000 C 
ATOM     37  C   UNL     1      -2.107   9.806  17.524  0.00  0.00    +0.000 C 
ENDBRANCH  35  37
ENDBRANCH  29  35
ENDBRANCH  25  34
ENDBRANCH  24  26
ENDBRANCH   1  24
TORSDOF 11
ENDMDL
