MODEL 1
REMARK VINA RESULT:      -8.6      0.000      0.000
REMARK  Name = 
REMARK  10 active torsions:
REMARK  status: ('A' for Active; 'I' for Inactive)
REMARK    1  A    between atoms: C_1  and  O_2
REMARK    2  A    between atoms: O_2  and  C_3
REMARK    3  A    between atoms: C_6  and  N_7
REMARK    4  A    between atoms: C_8  and  C_10
REMARK    5  A    between atoms: C_16  and  N_17
REMARK    6  A    between atoms: C_18  and  C_20
REMARK    7  A    between atoms: C_20  and  O_21
REMARK    8  A    between atoms: O_21  and  C_22
REMARK    9  A    between atoms: C_25  and  C_26
REMARK   10  A    between atoms: C_28  and  C_29
REMARK                            x       y       z     vdW  Elec       q    Type
REMARK                         _______ _______ _______ _____ _____    ______ ____
ROOT
ATOM      1  C   UNL     1       3.629   3.454  17.765  0.00  0.00    +0.000 A 
ATOM      2  C   UNL     1       2.302   3.785  17.512  0.00  0.00    +0.000 A 
ATOM      3  C   UNL     1       1.804   5.033  17.875  0.00  0.00    +0.000 A 
ATOM      4  C   UNL     1       2.605   5.980  18.507  0.00  0.00    +0.000 A 
ATOM      5  C   UNL     1       3.960   5.686  18.707  0.00  0.00    +0.000 A 
ATOM      6  C   UNL     1       4.469   4.434  18.314  0.00  0.00    +0.000 A 
ENDROOT
BRANCH   4   7
ATOM      7  N   UNL     1       2.101   7.223  18.942  0.00  0.00    +0.000 N 
ATOM      8  C   UNL     1       2.168   8.418  18.233  0.00  0.00    +0.000 C 
ATOM      9  O   UNL     1       2.634   8.541  17.104  0.00  0.00    +0.000 OA
ATOM     10  H   UNL     1       1.571   7.257  19.807  0.00  0.00    +0.000 HD
BRANCH   8  11
ATOM     11  C   UNL     1       1.593   9.554  18.923  0.00  0.00    +0.000 A 
ATOM     12  C   UNL     1       0.818   9.589  20.068  0.00  0.00    +0.000 A 
ATOM     13  C   UNL     1       0.528  10.947  20.320  0.00  0.00    +0.000 A 
ATOM     14  C   UNL     1       1.136  11.658  19.312  0.00  0.00    +0.000 A 
ATOM     15  O   UNL     1       1.788  10.824  18.458  0.00  0.00    +0.000 OA
ENDBRANCH   8  11
ENDBRANCH   4   7
BRANCH   6  16
ATOM     16  N   UNL     1       5.826   4.153  18.526  0.00  0.00    +0.000 N 
ATOM     17  C   UNL     1       6.865   4.806  17.917  0.00  0.00    +0.000 C 
ATOM     18  O   UNL     1       8.006   4.653  18.361  0.00  0.00    +0.000 OA
ATOM     19  H   UNL     1       6.089   3.694  19.390  0.00  0.00    +0.000 HD
BRANCH  17  20
ATOM     20  C   UNL     1       6.583   5.752  16.745  0.00  0.00    +0.000 C 
BRANCH  20  21
ATOM     21  O   UNL     1       7.479   5.576  15.663  0.00  0.00    +0.000 OA
BRANCH  21  22
ATOM     22  C   UNL     1       6.987   4.960  14.539  0.00  0.00    +0.000 A 
ATOM     23  C   UNL     1       5.894   4.121  14.803  0.00  0.00    +0.000 A 
ATOM     24  C   UNL     1       5.289   3.371  13.789  0.00  0.00    +0.000 A 
ATOM     25  C   UNL     1       5.771   3.446  12.484  0.00  0.00    +0.000 A 
ATOM     26  C   UNL     1       5.156   2.653  11.370  0.00  0.00    +0.000 C 
ATOM     27  C   UNL     1       6.870   4.270  12.219  0.00  0.00    +0.000 A 
ATOM     28  C   UNL     1       7.504   5.020  13.232  0.00  0.00    +0.000 A 
ATOM     29  C   UNL     1       8.723   5.797  12.827  0.00  0.00    +0.000 C 
ENDBRANCH  21  22
ENDBRANCH  20  21
ENDBRANCH  17  20
ENDBRANCH   6  16
BRANCH   1  31
ATOM     30  C   UNL     1       3.767   1.176  18.374  0.00  0.00    +0.000 C 
ATOM     31  O   UNL     1       4.165   2.222  17.490  0.00  0.00    +0.000 OA
ENDBRANCH   1  31
TORSDOF 7
ENDMDL
MODEL 2
REMARK VINA RESULT:      -7.7      1.135      1.259
REMARK  Name = 
REMARK  10 active torsions:
REMARK  status: ('A' for Active; 'I' for Inactive)
REMARK    1  A    between atoms: C_1  and  O_2
REMARK    2  A    between atoms: O_2  and  C_3
REMARK    3  A    between atoms: C_6  and  N_7
REMARK    4  A    between atoms: C_8  and  C_10
REMARK    5  A    between atoms: C_16  and  N_17
REMARK    6  A    between atoms: C_18  and  C_20
REMARK    7  A    between atoms: C_20  and  O_21
REMARK    8  A    between atoms: O_21  and  C_22
REMARK    9  A    between atoms: C_25  and  C_26
REMARK   10  A    between atoms: C_28  and  C_29
REMARK                            x       y       z     vdW  Elec       q    Type
REMARK                         _______ _______ _______ _____ _____    ______ ____
ROOT
ATOM      1  C   UNL     1       3.759   4.181  18.317  0.00  0.00    +0.000 A 
ATOM      2  C   UNL     1       2.425   4.325  17.953  0.00  0.00    +0.000 A 
ATOM      3  C   UNL     1       1.841   5.587  17.898  0.00  0.00    +0.000 A 
ATOM      4  C   UNL     1       2.561   6.737  18.214  0.00  0.00    +0.000 A 
ATOM      5  C   UNL     1       3.923   6.612  18.516  0.00  0.00    +0.000 A 
ATOM      6  C   UNL     1       4.520   5.338  18.543  0.00  0.00    +0.000 A 
ENDROOT
BRANCH   4   7
ATOM      7  N   UNL     1       1.968   8.016  18.229  0.00  0.00    +0.000 N 
ATOM      8  C   UNL     1       1.484   8.671  19.356  0.00  0.00    +0.000 C 
ATOM      9  O   UNL     1       1.553   8.242  20.504  0.00  0.00    +0.000 OA
ATOM     10  H   UNL     1       1.955   8.556  17.370  0.00  0.00    +0.000 HD
BRANCH   8  11
ATOM     11  C   UNL     1       0.901   9.969  19.087  0.00  0.00    +0.000 A 
ATOM     12  C   UNL     1       1.507  11.211  19.021  0.00  0.00    +0.000 A 
ATOM     13  C   UNL     1       0.491  12.142  18.718  0.00  0.00    +0.000 A 
ATOM     14  C   UNL     1      -0.674  11.417  18.625  0.00  0.00    +0.000 A 
ATOM     15  O   UNL     1      -0.439  10.095  18.844  0.00  0.00    +0.000 OA
ENDBRANCH   8  11
ENDBRANCH   4   7
BRANCH   6  16
ATOM     16  N   UNL     1       5.882   5.229  18.854  0.00  0.00    +0.000 N 
ATOM     17  C   UNL     1       6.902   5.730  18.087  0.00  0.00    +0.000 C 
ATOM     18  O   UNL     1       8.033   5.800  18.575  0.00  0.00    +0.000 OA
ATOM     19  H   UNL     1       6.141   5.080  19.822  0.00  0.00    +0.000 HD
BRANCH  17  20
ATOM     20  C   UNL     1       6.606   6.244  16.674  0.00  0.00    +0.000 C 
BRANCH  20  21
ATOM     21  O   UNL     1       7.554   5.809  15.717  0.00  0.00    +0.000 OA
BRANCH  21  22
ATOM     22  C   UNL     1       7.073   5.122  14.630  0.00  0.00    +0.000 A 
ATOM     23  C   UNL     1       5.989   4.288  14.940  0.00  0.00    +0.000 A 
ATOM     24  C   UNL     1       5.395   3.473  13.970  0.00  0.00    +0.000 A 
ATOM     25  C   UNL     1       5.881   3.476  12.664  0.00  0.00    +0.000 A 
ATOM     26  C   UNL     1       5.279   2.611  11.597  0.00  0.00    +0.000 C 
ATOM     27  C   UNL     1       6.971   4.296  12.355  0.00  0.00    +0.000 A 
ATOM     28  C   UNL     1       7.594   5.111  13.324  0.00  0.00    +0.000 A 
ATOM     29  C   UNL     1       8.806   5.877  12.877  0.00  0.00    +0.000 C 
ENDBRANCH  21  22
ENDBRANCH  20  21
ENDBRANCH  17  20
ENDBRANCH   6  16
BRANCH   1  31
ATOM     30  C   UNL     1       3.845   2.122  19.472  0.00  0.00    +0.000 C 
ATOM     31  O   UNL     1       4.377   2.964  18.451  0.00  0.00    +0.000 OA
ENDBRANCH   1  31
TORSDOF 7
ENDMDL
MODEL 3
REMARK VINA RESULT:      -7.6      2.213      8.064
REMARK  Name = 
REMARK  10 active torsions:
REMARK  status: ('A' for Active; 'I' for Inactive)
REMARK    1  A    between atoms: C_1  and  O_2
REMARK    2  A    between atoms: O_2  and  C_3
REMARK    3  A    between atoms: C_6  and  N_7
REMARK    4  A    between atoms: C_8  and  C_10
REMARK    5  A    between atoms: C_16  and  N_17
REMARK    6  A    between atoms: C_18  and  C_20
REMARK    7  A    between atoms: C_20  and  O_21
REMARK    8  A    between atoms: O_21  and  C_22
REMARK    9  A    between atoms: C_25  and  C_26
REMARK   10  A    between atoms: C_28  and  C_29
REMARK                            x       y       z     vdW  Elec       q    Type
REMARK                         _______ _______ _______ _____ _____    ______ ____
ROOT
ATOM      1  C   UNL     1       2.000   4.022  19.450  0.00  0.00    +0.000 A 
ATOM      2  C   UNL     1       2.162   2.941  18.590  0.00  0.00    +0.000 A 
ATOM      3  C   UNL     1       3.015   3.034  17.493  0.00  0.00    +0.000 A 
ATOM      4  C   UNL     1       3.719   4.202  17.215  0.00  0.00    +0.000 A 
ATOM      5  C   UNL     1       3.617   5.275  18.111  0.00  0.00    +0.000 A 
ATOM      6  C   UNL     1       2.777   5.170  19.235  0.00  0.00    +0.000 A 
ENDROOT
BRANCH   4   7
ATOM      7  N   UNL     1       4.534   4.336  16.073  0.00  0.00    +0.000 N 
ATOM      8  C   UNL     1       5.926   4.348  16.067  0.00  0.00    +0.000 C 
ATOM      9  O   UNL     1       6.635   4.191  17.057  0.00  0.00    +0.000 OA
ATOM     10  H   UNL     1       4.094   4.348  15.160  0.00  0.00    +0.000 HD
BRANCH   8  11
ATOM     11  C   UNL     1       6.514   4.525  14.756  0.00  0.00    +0.000 A 
ATOM     12  C   UNL     1       6.136   3.985  13.540  0.00  0.00    +0.000 A 
ATOM     13  C   UNL     1       7.038   4.485  12.577  0.00  0.00    +0.000 A 
ATOM     14  C   UNL     1       7.916   5.293  13.261  0.00  0.00    +0.000 A 
ATOM     15  O   UNL     1       7.608   5.328  14.586  0.00  0.00    +0.000 OA
ENDBRANCH   8  11
ENDBRANCH   4   7
BRANCH   6  16
ATOM     16  N   UNL     1       2.680   6.254  20.118  0.00  0.00    +0.000 N 
ATOM     17  C   UNL     1       2.142   7.475  19.801  0.00  0.00    +0.000 C 
ATOM     18  O   UNL     1       1.879   8.263  20.714  0.00  0.00    +0.000 OA
ATOM     19  H   UNL     1       2.690   6.063  21.112  0.00  0.00    +0.000 HD
BRANCH  17  20
ATOM     20  C   UNL     1       1.826   7.809  18.340  0.00  0.00    +0.000 C 
BRANCH  20  21
ATOM     21  O   UNL     1       1.791   9.201  18.085  0.00  0.00    +0.000 OA
BRANCH  21  22
ATOM     22  C   UNL     1       0.584   9.835  18.247  0.00  0.00    +0.000 A 
ATOM     23  C   UNL     1      -0.438   9.286  17.458  0.00  0.00    +0.000 A 
ATOM     24  C   UNL     1      -1.727   9.830  17.453  0.00  0.00    +0.000 A 
ATOM     25  C   UNL     1      -2.017  10.943  18.240  0.00  0.00    +0.000 A 
ATOM     26  C   UNL     1      -3.383  11.561  18.257  0.00  0.00    +0.000 C 
ATOM     27  C   UNL     1      -0.997  11.501  19.017  0.00  0.00    +0.000 A 
ATOM     28  C   UNL     1       0.313  10.977  19.021  0.00  0.00    +0.000 A 
ATOM     29  C   UNL     1       1.331  11.723  19.835  0.00  0.00    +0.000 C 
ENDBRANCH  21  22
ENDBRANCH  20  21
ENDBRANCH  17  20
ENDBRANCH   6  16
BRANCH   1  31
ATOM     30  C   UNL     1       1.329   2.967  21.455  0.00  0.00    +0.000 C 
ATOM     31  O   UNL     1       1.130   4.018  20.510  0.00  0.00    +0.000 OA
ENDBRANCH   1  31
TORSDOF 7
ENDMDL
MODEL 4
REMARK VINA RESULT:      -7.5      1.450      1.532
REMARK  Name = 
REMARK  10 active torsions:
REMARK  status: ('A' for Active; 'I' for Inactive)
REMARK    1  A    between atoms: C_1  and  O_2
REMARK    2  A    between atoms: O_2  and  C_3
REMARK    3  A    between atoms: C_6  and  N_7
REMARK    4  A    between atoms: C_8  and  C_10
REMARK    5  A    between atoms: C_16  and  N_17
REMARK    6  A    between atoms: C_18  and  C_20
REMARK    7  A    between atoms: C_20  and  O_21
REMARK    8  A    between atoms: O_21  and  C_22
REMARK    9  A    between atoms: C_25  and  C_26
REMARK   10  A    between atoms: C_28  and  C_29
REMARK                            x       y       z     vdW  Elec       q    Type
REMARK                         _______ _______ _______ _____ _____    ______ ____
ROOT
ATOM      1  C   UNL     1       3.788   3.424  18.002  0.00  0.00    +0.000 A 
ATOM      2  C   UNL     1       2.443   3.774  17.936  0.00  0.00    +0.000 A 
ATOM      3  C   UNL     1       2.004   4.987  18.458  0.00  0.00    +0.000 A 
ATOM      4  C   UNL     1       2.883   5.878  19.068  0.00  0.00    +0.000 A 
ATOM      5  C   UNL     1       4.249   5.569  19.081  0.00  0.00    +0.000 A 
ATOM      6  C   UNL     1       4.697   4.355  18.527  0.00  0.00    +0.000 A 
ENDROOT
BRANCH   4   7
ATOM      7  N   UNL     1       2.445   7.080  19.662  0.00  0.00    +0.000 N 
ATOM      8  C   UNL     1       1.389   7.203  20.559  0.00  0.00    +0.000 C 
ATOM      9  O   UNL     1       0.724   6.268  20.996  0.00  0.00    +0.000 OA
ATOM     10  H   UNL     1       2.980   7.926  19.497  0.00  0.00    +0.000 HD
BRANCH   8  11
ATOM     11  C   UNL     1       1.136   8.559  20.998  0.00  0.00    +0.000 A 
ATOM     12  C   UNL     1       0.345   9.538  20.424  0.00  0.00    +0.000 A 
ATOM     13  C   UNL     1       0.437  10.674  21.256  0.00  0.00    +0.000 A 
ATOM     14  C   UNL     1       1.283  10.325  22.283  0.00  0.00    +0.000 A 
ATOM     15  O   UNL     1       1.713   9.042  22.140  0.00  0.00    +0.000 OA
ENDBRANCH   8  11
ENDBRANCH   4   7
BRANCH   6  16
ATOM     16  N   UNL     1       6.066   4.057  18.553  0.00  0.00    +0.000 N 
ATOM     17  C   UNL     1       7.025   4.725  17.837  0.00  0.00    +0.000 C 
ATOM     18  O   UNL     1       8.213   4.548  18.125  0.00  0.00    +0.000 OA
ATOM     19  H   UNL     1       6.433   3.566  19.359  0.00  0.00    +0.000 HD
BRANCH  17  20
ATOM     20  C   UNL     1       6.606   5.713  16.744  0.00  0.00    +0.000 C 
BRANCH  20  21
ATOM     21  O   UNL     1       7.455   5.681  15.612  0.00  0.00    +0.000 OA
BRANCH  21  22
ATOM     22  C   UNL     1       6.996   5.008  14.507  0.00  0.00    +0.000 A 
ATOM     23  C   UNL     1       5.930   4.143  14.791  0.00  0.00    +0.000 A 
ATOM     24  C   UNL     1       5.361   3.336  13.799  0.00  0.00    +0.000 A 
ATOM     25  C   UNL     1       5.855   3.379  12.497  0.00  0.00    +0.000 A 
ATOM     26  C   UNL     1       5.279   2.525  11.407  0.00  0.00    +0.000 C 
ATOM     27  C   UNL     1       6.928   4.230  12.213  0.00  0.00    +0.000 A 
ATOM     28  C   UNL     1       7.525   5.038  13.204  0.00  0.00    +0.000 A 
ATOM     29  C   UNL     1       8.721   5.841  12.782  0.00  0.00    +0.000 C 
ENDBRANCH  21  22
ENDBRANCH  20  21
ENDBRANCH  17  20
ENDBRANCH   6  16
BRANCH   1  31
ATOM     30  C   UNL     1       3.915   1.092  18.359  0.00  0.00    +0.000 C 
ATOM     31  O   UNL     1       4.276   2.220  17.563  0.00  0.00    +0.000 OA
ENDBRANCH   1  31
TORSDOF 7
ENDMDL
MODEL 5
REMARK VINA RESULT:      -7.4      2.637      4.161
REMARK  Name = 
REMARK  10 active torsions:
REMARK  status: ('A' for Active; 'I' for Inactive)
REMARK    1  A    between atoms: C_1  and  O_2
REMARK    2  A    between atoms: O_2  and  C_3
REMARK    3  A    between atoms: C_6  and  N_7
REMARK    4  A    between atoms: C_8  and  C_10
REMARK    5  A    between atoms: C_16  and  N_17
REMARK    6  A    between atoms: C_18  and  C_20
REMARK    7  A    between atoms: C_20  and  O_21
REMARK    8  A    between atoms: O_21  and  C_22
REMARK    9  A    between atoms: C_25  and  C_26
REMARK   10  A    between atoms: C_28  and  C_29
REMARK                            x       y       z     vdW  Elec       q    Type
REMARK                         _______ _______ _______ _____ _____    ______ ____
ROOT
ATOM      1  C   UNL     1       1.876   4.615  20.024  0.00  0.00    +0.000 A 
ATOM      2  C   UNL     1       1.449   5.553  20.959  0.00  0.00    +0.000 A 
ATOM      3  C   UNL     1       1.478   6.911  20.658  0.00  0.00    +0.000 A 
ATOM      4  C   UNL     1       1.941   7.376  19.430  0.00  0.00    +0.000 A 
ATOM      5  C   UNL     1       2.310   6.439  18.456  0.00  0.00    +0.000 A 
ATOM      6  C   UNL     1       2.253   5.064  18.750  0.00  0.00    +0.000 A 
ENDROOT
BRANCH   4   7
ATOM      7  N   UNL     1       2.041   8.751  19.134  0.00  0.00    +0.000 N 
ATOM      8  C   UNL     1       1.034   9.693  19.313  0.00  0.00    +0.000 C 
ATOM      9  O   UNL     1      -0.067   9.463  19.805  0.00  0.00    +0.000 OA
ATOM     10  H   UNL     1       2.938   9.120  18.837  0.00  0.00    +0.000 HD
BRANCH   8  11
ATOM     11  C   UNL     1       1.394  11.035  18.903  0.00  0.00    +0.000 A 
ATOM     12  C   UNL     1       0.802  12.243  19.223  0.00  0.00    +0.000 A 
ATOM     13  C   UNL     1       1.548  13.247  18.569  0.00  0.00    +0.000 A 
ATOM     14  C   UNL     1       2.545  12.593  17.885  0.00  0.00    +0.000 A 
ATOM     15  O   UNL     1       2.465  11.249  18.081  0.00  0.00    +0.000 OA
ENDBRANCH   8  11
ENDBRANCH   4   7
BRANCH   6  16
ATOM     16  N   UNL     1       2.632   4.140  17.767  0.00  0.00    +0.000 N 
ATOM     17  C   UNL     1       3.862   3.539  17.692  0.00  0.00    +0.000 C 
ATOM     18  O   UNL     1       4.003   2.564  16.948  0.00  0.00    +0.000 OA
ATOM     19  H   UNL     1       1.903   3.628  17.286  0.00  0.00    +0.000 HD
BRANCH  17  20
ATOM     20  C   UNL     1       5.010   4.048  18.569  0.00  0.00    +0.000 C 
BRANCH  20  21
ATOM     21  O   UNL     1       6.217   4.231  17.852  0.00  0.00    +0.000 OA
BRANCH  21  22
ATOM     22  C   UNL     1       6.721   5.507  17.796  0.00  0.00    +0.000 A 
ATOM     23  C   UNL     1       7.707   5.753  18.763  0.00  0.00    +0.000 A 
ATOM     24  C   UNL     1       8.304   7.012  18.892  0.00  0.00    +0.000 A 
ATOM     25  C   UNL     1       7.919   8.055  18.052  0.00  0.00    +0.000 A 
ATOM     26  C   UNL     1       8.528   9.421  18.162  0.00  0.00    +0.000 C 
ATOM     27  C   UNL     1       6.926   7.818  17.096  0.00  0.00    +0.000 A 
ATOM     28  C   UNL     1       6.301   6.559  16.964  0.00  0.00    +0.000 A 
ATOM     29  C   UNL     1       5.193   6.465  15.955  0.00  0.00    +0.000 C 
ENDBRANCH  21  22
ENDBRANCH  20  21
ENDBRANCH  17  20
ENDBRANCH   6  16
BRANCH   1  31
ATOM     30  C   UNL     1       2.620   2.904  21.474  0.00  0.00    +0.000 C 
ATOM     31  O   UNL     1       1.931   3.269  20.279  0.00  0.00    +0.000 OA
ENDBRANCH   1  31
TORSDOF 7
ENDMDL
MODEL 6
REMARK VINA RESULT:      -7.4      1.394      1.469
REMARK  Name = 
REMARK  10 active torsions:
REMARK  status: ('A' for Active; 'I' for Inactive)
REMARK    1  A    between atoms: C_1  and  O_2
REMARK    2  A    between atoms: O_2  and  C_3
REMARK    3  A    between atoms: C_6  and  N_7
REMARK    4  A    between atoms: C_8  and  C_10
REMARK    5  A    between atoms: C_16  and  N_17
REMARK    6  A    between atoms: C_18  and  C_20
REMARK    7  A    between atoms: C_20  and  O_21
REMARK    8  A    between atoms: O_21  and  C_22
REMARK    9  A    between atoms: C_25  and  C_26
REMARK   10  A    between atoms: C_28  and  C_29
REMARK                            x       y       z     vdW  Elec       q    Type
REMARK                         _______ _______ _______ _____ _____    ______ ____
ROOT
ATOM      1  C   UNL     1       3.862   4.297  18.783  0.00  0.00    +0.000 A 
ATOM      2  C   UNL     1       2.478   4.403  18.698  0.00  0.00    +0.000 A 
ATOM      3  C   UNL     1       1.856   5.641  18.829  0.00  0.00    +0.000 A 
ATOM      4  C   UNL     1       2.588   6.803  19.058  0.00  0.00    +0.000 A 
ATOM      5  C   UNL     1       3.987   6.720  19.079  0.00  0.00    +0.000 A 
ATOM      6  C   UNL     1       4.616   5.472  18.917  0.00  0.00    +0.000 A 
ENDROOT
BRANCH   4   7
ATOM      7  N   UNL     1       1.972   8.055  19.261  0.00  0.00    +0.000 N 
ATOM      8  C   UNL     1       1.357   8.475  20.436  0.00  0.00    +0.000 C 
ATOM      9  O   UNL     1       1.313   7.828  21.478  0.00  0.00    +0.000 OA
ATOM     10  H   UNL     1       2.038   8.753  18.528  0.00  0.00    +0.000 HD
BRANCH   8  11
ATOM     11  C   UNL     1       0.779   9.801  20.365  0.00  0.00    +0.000 A 
ATOM     12  C   UNL     1      -0.184  10.297  19.506  0.00  0.00    +0.000 A 
ATOM     13  C   UNL     1      -0.395  11.645  19.868  0.00  0.00    +0.000 A 
ATOM     14  C   UNL     1       0.457  11.894  20.919  0.00  0.00    +0.000 A 
ATOM     15  O   UNL     1       1.174  10.781  21.233  0.00  0.00    +0.000 OA
ENDBRANCH   8  11
ENDBRANCH   4   7
BRANCH   6  16
ATOM     16  N   UNL     1       6.016   5.405  18.947  0.00  0.00    +0.000 N 
ATOM     17  C   UNL     1       6.837   5.742  17.902  0.00  0.00    +0.000 C 
ATOM     18  O   UNL     1       8.044   5.886  18.117  0.00  0.00    +0.000 OA
ATOM     19  H   UNL     1       6.477   5.434  19.848  0.00  0.00    +0.000 HD
BRANCH  17  20
ATOM     20  C   UNL     1       6.236   5.988  16.514  0.00  0.00    +0.000 C 
BRANCH  20  21
ATOM     21  O   UNL     1       7.191   5.899  15.473  0.00  0.00    +0.000 OA
BRANCH  21  22
ATOM     22  C   UNL     1       6.863   5.121  14.391  0.00  0.00    +0.000 A 
ATOM     23  C   UNL     1       5.808   4.234  14.648  0.00  0.00    +0.000 A 
ATOM     24  C   UNL     1       5.365   3.326  13.680  0.00  0.00    +0.000 A 
ATOM     25  C   UNL     1       5.976   3.288  12.428  0.00  0.00    +0.000 A 
ATOM     26  C   UNL     1       5.537   2.326  11.366  0.00  0.00    +0.000 C 
ATOM     27  C   UNL     1       7.038   4.162  12.172  0.00  0.00    +0.000 A 
ATOM     28  C   UNL     1       7.510   5.071  13.143  0.00  0.00    +0.000 A 
ATOM     29  C   UNL     1       8.710   5.891  12.766  0.00  0.00    +0.000 C 
ENDBRANCH  21  22
ENDBRANCH  20  21
ENDBRANCH  17  20
ENDBRANCH   6  16
BRANCH   1  31
ATOM     30  C   UNL     1       3.806   1.975  19.215  0.00  0.00    +0.000 C 
ATOM     31  O   UNL     1       4.532   3.101  18.725  0.00  0.00    +0.000 OA
ENDBRANCH   1  31
TORSDOF 7
ENDMDL
MODEL 7
REMARK VINA RESULT:      -7.2      1.100      1.166
REMARK  Name = 
REMARK  10 active torsions:
REMARK  status: ('A' for Active; 'I' for Inactive)
REMARK    1  A    between atoms: C_1  and  O_2
REMARK    2  A    between atoms: O_2  and  C_3
REMARK    3  A    between atoms: C_6  and  N_7
REMARK    4  A    between atoms: C_8  and  C_10
REMARK    5  A    between atoms: C_16  and  N_17
REMARK    6  A    between atoms: C_18  and  C_20
REMARK    7  A    between atoms: C_20  and  O_21
REMARK    8  A    between atoms: O_21  and  C_22
REMARK    9  A    between atoms: C_25  and  C_26
REMARK   10  A    between atoms: C_28  and  C_29
REMARK                            x       y       z     vdW  Elec       q    Type
REMARK                         _______ _______ _______ _____ _____    ______ ____
ROOT
ATOM      1  C   UNL     1       4.048   3.517  19.374  0.00  0.00    +0.000 A 
ATOM      2  C   UNL     1       2.659   3.536  19.459  0.00  0.00    +0.000 A 
ATOM      3  C   UNL     1       1.973   4.746  19.501  0.00  0.00    +0.000 A 
ATOM      4  C   UNL     1       2.644   5.966  19.470  0.00  0.00    +0.000 A 
ATOM      5  C   UNL     1       4.036   5.961  19.316  0.00  0.00    +0.000 A 
ATOM      6  C   UNL     1       4.727   4.737  19.245  0.00  0.00    +0.000 A 
ENDROOT
BRANCH   4   7
ATOM      7  N   UNL     1       1.970   7.200  19.579  0.00  0.00    +0.000 N 
ATOM      8  C   UNL     1       2.011   8.230  18.645  0.00  0.00    +0.000 C 
ATOM      9  O   UNL     1       2.603   8.184  17.571  0.00  0.00    +0.000 OA
ATOM     10  H   UNL     1       1.333   7.339  20.356  0.00  0.00    +0.000 HD
BRANCH   8  11
ATOM     11  C   UNL     1       1.244   9.401  19.017  0.00  0.00    +0.000 A 
ATOM     12  C   UNL     1       0.378  10.165  18.256  0.00  0.00    +0.000 A 
ATOM     13  C   UNL     1      -0.112  11.185  19.100  0.00  0.00    +0.000 A 
ATOM     14  C   UNL     1       0.489  10.988  20.322  0.00  0.00    +0.000 A 
ATOM     15  O   UNL     1       1.313   9.906  20.286  0.00  0.00    +0.000 OA
ENDBRANCH   8  11
ENDBRANCH   4   7
BRANCH   6  16
ATOM     16  N   UNL     1       6.121   4.748  19.098  0.00  0.00    +0.000 N 
ATOM     17  C   UNL     1       6.787   5.207  17.990  0.00  0.00    +0.000 C 
ATOM     18  O   UNL     1       8.003   5.405  18.067  0.00  0.00    +0.000 OA
ATOM     19  H   UNL     1       6.690   4.738  19.935  0.00  0.00    +0.000 HD
BRANCH  17  20
ATOM     20  C   UNL     1       6.005   5.520  16.711  0.00  0.00    +0.000 C 
BRANCH  20  21
ATOM     21  O   UNL     1       6.842   5.777  15.598  0.00  0.00    +0.000 OA
BRANCH  21  22
ATOM     22  C   UNL     1       6.610   5.044  14.461  0.00  0.00    +0.000 A 
ATOM     23  C   UNL     1       5.463   4.242  14.545  0.00  0.00    +0.000 A 
ATOM     24  C   UNL     1       5.092   3.388  13.500  0.00  0.00    +0.000 A 
ATOM     25  C   UNL     1       5.869   3.319  12.346  0.00  0.00    +0.000 A 
ATOM     26  C   UNL     1       5.511   2.412  11.207  0.00  0.00    +0.000 C 
ATOM     27  C   UNL     1       7.021   4.108  12.264  0.00  0.00    +0.000 A 
ATOM     28  C   UNL     1       7.421   4.961  13.315  0.00  0.00    +0.000 A 
ATOM     29  C   UNL     1       8.722   5.687  13.130  0.00  0.00    +0.000 C 
ENDBRANCH  21  22
ENDBRANCH  20  21
ENDBRANCH  17  20
ENDBRANCH   6  16
BRANCH   1  31
ATOM     30  C   UNL     1       4.899   1.732  20.667  0.00  0.00    +0.000 C 
ATOM     31  O   UNL     1       4.788   2.362  19.392  0.00  0.00    +0.000 OA
ENDBRANCH   1  31
TORSDOF 7
ENDMDL
MODEL 8
REMARK VINA RESULT:      -7.1      2.850      7.034
REMARK  Name = 
REMARK  10 active torsions:
REMARK  status: ('A' for Active; 'I' for Inactive)
REMARK    1  A    between atoms: C_1  and  O_2
REMARK    2  A    between atoms: O_2  and  C_3
REMARK    3  A    between atoms: C_6  and  N_7
REMARK    4  A    between atoms: C_8  and  C_10
REMARK    5  A    between atoms: C_16  and  N_17
REMARK    6  A    between atoms: C_18  and  C_20
REMARK    7  A    between atoms: C_20  and  O_21
REMARK    8  A    between atoms: O_21  and  C_22
REMARK    9  A    between atoms: C_25  and  C_26
REMARK   10  A    between atoms: C_28  and  C_29
REMARK                            x       y       z     vdW  Elec       q    Type
REMARK                         _______ _______ _______ _____ _____    ______ ____
ROOT
ATOM      1  C   UNL     1       4.475   4.009  17.290  0.00  0.00    +0.000 A 
ATOM      2  C   UNL     1       5.062   4.585  16.168  0.00  0.00    +0.000 A 
ATOM      3  C   UNL     1       5.823   5.744  16.287  0.00  0.00    +0.000 A 
ATOM      4  C   UNL     1       6.010   6.369  17.517  0.00  0.00    +0.000 A 
ATOM      5  C   UNL     1       5.481   5.763  18.664  0.00  0.00    +0.000 A 
ATOM      6  C   UNL     1       4.737   4.575  18.547  0.00  0.00    +0.000 A 
ENDROOT
BRANCH   4   7
ATOM      7  N   UNL     1       6.721   7.580  17.646  0.00  0.00    +0.000 N 
ATOM      8  C   UNL     1       7.919   7.748  18.333  0.00  0.00    +0.000 C 
ATOM      9  O   UNL     1       8.548   6.847  18.880  0.00  0.00    +0.000 OA
ATOM     10  H   UNL     1       6.390   8.394  17.139  0.00  0.00    +0.000 HD
BRANCH   8  11
ATOM     11  C   UNL     1       8.422   9.106  18.330  0.00  0.00    +0.000 A 
ATOM     12  C   UNL     1       8.134  10.150  17.472  0.00  0.00    +0.000 A 
ATOM     13  C   UNL     1       8.885  11.260  17.915  0.00  0.00    +0.000 A 
ATOM     14  C   UNL     1       9.591  10.825  19.013  0.00  0.00    +0.000 A 
ATOM     15  O   UNL     1       9.318   9.519  19.277  0.00  0.00    +0.000 OA
ENDBRANCH   8  11
ENDBRANCH   4   7
BRANCH   6  16
ATOM     16  N   UNL     1       4.208   3.984  19.703  0.00  0.00    +0.000 N 
ATOM     17  C   UNL     1       2.984   4.282  20.243  0.00  0.00    +0.000 C 
ATOM     18  O   UNL     1       2.515   3.532  21.104  0.00  0.00    +0.000 OA
ATOM     19  H   UNL     1       4.560   3.076  19.979  0.00  0.00    +0.000 HD
BRANCH  17  20
ATOM     20  C   UNL     1       2.204   5.497  19.730  0.00  0.00    +0.000 C 
BRANCH  20  21
ATOM     21  O   UNL     1       2.671   6.722  20.265  0.00  0.00    +0.000 OA
BRANCH  21  22
ATOM     22  C   UNL     1       1.877   7.827  20.079  0.00  0.00    +0.000 A 
ATOM     23  C   UNL     1       1.023   8.082  21.163  0.00  0.00    +0.000 A 
ATOM     24  C   UNL     1       0.106   9.138  21.136  0.00  0.00    +0.000 A 
ATOM     25  C   UNL     1       0.024   9.962  20.015  0.00  0.00    +0.000 A 
ATOM     26  C   UNL     1      -0.950  11.099  19.943  0.00  0.00    +0.000 C 
ATOM     27  C   UNL     1       0.864   9.702  18.927  0.00  0.00    +0.000 A 
ATOM     28  C   UNL     1       1.782   8.631  18.930  0.00  0.00    +0.000 A 
ATOM     29  C   UNL     1       2.563   8.414  17.665  0.00  0.00    +0.000 C 
ENDBRANCH  21  22
ENDBRANCH  20  21
ENDBRANCH  17  20
ENDBRANCH   6  16
BRANCH   1  31
ATOM     30  C   UNL     1       2.285   3.175  16.988  0.00  0.00    +0.000 C 
ATOM     31  O   UNL     1       3.664   2.904  17.233  0.00  0.00    +0.000 OA
ENDBRANCH   1  31
TORSDOF 7
ENDMDL
MODEL 9
REMARK VINA RESULT:      -7.0      1.354      1.972
REMARK  Name = 
REMARK  10 active torsions:
REMARK  status: ('A' for Active; 'I' for Inactive)
REMARK    1  A    between atoms: C_1  and  O_2
REMARK    2  A    between atoms: O_2  and  C_3
REMARK    3  A    between atoms: C_6  and  N_7
REMARK    4  A    between atoms: C_8  and  C_10
REMARK    5  A    between atoms: C_16  and  N_17
REMARK    6  A    between atoms: C_18  and  C_20
REMARK    7  A    between atoms: C_20  and  O_21
REMARK    8  A    between atoms: O_21  and  C_22
REMARK    9  A    between atoms: C_25  and  C_26
REMARK   10  A    between atoms: C_28  and  C_29
REMARK                            x       y       z     vdW  Elec       q    Type
REMARK                         _______ _______ _______ _____ _____    ______ ____
ROOT
ATOM      1  C   UNL     1       4.114   4.137  19.338  0.00  0.00    +0.000 A 
ATOM      2  C   UNL     1       2.732   4.125  19.176  0.00  0.00    +0.000 A 
ATOM      3  C   UNL     1       2.028   5.317  19.038  0.00  0.00    +0.000 A 
ATOM      4  C   UNL     1       2.672   6.551  19.070  0.00  0.00    +0.000 A 
ATOM      5  C   UNL     1       4.069   6.575  19.166  0.00  0.00    +0.000 A 
ATOM      6  C   UNL     1       4.784   5.368  19.276  0.00  0.00    +0.000 A 
ENDROOT
BRANCH   4   7
ATOM      7  N   UNL     1       1.967   7.771  19.000  0.00  0.00    +0.000 N 
ATOM      8  C   UNL     1       1.436   8.463  20.084  0.00  0.00    +0.000 C 
ATOM      9  O   UNL     1       1.554   8.129  21.259  0.00  0.00    +0.000 OA
ATOM     10  H   UNL     1       1.898   8.241  18.104  0.00  0.00    +0.000 HD
BRANCH   8  11
ATOM     11  C   UNL     1       0.737   9.680  19.728  0.00  0.00    +0.000 A 
ATOM     12  C   UNL     1      -0.535  10.099  20.073  0.00  0.00    +0.000 A 
ATOM     13  C   UNL     1      -0.724  11.362  19.472  0.00  0.00    +0.000 A 
ATOM     14  C   UNL     1       0.440  11.636  18.792  0.00  0.00    +0.000 A 
ATOM     15  O   UNL     1       1.336  10.624  18.941  0.00  0.00    +0.000 OA
ENDBRANCH   8  11
ENDBRANCH   4   7
BRANCH   6  16
ATOM     16  N   UNL     1       6.181   5.409  19.377  0.00  0.00    +0.000 N 
ATOM     17  C   UNL     1       7.023   5.870  18.399  0.00  0.00    +0.000 C 
ATOM     18  O   UNL     1       8.202   6.096  18.687  0.00  0.00    +0.000 OA
ATOM     19  H   UNL     1       6.593   5.421  20.302  0.00  0.00    +0.000 HD
BRANCH  17  20
ATOM     20  C   UNL     1       6.474   6.151  16.996  0.00  0.00    +0.000 C 
BRANCH  20  21
ATOM     21  O   UNL     1       7.377   5.793  15.966  0.00  0.00    +0.000 OA
BRANCH  21  22
ATOM     22  C   UNL     1       6.888   5.002  14.956  0.00  0.00    +0.000 A 
ATOM     23  C   UNL     1       7.597   5.140  13.754  0.00  0.00    +0.000 A 
ATOM     24  C   UNL     1       7.216   4.449  12.598  0.00  0.00    +0.000 A 
ATOM     25  C   UNL     1       6.110   3.603  12.625  0.00  0.00    +0.000 A 
ATOM     26  C   UNL     1       5.664   2.850  11.407  0.00  0.00    +0.000 C 
ATOM     27  C   UNL     1       5.392   3.472  13.819  0.00  0.00    +0.000 A 
ATOM     28  C   UNL     1       5.751   4.175  14.988  0.00  0.00    +0.000 A 
ATOM     29  C   UNL     1       4.846   4.009  16.175  0.00  0.00    +0.000 C 
ENDBRANCH  21  22
ENDBRANCH  20  21
ENDBRANCH  17  20
ENDBRANCH   6  16
BRANCH   1  31
ATOM     30  C   UNL     1       4.374   2.133  20.562  0.00  0.00    +0.000 C 
ATOM     31  O   UNL     1       4.859   3.004  19.541  0.00  0.00    +0.000 OA
ENDBRANCH   1  31
TORSDOF 7
ENDMDL
