MODEL 1
REMARK VINA RESULT:      -9.3      0.000      0.000
REMARK  Name = 
REMARK  6 active torsions:
REMARK  status: ('A' for Active; 'I' for Inactive)
REMARK    1  A    between atoms: C_1  and  C_2
REMARK    2  A    between atoms: C_2  and  N_3
REMARK    3  A    between atoms: C_2  and  C_23
REMARK    4  A    between atoms: C_8  and  N_9
REMARK    5  A    between atoms: C_14  and  C_15
REMARK    6  A    between atoms: C_14  and  C_16
REMARK                            x       y       z     vdW  Elec       q    Type
REMARK                         _______ _______ _______ _____ _____    ______ ____
ROOT
ATOM      1  N   UNL     1       1.738   7.109  19.459  0.00  0.00    +0.000 N 
ATOM      2  C   UNL     1       1.504   8.221  20.243  0.00  0.00    +0.000 A 
ATOM      3  N   UNL     1       1.389   8.115  21.570  0.00  0.00    +0.000 NA
ATOM      4  C   UNL     1       0.955   9.206  22.226  0.00  0.00    +0.000 A 
ATOM      5  C   UNL     1       0.611  10.379  21.603  0.00  0.00    +0.000 A 
ATOM      6  C   UNL     1       0.819  10.418  20.242  0.00  0.00    +0.000 A 
ATOM      7  N   UNL     1       1.286   9.354  19.566  0.00  0.00    +0.000 NA
ATOM      8  H   UNL     1       1.901   7.434  18.517  0.00  0.00    +0.000 HD
ENDROOT
BRANCH   6   9
ATOM      9  N   UNL     1       0.490  11.567  19.503  0.00  0.00    +0.000 N 
ATOM     10  C   UNL     1       1.372  12.228  18.678  0.00  0.00    +0.000 C 
ATOM     11  O   UNL     1       2.522  11.917  18.406  0.00  0.00    +0.000 OA
ATOM     12  O   UNL     1       0.785  13.358  18.177  0.00  0.00    +0.000 OA
ATOM     13  C   UNL     1      -0.468  13.549  18.851  0.00  0.00    +0.000 C 
ATOM     14  C   UNL     1      -0.817  12.188  19.482  0.00  0.00    +0.000 C 
ATOM     15  C   UNL     1      -1.418  12.461  20.875  0.00  0.00    +0.000 C 
BRANCH  14  16
ATOM     16  C   UNL     1      -1.785  11.439  18.523  0.00  0.00    +0.000 A 
ATOM     17  C   UNL     1      -3.181  11.649  18.591  0.00  0.00    +0.000 A 
ATOM     18  C   UNL     1      -4.075  10.914  17.806  0.00  0.00    +0.000 A 
ATOM     19  C   UNL     1      -3.597   9.954  16.919  0.00  0.00    +0.000 A 
ATOM     20  C   UNL     1      -2.226   9.741  16.816  0.00  0.00    +0.000 A 
ATOM     21  C   UNL     1      -1.333  10.477  17.600  0.00  0.00    +0.000 A 
ENDBRANCH  14  16
ENDBRANCH   6   9
BRANCH   1  23
ATOM     22  C   UNL     1       1.848   5.032  20.706  0.00  0.00    +0.000 C 
ATOM     23  C   UNL     1       2.655   6.104  19.960  0.00  0.00    +0.000 C 
BRANCH  23  24
ATOM     24  C   UNL     1       3.446   5.456  18.832  0.00  0.00    +0.000 A 
ATOM     25  C   UNL     1       2.872   4.398  18.117  0.00  0.00    +0.000 A 
ATOM     26  C   UNL     1       3.497   3.885  16.980  0.00  0.00    +0.000 A 
ATOM     27  C   UNL     1       4.721   4.405  16.537  0.00  0.00    +0.000 A 
ATOM     28  C   UNL     1       5.319   3.950  15.350  0.00  0.00    +0.000 A 
ATOM     29  C   UNL     1       6.543   4.466  14.925  0.00  0.00    +0.000 A 
ATOM     30  C   UNL     1       7.197   5.424  15.693  0.00  0.00    +0.000 A 
ATOM     31  C   UNL     1       6.608   5.898  16.868  0.00  0.00    +0.000 A 
ATOM     32  C   UNL     1       5.355   5.417  17.289  0.00  0.00    +0.000 A 
ATOM     33  C   UNL     1       4.705   5.937  18.424  0.00  0.00    +0.000 A 
ENDBRANCH  23  24
ENDBRANCH   1  23
TORSDOF 4
ENDMDL
MODEL 2
REMARK VINA RESULT:      -9.2      0.682      1.096
REMARK  Name = 
REMARK  6 active torsions:
REMARK  status: ('A' for Active; 'I' for Inactive)
REMARK    1  A    between atoms: C_1  and  C_2
REMARK    2  A    between atoms: C_2  and  N_3
REMARK    3  A    between atoms: C_2  and  C_23
REMARK    4  A    between atoms: C_8  and  N_9
REMARK    5  A    between atoms: C_14  and  C_15
REMARK    6  A    between atoms: C_14  and  C_16
REMARK                            x       y       z     vdW  Elec       q    Type
REMARK                         _______ _______ _______ _____ _____    ______ ____
ROOT
ATOM      1  N   UNL     1       1.639   7.105  19.717  0.00  0.00    +0.000 N 
ATOM      2  C   UNL     1       1.395   8.244  20.458  0.00  0.00    +0.000 A 
ATOM      3  N   UNL     1       1.258   8.185  21.787  0.00  0.00    +0.000 NA
ATOM      4  C   UNL     1       0.817   9.298  22.397  0.00  0.00    +0.000 A 
ATOM      5  C   UNL     1       0.486  10.450  21.729  0.00  0.00    +0.000 A 
ATOM      6  C   UNL     1       0.717  10.442  20.371  0.00  0.00    +0.000 A 
ATOM      7  N   UNL     1       1.192   9.354  19.739  0.00  0.00    +0.000 NA
ATOM      8  H   UNL     1       1.819   7.398  18.767  0.00  0.00    +0.000 HD
ENDROOT
BRANCH   6   9
ATOM      9  N   UNL     1       0.404  11.566  19.587  0.00  0.00    +0.000 N 
ATOM     10  C   UNL     1       1.297  12.188  18.745  0.00  0.00    +0.000 C 
ATOM     11  O   UNL     1       2.447  11.858  18.494  0.00  0.00    +0.000 OA
ATOM     12  O   UNL     1       0.723  13.304  18.199  0.00  0.00    +0.000 OA
ATOM     13  C   UNL     1      -0.533  13.530  18.855  0.00  0.00    +0.000 C 
ATOM     14  C   UNL     1      -0.898  12.196  19.533  0.00  0.00    +0.000 C 
ATOM     15  C   UNL     1      -1.507  12.525  20.911  0.00  0.00    +0.000 C 
BRANCH  14  16
ATOM     16  C   UNL     1      -1.866  11.420  18.594  0.00  0.00    +0.000 A 
ATOM     17  C   UNL     1      -1.378  10.444  17.697  0.00  0.00    +0.000 A 
ATOM     18  C   UNL     1      -2.216   9.805  16.778  0.00  0.00    +0.000 A 
ATOM     19  C   UNL     1      -3.571  10.117  16.737  0.00  0.00    +0.000 A 
ATOM     20  C   UNL     1      -4.083  11.059  17.623  0.00  0.00    +0.000 A 
ATOM     21  C   UNL     1      -3.245  11.696  18.543  0.00  0.00    +0.000 A 
ENDBRANCH  14  16
ENDBRANCH   6   9
BRANCH   1  23
ATOM     22  C   UNL     1       1.716   4.991  20.902  0.00  0.00    +0.000 C 
ATOM     23  C   UNL     1       2.545   6.117  20.268  0.00  0.00    +0.000 C 
BRANCH  23  24
ATOM     24  C   UNL     1       3.459   5.537  19.197  0.00  0.00    +0.000 A 
ATOM     25  C   UNL     1       3.813   4.184  19.263  0.00  0.00    +0.000 A 
ATOM     26  C   UNL     1       4.516   3.580  18.219  0.00  0.00    +0.000 A 
ATOM     27  C   UNL     1       4.896   4.317  17.089  0.00  0.00    +0.000 A 
ATOM     28  C   UNL     1       5.534   3.701  15.999  0.00  0.00    +0.000 A 
ATOM     29  C   UNL     1       5.919   4.446  14.885  0.00  0.00    +0.000 A 
ATOM     30  C   UNL     1       5.696   5.819  14.857  0.00  0.00    +0.000 A 
ATOM     31  C   UNL     1       5.049   6.443  15.926  0.00  0.00    +0.000 A 
ATOM     32  C   UNL     1       4.618   5.700  17.039  0.00  0.00    +0.000 A 
ATOM     33  C   UNL     1       3.894   6.291  18.091  0.00  0.00    +0.000 A 
ENDBRANCH  23  24
ENDBRANCH   1  23
TORSDOF 4
ENDMDL
MODEL 3
REMARK VINA RESULT:      -8.9      1.242      1.922
REMARK  Name = 
REMARK  6 active torsions:
REMARK  status: ('A' for Active; 'I' for Inactive)
REMARK    1  A    between atoms: C_1  and  C_2
REMARK    2  A    between atoms: C_2  and  N_3
REMARK    3  A    between atoms: C_2  and  C_23
REMARK    4  A    between atoms: C_8  and  N_9
REMARK    5  A    between atoms: C_14  and  C_15
REMARK    6  A    between atoms: C_14  and  C_16
REMARK                            x       y       z     vdW  Elec       q    Type
REMARK                         _______ _______ _______ _____ _____    ______ ____
ROOT
ATOM      1  N   UNL     1       2.345   6.625  20.724  0.00  0.00    +0.000 N 
ATOM      2  C   UNL     1       2.092   7.424  19.627  0.00  0.00    +0.000 A 
ATOM      3  N   UNL     1       2.552   7.095  18.415  0.00  0.00    +0.000 NA
ATOM      4  C   UNL     1       2.440   8.029  17.455  0.00  0.00    +0.000 A 
ATOM      5  C   UNL     1       1.913   9.278  17.668  0.00  0.00    +0.000 A 
ATOM      6  C   UNL     1       1.409   9.508  18.929  0.00  0.00    +0.000 A 
ATOM      7  N   UNL     1       1.475   8.579  19.899  0.00  0.00    +0.000 NA
ATOM      8  H   UNL     1       1.814   6.999  21.497  0.00  0.00    +0.000 HD
ENDROOT
BRANCH   6   9
ATOM      9  N   UNL     1       0.856  10.757  19.259  0.00  0.00    +0.000 N 
ATOM     10  C   UNL     1       1.468  11.962  18.997  0.00  0.00    +0.000 C 
ATOM     11  O   UNL     1       2.521  12.156  18.407  0.00  0.00    +0.000 OA
ATOM     12  O   UNL     1       0.728  12.986  19.523  0.00  0.00    +0.000 OA
ATOM     13  C   UNL     1      -0.314  12.417  20.329  0.00  0.00    +0.000 C 
ATOM     14  C   UNL     1      -0.436  10.948  19.884  0.00  0.00    +0.000 C 
ATOM     15  C   UNL     1      -0.667  10.096  21.148  0.00  0.00    +0.000 C 
BRANCH  14  16
ATOM     16  C   UNL     1      -1.589  10.845  18.845  0.00  0.00    +0.000 A 
ATOM     17  C   UNL     1      -1.488   9.980  17.733  0.00  0.00    +0.000 A 
ATOM     18  C   UNL     1      -2.468   9.944  16.737  0.00  0.00    +0.000 A 
ATOM     19  C   UNL     1      -3.586  10.767  16.830  0.00  0.00    +0.000 A 
ATOM     20  C   UNL     1      -3.722  11.615  17.925  0.00  0.00    +0.000 A 
ATOM     21  C   UNL     1      -2.743  11.648  18.922  0.00  0.00    +0.000 A 
ENDBRANCH  14  16
ENDBRANCH   6   9
BRANCH   1  23
ATOM     22  C   UNL     1       0.848   4.786  20.220  0.00  0.00    +0.000 C 
ATOM     23  C   UNL     1       2.293   5.187  20.544  0.00  0.00    +0.000 C 
BRANCH  23  24
ATOM     24  C   UNL     1       3.214   4.730  19.421  0.00  0.00    +0.000 A 
ATOM     25  C   UNL     1       2.665   4.075  18.312  0.00  0.00    +0.000 A 
ATOM     26  C   UNL     1       3.450   3.783  17.196  0.00  0.00    +0.000 A 
ATOM     27  C   UNL     1       4.809   4.125  17.165  0.00  0.00    +0.000 A 
ATOM     28  C   UNL     1       5.588   3.908  16.016  0.00  0.00    +0.000 A 
ATOM     29  C   UNL     1       6.942   4.241  16.001  0.00  0.00    +0.000 A 
ATOM     30  C   UNL     1       7.540   4.770  17.139  0.00  0.00    +0.000 A 
ATOM     31  C   UNL     1       6.776   5.007  18.284  0.00  0.00    +0.000 A 
ATOM     32  C   UNL     1       5.400   4.715  18.303  0.00  0.00    +0.000 A 
ATOM     33  C   UNL     1       4.592   5.018  19.415  0.00  0.00    +0.000 A 
ENDBRANCH  23  24
ENDBRANCH   1  23
TORSDOF 4
ENDMDL
MODEL 4
REMARK VINA RESULT:      -8.8      2.023      3.505
REMARK  Name = 
REMARK  6 active torsions:
REMARK  status: ('A' for Active; 'I' for Inactive)
REMARK    1  A    between atoms: C_1  and  C_2
REMARK    2  A    between atoms: C_2  and  N_3
REMARK    3  A    between atoms: C_2  and  C_23
REMARK    4  A    between atoms: C_8  and  N_9
REMARK    5  A    between atoms: C_14  and  C_15
REMARK    6  A    between atoms: C_14  and  C_16
REMARK                            x       y       z     vdW  Elec       q    Type
REMARK                         _______ _______ _______ _____ _____    ______ ____
ROOT
ATOM      1  N   UNL     1       2.382   5.545  21.107  0.00  0.00    +0.000 N 
ATOM      2  C   UNL     1       2.022   6.595  20.285  0.00  0.00    +0.000 A 
ATOM      3  N   UNL     1       2.371   6.609  18.994  0.00  0.00    +0.000 NA
ATOM      4  C   UNL     1       2.164   7.758  18.327  0.00  0.00    +0.000 A 
ATOM      5  C   UNL     1       1.648   8.890  18.907  0.00  0.00    +0.000 A 
ATOM      6  C   UNL     1       1.260   8.766  20.223  0.00  0.00    +0.000 A 
ATOM      7  N   UNL     1       1.423   7.618  20.904  0.00  0.00    +0.000 NA
ATOM      8  H   UNL     1       1.921   5.687  21.994  0.00  0.00    +0.000 HD
ENDROOT
BRANCH   6   9
ATOM      9  N   UNL     1       0.730   9.866  20.917  0.00  0.00    +0.000 N 
ATOM     10  C   UNL     1       0.736   9.985  22.288  0.00  0.00    +0.000 C 
ATOM     11  O   UNL     1       1.231   9.223  23.106  0.00  0.00    +0.000 OA
ATOM     12  O   UNL     1       0.064  11.117  22.662  0.00  0.00    +0.000 OA
ATOM     13  C   UNL     1      -0.574  11.664  21.499  0.00  0.00    +0.000 C 
ATOM     14  C   UNL     1       0.141  11.031  20.291  0.00  0.00    +0.000 C 
ATOM     15  C   UNL     1      -0.931  10.712  19.229  0.00  0.00    +0.000 C 
BRANCH  14  16
ATOM     16  C   UNL     1       1.233  12.021  19.794  0.00  0.00    +0.000 A 
ATOM     17  C   UNL     1       1.843  12.933  20.684  0.00  0.00    +0.000 A 
ATOM     18  C   UNL     1       2.755  13.896  20.239  0.00  0.00    +0.000 A 
ATOM     19  C   UNL     1       3.092  13.967  18.891  0.00  0.00    +0.000 A 
ATOM     20  C   UNL     1       2.521  13.068  17.996  0.00  0.00    +0.000 A 
ATOM     21  C   UNL     1       1.612  12.104  18.441  0.00  0.00    +0.000 A 
ENDBRANCH  14  16
ENDBRANCH   6   9
BRANCH   1  23
ATOM     22  C   UNL     1       0.881   3.909  20.133  0.00  0.00    +0.000 C 
ATOM     23  C   UNL     1       2.325   4.204  20.560  0.00  0.00    +0.000 C 
BRANCH  23  24
ATOM     24  C   UNL     1       3.254   4.048  19.362  0.00  0.00    +0.000 A 
ATOM     25  C   UNL     1       2.727   3.603  18.144  0.00  0.00    +0.000 A 
ATOM     26  C   UNL     1       3.509   3.599  16.988  0.00  0.00    +0.000 A 
ATOM     27  C   UNL     1       4.843   4.025  17.024  0.00  0.00    +0.000 A 
ATOM     28  C   UNL     1       5.615   4.100  15.852  0.00  0.00    +0.000 A 
ATOM     29  C   UNL     1       6.946   4.513  15.901  0.00  0.00    +0.000 A 
ATOM     30  C   UNL     1       7.530   4.832  17.123  0.00  0.00    +0.000 A 
ATOM     31  C   UNL     1       6.772   4.778  18.294  0.00  0.00    +0.000 A 
ATOM     32  C   UNL     1       5.417   4.402  18.257  0.00  0.00    +0.000 A 
ATOM     33  C   UNL     1       4.611   4.417  19.411  0.00  0.00    +0.000 A 
ENDBRANCH  23  24
ENDBRANCH   1  23
TORSDOF 4
ENDMDL
MODEL 5
REMARK VINA RESULT:      -8.8      1.984      3.531
REMARK  Name = 
REMARK  6 active torsions:
REMARK  status: ('A' for Active; 'I' for Inactive)
REMARK    1  A    between atoms: C_1  and  C_2
REMARK    2  A    between atoms: C_2  and  N_3
REMARK    3  A    between atoms: C_2  and  C_23
REMARK    4  A    between atoms: C_8  and  N_9
REMARK    5  A    between atoms: C_14  and  C_15
REMARK    6  A    between atoms: C_14  and  C_16
REMARK                            x       y       z     vdW  Elec       q    Type
REMARK                         _______ _______ _______ _____ _____    ______ ____
ROOT
ATOM      1  N   UNL     1       2.748   6.181  20.442  0.00  0.00    +0.000 N 
ATOM      2  C   UNL     1       2.211   7.268  19.781  0.00  0.00    +0.000 A 
ATOM      3  N   UNL     1       2.531   7.526  18.508  0.00  0.00    +0.000 NA
ATOM      4  C   UNL     1       2.132   8.711  18.016  0.00  0.00    +0.000 A 
ATOM      5  C   UNL     1       1.453   9.650  18.752  0.00  0.00    +0.000 A 
ATOM      6  C   UNL     1       1.114   9.275  20.033  0.00  0.00    +0.000 A 
ATOM      7  N   UNL     1       1.468   8.081  20.540  0.00  0.00    +0.000 NA
ATOM      8  H   UNL     1       2.286   6.117  21.337  0.00  0.00    +0.000 HD
ENDROOT
BRANCH   6   9
ATOM      9  N   UNL     1       0.428  10.164  20.878  0.00  0.00    +0.000 N 
ATOM     10  C   UNL     1       0.512  10.138  22.251  0.00  0.00    +0.000 C 
ATOM     11  O   UNL     1       1.208   9.412  22.947  0.00  0.00    +0.000 OA
ATOM     12  O   UNL     1      -0.343  11.061  22.789  0.00  0.00    +0.000 OA
ATOM     13  C   UNL     1      -1.161  11.584  21.733  0.00  0.00    +0.000 C 
ATOM     14  C   UNL     1      -0.426  11.241  20.424  0.00  0.00    +0.000 C 
ATOM     15  C   UNL     1      -1.488  10.821  19.388  0.00  0.00    +0.000 C 
BRANCH  14  16
ATOM     16  C   UNL     1       0.407  12.482  19.992  0.00  0.00    +0.000 A 
ATOM     17  C   UNL     1       1.650  12.768  20.600  0.00  0.00    +0.000 A 
ATOM     18  C   UNL     1       2.368  13.929  20.296  0.00  0.00    +0.000 A 
ATOM     19  C   UNL     1       1.868  14.833  19.364  0.00  0.00    +0.000 A 
ATOM     20  C   UNL     1       0.656  14.567  18.735  0.00  0.00    +0.000 A 
ATOM     21  C   UNL     1      -0.060  13.405  19.037  0.00  0.00    +0.000 A 
ENDBRANCH  14  16
ENDBRANCH   6   9
BRANCH   1  23
ATOM     22  C   UNL     1       1.582   4.654  18.962  0.00  0.00    +0.000 C 
ATOM     23  C   UNL     1       2.895   4.942  19.703  0.00  0.00    +0.000 C 
BRANCH  23  24
ATOM     24  C   UNL     1       4.040   5.020  18.703  0.00  0.00    +0.000 A 
ATOM     25  C   UNL     1       5.337   5.269  19.168  0.00  0.00    +0.000 A 
ATOM     26  C   UNL     1       6.431   5.191  18.306  0.00  0.00    +0.000 A 
ATOM     27  C   UNL     1       6.256   4.876  16.951  0.00  0.00    +0.000 A 
ATOM     28  C   UNL     1       7.357   4.717  16.093  0.00  0.00    +0.000 A 
ATOM     29  C   UNL     1       7.170   4.417  14.744  0.00  0.00    +0.000 A 
ATOM     30  C   UNL     1       5.883   4.296  14.230  0.00  0.00    +0.000 A 
ATOM     31  C   UNL     1       4.779   4.436  15.075  0.00  0.00    +0.000 A 
ATOM     32  C   UNL     1       4.951   4.699  16.445  0.00  0.00    +0.000 A 
ATOM     33  C   UNL     1       3.858   4.764  17.330  0.00  0.00    +0.000 A 
ENDBRANCH  23  24
ENDBRANCH   1  23
TORSDOF 4
ENDMDL
MODEL 6
REMARK VINA RESULT:      -8.7      1.204      1.360
REMARK  Name = 
REMARK  6 active torsions:
REMARK  status: ('A' for Active; 'I' for Inactive)
REMARK    1  A    between atoms: C_1  and  C_2
REMARK    2  A    between atoms: C_2  and  N_3
REMARK    3  A    between atoms: C_2  and  C_23
REMARK    4  A    between atoms: C_8  and  N_9
REMARK    5  A    between atoms: C_14  and  C_15
REMARK    6  A    between atoms: C_14  and  C_16
REMARK                            x       y       z     vdW  Elec       q    Type
REMARK                         _______ _______ _______ _____ _____    ______ ____
ROOT
ATOM      1  N   UNL     1       1.251   7.549  19.906  0.00  0.00    +0.000 N 
ATOM      2  C   UNL     1       1.039   8.607  20.767  0.00  0.00    +0.000 A 
ATOM      3  N   UNL     1       1.012   8.424  22.091  0.00  0.00    +0.000 NA
ATOM      4  C   UNL     1       0.593   9.462  22.834  0.00  0.00    +0.000 A 
ATOM      5  C   UNL     1       0.181  10.659  22.303  0.00  0.00    +0.000 A 
ATOM      6  C   UNL     1       0.301  10.781  20.937  0.00  0.00    +0.000 A 
ATOM      7  N   UNL     1       0.751   9.770  20.172  0.00  0.00    +0.000 NA
ATOM      8  H   UNL     1       1.346   7.932  18.977  0.00  0.00    +0.000 HD
ENDROOT
BRANCH   6   9
ATOM      9  N   UNL     1      -0.103  11.960  20.288  0.00  0.00    +0.000 N 
ATOM     10  C   UNL     1       0.769  12.866  19.728  0.00  0.00    +0.000 C 
ATOM     11  O   UNL     1       1.986  12.784  19.646  0.00  0.00    +0.000 OA
ATOM     12  O   UNL     1       0.078  13.950  19.260  0.00  0.00    +0.000 OA
ATOM     13  C   UNL     1      -1.283  13.839  19.700  0.00  0.00    +0.000 C 
ATOM     14  C   UNL     1      -1.480  12.363  20.090  0.00  0.00    +0.000 C 
ATOM     15  C   UNL     1      -2.345  12.328  21.365  0.00  0.00    +0.000 C 
BRANCH  14  16
ATOM     16  C   UNL     1      -2.120  11.619  18.883  0.00  0.00    +0.000 A 
ATOM     17  C   UNL     1      -3.513  11.678  18.652  0.00  0.00    +0.000 A 
ATOM     18  C   UNL     1      -4.120  10.939  17.632  0.00  0.00    +0.000 A 
ATOM     19  C   UNL     1      -3.350  10.128  16.805  0.00  0.00    +0.000 A 
ATOM     20  C   UNL     1      -1.974  10.067  16.997  0.00  0.00    +0.000 A 
ATOM     21  C   UNL     1      -1.366  10.807  18.015  0.00  0.00    +0.000 A 
ENDBRANCH  14  16
ENDBRANCH   6   9
BRANCH   1  23
ATOM     22  C   UNL     1       1.479   5.242  20.619  0.00  0.00    +0.000 C 
ATOM     23  C   UNL     1       2.223   6.544  20.291  0.00  0.00    +0.000 C 
BRANCH  23  24
ATOM     24  C   UNL     1       3.234   6.289  19.180  0.00  0.00    +0.000 A 
ATOM     25  C   UNL     1       3.075   6.941  17.951  0.00  0.00    +0.000 A 
ATOM     26  C   UNL     1       4.061   6.857  16.968  0.00  0.00    +0.000 A 
ATOM     27  C   UNL     1       5.225   6.107  17.181  0.00  0.00    +0.000 A 
ATOM     28  C   UNL     1       6.259   6.080  16.230  0.00  0.00    +0.000 A 
ATOM     29  C   UNL     1       7.408   5.320  16.448  0.00  0.00    +0.000 A 
ATOM     30  C   UNL     1       7.528   4.557  17.605  0.00  0.00    +0.000 A 
ATOM     31  C   UNL     1       6.515   4.585  18.567  0.00  0.00    +0.000 A 
ATOM     32  C   UNL     1       5.369   5.378  18.382  0.00  0.00    +0.000 A 
ATOM     33  C   UNL     1       4.374   5.486  19.371  0.00  0.00    +0.000 A 
ENDBRANCH  23  24
ENDBRANCH   1  23
TORSDOF 4
ENDMDL
MODEL 7
REMARK VINA RESULT:      -8.7      1.010      1.659
REMARK  Name = 
REMARK  6 active torsions:
REMARK  status: ('A' for Active; 'I' for Inactive)
REMARK    1  A    between atoms: C_1  and  C_2
REMARK    2  A    between atoms: C_2  and  N_3
REMARK    3  A    between atoms: C_2  and  C_23
REMARK    4  A    between atoms: C_8  and  N_9
REMARK    5  A    between atoms: C_14  and  C_15
REMARK    6  A    between atoms: C_14  and  C_16
REMARK                            x       y       z     vdW  Elec       q    Type
REMARK                         _______ _______ _______ _____ _____    ______ ____
ROOT
ATOM      1  N   UNL     1       1.419   7.680  19.472  0.00  0.00    +0.000 N 
ATOM      2  C   UNL     1       1.219   8.670  20.414  0.00  0.00    +0.000 A 
ATOM      3  N   UNL     1       1.294   8.401  21.721  0.00  0.00    +0.000 NA
ATOM      4  C   UNL     1       0.881   9.367  22.559  0.00  0.00    +0.000 A 
ATOM      5  C   UNL     1       0.377  10.573  22.139  0.00  0.00    +0.000 A 
ATOM      6  C   UNL     1       0.394  10.787  20.779  0.00  0.00    +0.000 A 
ATOM      7  N   UNL     1       0.835   9.852  19.919  0.00  0.00    +0.000 NA
ATOM      8  H   UNL     1       1.429   8.126  18.566  0.00  0.00    +0.000 HD
ENDROOT
BRANCH   6   9
ATOM      9  N   UNL     1      -0.109  11.983  20.239  0.00  0.00    +0.000 N 
ATOM     10  C   UNL     1       0.674  12.953  19.656  0.00  0.00    +0.000 C 
ATOM     11  O   UNL     1       1.881  12.925  19.460  0.00  0.00    +0.000 OA
ATOM     12  O   UNL     1      -0.094  14.033  19.317  0.00  0.00    +0.000 OA
ATOM     13  C   UNL     1      -1.404  13.843  19.872  0.00  0.00    +0.000 C 
ATOM     14  C   UNL     1      -1.512  12.341  20.191  0.00  0.00    +0.000 C 
ATOM     15  C   UNL     1      -2.253  12.201  21.535  0.00  0.00    +0.000 C 
BRANCH  14  16
ATOM     16  C   UNL     1      -2.235  11.640  19.006  0.00  0.00    +0.000 A 
ATOM     17  C   UNL     1      -1.514  10.854  18.079  0.00  0.00    +0.000 A 
ATOM     18  C   UNL     1      -2.129  10.296  16.953  0.00  0.00    +0.000 A 
ATOM     19  C   UNL     1      -3.486  10.499  16.727  0.00  0.00    +0.000 A 
ATOM     20  C   UNL     1      -4.225  11.252  17.634  0.00  0.00    +0.000 A 
ATOM     21  C   UNL     1      -3.611  11.808  18.761  0.00  0.00    +0.000 A 
ENDBRANCH  14  16
ENDBRANCH   6   9
BRANCH   1  23
ATOM     22  C   UNL     1       1.812   5.415  20.242  0.00  0.00    +0.000 C 
ATOM     23  C   UNL     1       2.462   6.705  19.722  0.00  0.00    +0.000 C 
BRANCH  23  24
ATOM     24  C   UNL     1       3.258   6.402  18.460  0.00  0.00    +0.000 A 
ATOM     25  C   UNL     1       3.699   7.464  17.660  0.00  0.00    +0.000 A 
ATOM     26  C   UNL     1       4.562   7.237  16.587  0.00  0.00    +0.000 A 
ATOM     27  C   UNL     1       4.995   5.941  16.276  0.00  0.00    +0.000 A 
ATOM     28  C   UNL     1       5.926   5.711  15.249  0.00  0.00    +0.000 A 
ATOM     29  C   UNL     1       6.340   4.416  14.939  0.00  0.00    +0.000 A 
ATOM     30  C   UNL     1       5.812   3.333  15.634  0.00  0.00    +0.000 A 
ATOM     31  C   UNL     1       4.898   3.547  16.668  0.00  0.00    +0.000 A 
ATOM     32  C   UNL     1       4.500   4.849  17.020  0.00  0.00    +0.000 A 
ATOM     33  C   UNL     1       3.644   5.094  18.110  0.00  0.00    +0.000 A 
ENDBRANCH  23  24
ENDBRANCH   1  23
TORSDOF 4
ENDMDL
MODEL 8
REMARK VINA RESULT:      -8.6      1.569      3.078
REMARK  Name = 
REMARK  6 active torsions:
REMARK  status: ('A' for Active; 'I' for Inactive)
REMARK    1  A    between atoms: C_1  and  C_2
REMARK    2  A    between atoms: C_2  and  N_3
REMARK    3  A    between atoms: C_2  and  C_23
REMARK    4  A    between atoms: C_8  and  N_9
REMARK    5  A    between atoms: C_14  and  C_15
REMARK    6  A    between atoms: C_14  and  C_16
REMARK                            x       y       z     vdW  Elec       q    Type
REMARK                         _______ _______ _______ _____ _____    ______ ____
ROOT
ATOM      1  N   UNL     1       2.427   7.142  18.619  0.00  0.00    +0.000 N 
ATOM      2  C   UNL     1       1.829   7.998  19.522  0.00  0.00    +0.000 A 
ATOM      3  N   UNL     1       1.703   7.662  20.810  0.00  0.00    +0.000 NA
ATOM      4  C   UNL     1       0.926   8.456  21.566  0.00  0.00    +0.000 A 
ATOM      5  C   UNL     1       0.256   9.550  21.079  0.00  0.00    +0.000 A 
ATOM      6  C   UNL     1       0.491   9.857  19.757  0.00  0.00    +0.000 A 
ATOM      7  N   UNL     1       1.292   9.101  18.986  0.00  0.00    +0.000 NA
ATOM      8  H   UNL     1       2.515   7.641  17.745  0.00  0.00    +0.000 HD
ENDROOT
BRANCH   6   9
ATOM      9  N   UNL     1      -0.153  10.950  19.152  0.00  0.00    +0.000 N 
ATOM     10  C   UNL     1      -1.045  10.836  18.110  0.00  0.00    +0.000 C 
ATOM     11  O   UNL     1      -1.462   9.812  17.588  0.00  0.00    +0.000 OA
ATOM     12  O   UNL     1      -1.423  12.079  17.681  0.00  0.00    +0.000 OA
ATOM     13  C   UNL     1      -0.600  13.051  18.343  0.00  0.00    +0.000 C 
ATOM     14  C   UNL     1       0.006  12.330  19.561  0.00  0.00    +0.000 C 
ATOM     15  C   UNL     1       1.470  12.792  19.696  0.00  0.00    +0.000 C 
BRANCH  14  16
ATOM     16  C   UNL     1      -0.867  12.656  20.806  0.00  0.00    +0.000 A 
ATOM     17  C   UNL     1      -0.279  13.139  21.997  0.00  0.00    +0.000 A 
ATOM     18  C   UNL     1      -1.032  13.345  23.157  0.00  0.00    +0.000 A 
ATOM     19  C   UNL     1      -2.399  13.085  23.157  0.00  0.00    +0.000 A 
ATOM     20  C   UNL     1      -3.007  12.629  21.993  0.00  0.00    +0.000 A 
ATOM     21  C   UNL     1      -2.255  12.424  20.832  0.00  0.00    +0.000 A 
ENDBRANCH  14  16
ENDBRANCH   6   9
BRANCH   1  23
ATOM     22  C   UNL     1       3.132   5.046  19.614  0.00  0.00    +0.000 C 
ATOM     23  C   UNL     1       3.593   6.400  19.057  0.00  0.00    +0.000 C 
BRANCH  23  24
ATOM     24  C   UNL     1       4.575   6.175  17.914  0.00  0.00    +0.000 A 
ATOM     25  C   UNL     1       5.879   6.672  18.027  0.00  0.00    +0.000 A 
ATOM     26  C   UNL     1       6.848   6.352  17.076  0.00  0.00    +0.000 A 
ATOM     27  C   UNL     1       6.536   5.538  15.979  0.00  0.00    +0.000 A 
ATOM     28  C   UNL     1       7.522   5.144  15.059  0.00  0.00    +0.000 A 
ATOM     29  C   UNL     1       7.198   4.344  13.964  0.00  0.00    +0.000 A 
ATOM     30  C   UNL     1       5.880   3.948  13.760  0.00  0.00    +0.000 A 
ATOM     31  C   UNL     1       4.890   4.319  14.673  0.00  0.00    +0.000 A 
ATOM     32  C   UNL     1       5.208   5.091  15.804  0.00  0.00    +0.000 A 
ATOM     33  C   UNL     1       4.245   5.409  16.780  0.00  0.00    +0.000 A 
ENDBRANCH  23  24
ENDBRANCH   1  23
TORSDOF 4
ENDMDL
MODEL 9
REMARK VINA RESULT:      -8.6      1.373      2.780
REMARK  Name = 
REMARK  6 active torsions:
REMARK  status: ('A' for Active; 'I' for Inactive)
REMARK    1  A    between atoms: C_1  and  C_2
REMARK    2  A    between atoms: C_2  and  N_3
REMARK    3  A    between atoms: C_2  and  C_23
REMARK    4  A    between atoms: C_8  and  N_9
REMARK    5  A    between atoms: C_14  and  C_15
REMARK    6  A    between atoms: C_14  and  C_16
REMARK                            x       y       z     vdW  Elec       q    Type
REMARK                         _______ _______ _______ _____ _____    ______ ____
ROOT
ATOM      1  N   UNL     1       1.882   7.036  19.356  0.00  0.00    +0.000 N 
ATOM      2  C   UNL     1       1.511   8.107  20.144  0.00  0.00    +0.000 A 
ATOM      3  N   UNL     1       1.457   7.996  21.475  0.00  0.00    +0.000 NA
ATOM      4  C   UNL     1       0.886   9.015  22.142  0.00  0.00    +0.000 A 
ATOM      5  C   UNL     1       0.351  10.119  21.527  0.00  0.00    +0.000 A 
ATOM      6  C   UNL     1       0.505  10.177  20.160  0.00  0.00    +0.000 A 
ATOM      7  N   UNL     1       1.104   9.189  19.471  0.00  0.00    +0.000 NA
ATOM      8  H   UNL     1       1.964   7.374  18.408  0.00  0.00    +0.000 HD
ENDROOT
BRANCH   6   9
ATOM      9  N   UNL     1      -0.016  11.258  19.429  0.00  0.00    +0.000 N 
ATOM     10  C   UNL     1      -0.888  11.122  18.373  0.00  0.00    +0.000 C 
ATOM     11  O   UNL     1      -1.387  10.094  17.939  0.00  0.00    +0.000 OA
ATOM     12  O   UNL     1      -1.134  12.345  17.810  0.00  0.00    +0.000 OA
ATOM     13  C   UNL     1      -0.239  13.299  18.401  0.00  0.00    +0.000 C 
ATOM     14  C   UNL     1       0.263  12.652  19.705  0.00  0.00    +0.000 C 
ATOM     15  C   UNL     1       1.761  12.988  19.845  0.00  0.00    +0.000 C 
BRANCH  14  16
ATOM     16  C   UNL     1      -0.606  13.182  20.881  0.00  0.00    +0.000 A 
ATOM     17  C   UNL     1      -0.019  13.883  21.958  0.00  0.00    +0.000 A 
ATOM     18  C   UNL     1      -0.766  14.281  23.071  0.00  0.00    +0.000 A 
ATOM     19  C   UNL     1      -2.127  14.001  23.133  0.00  0.00    +0.000 A 
ATOM     20  C   UNL     1      -2.736  13.330  22.077  0.00  0.00    +0.000 A 
ATOM     21  C   UNL     1      -1.989  12.933  20.964  0.00  0.00    +0.000 A 
ENDBRANCH  14  16
ENDBRANCH   6   9
BRANCH   1  23
ATOM     22  C   UNL     1       2.362   5.125  20.770  0.00  0.00    +0.000 C 
ATOM     23  C   UNL     1       2.956   6.184  19.830  0.00  0.00    +0.000 C 
BRANCH  23  24
ATOM     24  C   UNL     1       3.675   5.497  18.677  0.00  0.00    +0.000 A 
ATOM     25  C   UNL     1       3.024   4.472  17.980  0.00  0.00    +0.000 A 
ATOM     26  C   UNL     1       3.585   3.929  16.823  0.00  0.00    +0.000 A 
ATOM     27  C   UNL     1       4.819   4.386  16.341  0.00  0.00    +0.000 A 
ATOM     28  C   UNL     1       5.354   3.903  15.135  0.00  0.00    +0.000 A 
ATOM     29  C   UNL     1       6.589   4.356  14.671  0.00  0.00    +0.000 A 
ATOM     30  C   UNL     1       7.316   5.278  15.418  0.00  0.00    +0.000 A 
ATOM     31  C   UNL     1       6.790   5.779  16.611  0.00  0.00    +0.000 A 
ATOM     32  C   UNL     1       5.529   5.363  17.072  0.00  0.00    +0.000 A 
ATOM     33  C   UNL     1       4.943   5.913  18.228  0.00  0.00    +0.000 A 
ENDBRANCH  23  24
ENDBRANCH   1  23
TORSDOF 4
ENDMDL
