MODEL 1
REMARK VINA RESULT:      -8.6      0.000      0.000
REMARK  Name = 
REMARK  6 active torsions:
REMARK  status: ('A' for Active; 'I' for Inactive)
REMARK    1  A    between atoms: C_2  and  C_3
REMARK    2  A    between atoms: C_3  and  N_4
REMARK    3  A    between atoms: N_7  and  C_8
REMARK    4  A    between atoms: C_11  and  C_12
REMARK    5  A    between atoms: N_24  and  C_25
REMARK    6  A    between atoms: C_25  and  C_26
REMARK                            x       y       z     vdW  Elec       q    Type
REMARK                         _______ _______ _______ _____ _____    ______ ____
ROOT
ATOM      1  N   UNL     1       3.243   2.377  19.104  0.00  0.00    +0.000 NA
ATOM      2  C   UNL     1       3.051   2.157  17.655  0.00  0.00    +0.000 C 
ATOM      3  C   UNL     1       3.057   3.424  16.769  0.00  0.00    +0.000 C 
ATOM      4  N   UNL     1       4.223   4.280  17.026  0.00  0.00    +0.000 N 
ATOM      5  C   UNL     1       4.566   4.488  18.442  0.00  0.00    +0.000 C 
ATOM      6  C   UNL     1       4.479   3.184  19.277  0.00  0.00    +0.000 C 
ENDROOT
BRANCH   4   7
ATOM      7  C   UNL     1       5.161   4.531  16.040  0.00  0.00    +0.000 A 
ATOM      8  N   UNL     1       5.021   3.859  14.866  0.00  0.00    +0.000 NA
ATOM      9  C   UNL     1       5.906   4.071  13.857  0.00  0.00    +0.000 A 
ATOM     10  C   UNL     1       6.967   4.953  13.929  0.00  0.00    +0.000 A 
ATOM     11  C   UNL     1       7.135   5.633  15.132  0.00  0.00    +0.000 A 
ATOM     12  C   UNL     1       6.254   5.410  16.197  0.00  0.00    +0.000 A 
ATOM     13 CL   UNL     1       6.690   6.171  17.694  0.00  0.00    +0.000 Cl
BRANCH  10  14
ATOM     14  C   UNL     1       7.908   5.155  12.785  0.00  0.00    +0.000 C 
ATOM     15  F   UNL     1       7.684   6.299  12.083  0.00  0.00    +0.000 F 
ATOM     16  F   UNL     1       9.208   5.211  13.187  0.00  0.00    +0.000 F 
ATOM     17  F   UNL     1       7.847   4.142  11.877  0.00  0.00    +0.000 F 
ENDBRANCH  10  14
ENDBRANCH   4   7
BRANCH   1  18
ATOM     18  C   UNL     1       2.079   3.055  19.725  0.00  0.00    +0.000 C 
BRANCH  18  20
ATOM     19  O   UNL     1       2.781   2.853  22.070  0.00  0.00    +0.000 OA
ATOM     20  C   UNL     1       2.370   3.564  21.150  0.00  0.00    +0.000 C 
ATOM     21  N   UNL     1       2.177   4.906  21.412  0.00  0.00    +0.000 N 
ATOM     22  C   UNL     1       2.008   5.934  20.516  0.00  0.00    +0.000 C 
ATOM     23  O   UNL     1       1.977   5.800  19.301  0.00  0.00    +0.000 OA
ATOM     24  N   UNL     1       1.835   7.145  21.119  0.00  0.00    +0.000 N 
ATOM     25  H   UNL     1       2.382   5.150  22.369  0.00  0.00    +0.000 HD
ATOM     26  H   UNL     1       2.003   7.270  22.106  0.00  0.00    +0.000 HD
BRANCH  24  27
ATOM     27  C   UNL     1       1.521   8.331  20.342  0.00  0.00    +0.000 C 
BRANCH  27  28
ATOM     28  C   UNL     1       0.644   9.270  21.126  0.00  0.00    +0.000 A 
ATOM     29  C   UNL     1       0.023  10.359  20.499  0.00  0.00    +0.000 A 
ATOM     30  C   UNL     1      -0.800  11.218  21.228  0.00  0.00    +0.000 A 
ATOM     31  C   UNL     1      -1.005  11.001  22.590  0.00  0.00    +0.000 A 
ATOM     32  C   UNL     1      -0.381   9.931  23.227  0.00  0.00    +0.000 A 
ATOM     33  C   UNL     1       0.445   9.072  22.501  0.00  0.00    +0.000 A 
ENDBRANCH  27  28
ENDBRANCH  24  27
ENDBRANCH  18  20
ENDBRANCH   1  18
TORSDOF 6
ENDMDL
MODEL 2
REMARK VINA RESULT:      -8.3      4.867      9.397
REMARK  Name = 
REMARK  6 active torsions:
REMARK  status: ('A' for Active; 'I' for Inactive)
REMARK    1  A    between atoms: C_2  and  C_3
REMARK    2  A    between atoms: C_3  and  N_4
REMARK    3  A    between atoms: N_7  and  C_8
REMARK    4  A    between atoms: C_11  and  C_12
REMARK    5  A    between atoms: N_24  and  C_25
REMARK    6  A    between atoms: C_25  and  C_26
REMARK                            x       y       z     vdW  Elec       q    Type
REMARK                         _______ _______ _______ _____ _____    ______ ____
ROOT
ATOM      1  N   UNL     1       2.240   5.030  19.336  0.00  0.00    +0.000 NA
ATOM      2  C   UNL     1       1.455   5.559  20.470  0.00  0.00    +0.000 C 
ATOM      3  C   UNL     1       1.830   6.979  20.952  0.00  0.00    +0.000 C 
ATOM      4  N   UNL     1       1.888   7.946  19.849  0.00  0.00    +0.000 N 
ATOM      5  C   UNL     1       2.566   7.486  18.626  0.00  0.00    +0.000 C 
ATOM      6  C   UNL     1       2.184   6.033  18.241  0.00  0.00    +0.000 C 
ENDROOT
BRANCH   4   7
ATOM      7  C   UNL     1       1.032   9.034  19.801  0.00  0.00    +0.000 A 
ATOM      8  N   UNL     1       0.767   9.560  18.575  0.00  0.00    +0.000 NA
ATOM      9  C   UNL     1      -0.073  10.621  18.463  0.00  0.00    +0.000 A 
ATOM     10  C   UNL     1      -0.708  11.223  19.533  0.00  0.00    +0.000 A 
ATOM     11  C   UNL     1      -0.430  10.708  20.796  0.00  0.00    +0.000 A 
ATOM     12  C   UNL     1       0.455   9.632  20.940  0.00  0.00    +0.000 A 
ATOM     13 CL   UNL     1       0.860   9.219  22.575  0.00  0.00    +0.000 Cl
BRANCH  10  14
ATOM     14  C   UNL     1      -1.631  12.385  19.354  0.00  0.00    +0.000 C 
ATOM     15  F   UNL     1      -2.046  12.945  20.522  0.00  0.00    +0.000 F 
ATOM     16  F   UNL     1      -1.061  13.394  18.637  0.00  0.00    +0.000 F 
ATOM     17  F   UNL     1      -2.765  12.049  18.679  0.00  0.00    +0.000 F 
ENDBRANCH  10  14
ENDBRANCH   4   7
BRANCH   1  18
ATOM     18  C   UNL     1       3.645   4.741  19.716  0.00  0.00    +0.000 C 
BRANCH  18  20
ATOM     19  O   UNL     1       3.692   2.288  19.616  0.00  0.00    +0.000 OA
ATOM     20  C   UNL     1       4.132   3.368  19.216  0.00  0.00    +0.000 C 
ATOM     21  N   UNL     1       5.113   3.341  18.244  0.00  0.00    +0.000 N 
ATOM     22  C   UNL     1       5.552   4.371  17.448  0.00  0.00    +0.000 C 
ATOM     23  O   UNL     1       5.137   5.520  17.504  0.00  0.00    +0.000 OA
ATOM     24  N   UNL     1       6.546   3.998  16.591  0.00  0.00    +0.000 N 
ATOM     25  H   UNL     1       5.378   2.404  17.982  0.00  0.00    +0.000 HD
ATOM     26  H   UNL     1       6.781   3.027  16.450  0.00  0.00    +0.000 HD
BRANCH  24  27
ATOM     27  C   UNL     1       7.222   4.975  15.755  0.00  0.00    +0.000 C 
BRANCH  27  28
ATOM     28  C   UNL     1       7.044   4.648  14.298  0.00  0.00    +0.000 A 
ATOM     29  C   UNL     1       7.823   5.286  13.322  0.00  0.00    +0.000 A 
ATOM     30  C   UNL     1       7.663   4.969  11.973  0.00  0.00    +0.000 A 
ATOM     31  C   UNL     1       6.721   4.018  11.585  0.00  0.00    +0.000 A 
ATOM     32  C   UNL     1       5.930   3.389  12.544  0.00  0.00    +0.000 A 
ATOM     33  C   UNL     1       6.086   3.706  13.894  0.00  0.00    +0.000 A 
ENDBRANCH  27  28
ENDBRANCH  24  27
ENDBRANCH  18  20
ENDBRANCH   1  18
TORSDOF 6
ENDMDL
MODEL 3
REMARK VINA RESULT:      -8.2      4.812      9.348
REMARK  Name = 
REMARK  6 active torsions:
REMARK  status: ('A' for Active; 'I' for Inactive)
REMARK    1  A    between atoms: C_2  and  C_3
REMARK    2  A    between atoms: C_3  and  N_4
REMARK    3  A    between atoms: N_7  and  C_8
REMARK    4  A    between atoms: C_11  and  C_12
REMARK    5  A    between atoms: N_24  and  C_25
REMARK    6  A    between atoms: C_25  and  C_26
REMARK                            x       y       z     vdW  Elec       q    Type
REMARK                         _______ _______ _______ _____ _____    ______ ____
ROOT
ATOM      1  N   UNL     1       2.449   5.007  19.569  0.00  0.00    +0.000 NA
ATOM      2  C   UNL     1       1.697   5.616  20.685  0.00  0.00    +0.000 C 
ATOM      3  C   UNL     1       2.031   7.090  21.006  0.00  0.00    +0.000 C 
ATOM      4  N   UNL     1       1.993   7.944  19.811  0.00  0.00    +0.000 N 
ATOM      5  C   UNL     1       2.632   7.391  18.606  0.00  0.00    +0.000 C 
ATOM      6  C   UNL     1       2.296   5.893  18.385  0.00  0.00    +0.000 C 
ENDROOT
BRANCH   4   7
ATOM      7  C   UNL     1       1.088   8.986  19.702  0.00  0.00    +0.000 A 
ATOM      8  N   UNL     1       0.881   9.499  18.460  0.00  0.00    +0.000 NA
ATOM      9  C   UNL     1      -0.003  10.516  18.288  0.00  0.00    +0.000 A 
ATOM     10  C   UNL     1      -0.739  11.084  19.310  0.00  0.00    +0.000 A 
ATOM     11  C   UNL     1      -0.522  10.584  20.590  0.00  0.00    +0.000 A 
ATOM     12  C   UNL     1       0.405   9.554  20.798  0.00  0.00    +0.000 A 
ATOM     13 CL   UNL     1       0.720   9.162  22.458  0.00  0.00    +0.000 Cl
BRANCH  10  14
ATOM     14  C   UNL     1      -1.706  12.198  19.065  0.00  0.00    +0.000 C 
ATOM     15  F   UNL     1      -1.387  12.981  17.999  0.00  0.00    +0.000 F 
ATOM     16  F   UNL     1      -2.969  11.745  18.832  0.00  0.00    +0.000 F 
ATOM     17  F   UNL     1      -1.807  13.042  20.129  0.00  0.00    +0.000 F 
ENDBRANCH  10  14
ENDBRANCH   4   7
BRANCH   1  18
ATOM     18  C   UNL     1       3.882   4.814  19.901  0.00  0.00    +0.000 C 
BRANCH  18  20
ATOM     19  O   UNL     1       4.070   2.365  19.941  0.00  0.00    +0.000 OA
ATOM     20  C   UNL     1       4.423   3.441  19.455  0.00  0.00    +0.000 C 
ATOM     21  N   UNL     1       5.350   3.410  18.431  0.00  0.00    +0.000 N 
ATOM     22  C   UNL     1       5.682   4.413  17.552  0.00  0.00    +0.000 C 
ATOM     23  O   UNL     1       5.203   5.538  17.566  0.00  0.00    +0.000 OA
ATOM     24  N   UNL     1       6.649   4.044  16.663  0.00  0.00    +0.000 N 
ATOM     25  H   UNL     1       5.655   2.475  18.210  0.00  0.00    +0.000 HD
ATOM     26  H   UNL     1       6.933   3.081  16.565  0.00  0.00    +0.000 HD
BRANCH  24  27
ATOM     27  C   UNL     1       7.218   5.005  15.734  0.00  0.00    +0.000 C 
BRANCH  27  28
ATOM     28  C   UNL     1       6.959   4.593  14.310  0.00  0.00    +0.000 A 
ATOM     29  C   UNL     1       5.926   3.696  14.003  0.00  0.00    +0.000 A 
ATOM     30  C   UNL     1       5.681   3.327  12.681  0.00  0.00    +0.000 A 
ATOM     31  C   UNL     1       6.468   3.846  11.653  0.00  0.00    +0.000 A 
ATOM     32  C   UNL     1       7.507   4.727  11.947  0.00  0.00    +0.000 A 
ATOM     33  C   UNL     1       7.756   5.095  13.270  0.00  0.00    +0.000 A 
ENDBRANCH  27  28
ENDBRANCH  24  27
ENDBRANCH  18  20
ENDBRANCH   1  18
TORSDOF 6
ENDMDL
MODEL 4
REMARK VINA RESULT:      -8.0      4.393      8.622
REMARK  Name = 
REMARK  6 active torsions:
REMARK  status: ('A' for Active; 'I' for Inactive)
REMARK    1  A    between atoms: C_2  and  C_3
REMARK    2  A    between atoms: C_3  and  N_4
REMARK    3  A    between atoms: N_7  and  C_8
REMARK    4  A    between atoms: C_11  and  C_12
REMARK    5  A    between atoms: N_24  and  C_25
REMARK    6  A    between atoms: C_25  and  C_26
REMARK                            x       y       z     vdW  Elec       q    Type
REMARK                         _______ _______ _______ _____ _____    ______ ____
ROOT
ATOM      1  N   UNL     1       2.164   2.793  20.089  0.00  0.00    +0.000 NA
ATOM      2  C   UNL     1       2.915   3.765  20.912  0.00  0.00    +0.000 C 
ATOM      3  C   UNL     1       3.347   5.067  20.199  0.00  0.00    +0.000 C 
ATOM      4  N   UNL     1       2.232   5.715  19.496  0.00  0.00    +0.000 N 
ATOM      5  C   UNL     1       1.357   4.822  18.720  0.00  0.00    +0.000 C 
ATOM      6  C   UNL     1       1.016   3.512  19.477  0.00  0.00    +0.000 C 
ENDROOT
BRANCH   4   7
ATOM      7  C   UNL     1       1.793   6.978  19.855  0.00  0.00    +0.000 A 
ATOM      8  N   UNL     1       1.138   7.091  21.041  0.00  0.00    +0.000 NA
ATOM      9  C   UNL     1       0.692   8.307  21.453  0.00  0.00    +0.000 A 
ATOM     10  C   UNL     1       0.865   9.478  20.740  0.00  0.00    +0.000 A 
ATOM     11  C   UNL     1       1.515   9.373  19.513  0.00  0.00    +0.000 A 
ATOM     12  C   UNL     1       1.959   8.127  19.054  0.00  0.00    +0.000 A 
ATOM     13 CL   UNL     1       2.575   8.109  17.432  0.00  0.00    +0.000 Cl
BRANCH  10  14
ATOM     14  C   UNL     1       0.361  10.793  21.242  0.00  0.00    +0.000 C 
ATOM     15  F   UNL     1       0.035  10.790  22.563  0.00  0.00    +0.000 F 
ATOM     16  F   UNL     1       1.273  11.792  21.083  0.00  0.00    +0.000 F 
ATOM     17  F   UNL     1      -0.757  11.206  20.584  0.00  0.00    +0.000 F 
ENDBRANCH  10  14
ENDBRANCH   4   7
BRANCH   1  18
ATOM     18  C   UNL     1       3.015   2.171  19.045  0.00  0.00    +0.000 C 
BRANCH  18  20
ATOM     19  O   UNL     1       5.146   1.680  20.163  0.00  0.00    +0.000 OA
ATOM     20  C   UNL     1       4.522   2.332  19.323  0.00  0.00    +0.000 C 
ATOM     21  N   UNL     1       5.226   3.252  18.571  0.00  0.00    +0.000 N 
ATOM     22  C   UNL     1       4.840   3.879  17.411  0.00  0.00    +0.000 C 
ATOM     23  O   UNL     1       3.757   3.725  16.864  0.00  0.00    +0.000 OA
ATOM     24  N   UNL     1       5.782   4.741  16.931  0.00  0.00    +0.000 N 
ATOM     25  H   UNL     1       6.201   3.298  18.824  0.00  0.00    +0.000 HD
ATOM     26  H   UNL     1       6.720   4.754  17.302  0.00  0.00    +0.000 HD
BRANCH  24  27
ATOM     27  C   UNL     1       5.508   5.585  15.781  0.00  0.00    +0.000 C 
BRANCH  27  28
ATOM     28  C   UNL     1       6.061   4.974  14.522  0.00  0.00    +0.000 A 
ATOM     29  C   UNL     1       7.315   5.362  14.030  0.00  0.00    +0.000 A 
ATOM     30  C   UNL     1       7.829   4.783  12.870  0.00  0.00    +0.000 A 
ATOM     31  C   UNL     1       7.094   3.814  12.188  0.00  0.00    +0.000 A 
ATOM     32  C   UNL     1       5.840   3.430  12.659  0.00  0.00    +0.000 A 
ATOM     33  C   UNL     1       5.322   4.011  13.818  0.00  0.00    +0.000 A 
ENDBRANCH  27  28
ENDBRANCH  24  27
ENDBRANCH  18  20
ENDBRANCH   1  18
TORSDOF 6
ENDMDL
MODEL 5
REMARK VINA RESULT:      -7.9      4.890      9.458
REMARK  Name = 
REMARK  6 active torsions:
REMARK  status: ('A' for Active; 'I' for Inactive)
REMARK    1  A    between atoms: C_2  and  C_3
REMARK    2  A    between atoms: C_3  and  N_4
REMARK    3  A    between atoms: N_7  and  C_8
REMARK    4  A    between atoms: C_11  and  C_12
REMARK    5  A    between atoms: N_24  and  C_25
REMARK    6  A    between atoms: C_25  and  C_26
REMARK                            x       y       z     vdW  Elec       q    Type
REMARK                         _______ _______ _______ _____ _____    ______ ____
ROOT
ATOM      1  N   UNL     1       1.790   4.319  19.207  0.00  0.00    +0.000 NA
ATOM      2  C   UNL     1       1.147   4.743  20.468  0.00  0.00    +0.000 C 
ATOM      3  C   UNL     1       1.773   5.969  21.171  0.00  0.00    +0.000 C 
ATOM      4  N   UNL     1       1.953   7.105  20.258  0.00  0.00    +0.000 N 
ATOM      5  C   UNL     1       2.498   6.782  18.930  0.00  0.00    +0.000 C 
ATOM      6  C   UNL     1       1.863   5.507  18.317  0.00  0.00    +0.000 C 
ENDROOT
BRANCH   4   7
ATOM      7  C   UNL     1       1.290   8.303  20.464  0.00  0.00    +0.000 A 
ATOM      8  N   UNL     1       0.742   8.505  21.693  0.00  0.00    +0.000 NA
ATOM      9  C   UNL     1       0.088   9.665  21.958  0.00  0.00    +0.000 A 
ATOM     10  C   UNL     1      -0.063  10.695  21.049  0.00  0.00    +0.000 A 
ATOM     11  C   UNL     1       0.473  10.494  19.781  0.00  0.00    +0.000 A 
ATOM     12  C   UNL     1       1.128   9.295  19.474  0.00  0.00    +0.000 A 
ATOM     13 CL   UNL     1       1.575   9.097  17.809  0.00  0.00    +0.000 Cl
BRANCH  10  14
ATOM     14  C   UNL     1      -0.787  11.957  21.395  0.00  0.00    +0.000 C 
ATOM     15  F   UNL     1      -1.699  11.813  22.394  0.00  0.00    +0.000 F 
ATOM     16  F   UNL     1       0.059  12.944  21.801  0.00  0.00    +0.000 F 
ATOM     17  F   UNL     1      -1.472  12.470  20.336  0.00  0.00    +0.000 F 
ENDBRANCH  10  14
ENDBRANCH   4   7
BRANCH   1  18
ATOM     18  C   UNL     1       3.140   3.746  19.433  0.00  0.00    +0.000 C 
BRANCH  18  20
ATOM     19  O   UNL     1       2.800   1.463  18.592  0.00  0.00    +0.000 OA
ATOM     20  C   UNL     1       3.429   2.522  18.543  0.00  0.00    +0.000 C 
ATOM     21  N   UNL     1       4.448   2.620  17.616  0.00  0.00    +0.000 N 
ATOM     22  C   UNL     1       5.091   3.751  17.173  0.00  0.00    +0.000 C 
ATOM     23  O   UNL     1       4.863   4.884  17.573  0.00  0.00    +0.000 OA
ATOM     24  N   UNL     1       6.061   3.487  16.250  0.00  0.00    +0.000 N 
ATOM     25  H   UNL     1       4.574   1.773  17.083  0.00  0.00    +0.000 HD
ATOM     26  H   UNL     1       6.146   2.577  15.822  0.00  0.00    +0.000 HD
BRANCH  24  27
ATOM     27  C   UNL     1       6.931   4.539  15.755  0.00  0.00    +0.000 C 
BRANCH  27  28
ATOM     28  C   UNL     1       7.000   4.516  14.252  0.00  0.00    +0.000 A 
ATOM     29  C   UNL     1       6.265   3.575  13.518  0.00  0.00    +0.000 A 
ATOM     30  C   UNL     1       6.322   3.566  12.125  0.00  0.00    +0.000 A 
ATOM     31  C   UNL     1       7.116   4.493  11.451  0.00  0.00    +0.000 A 
ATOM     32  C   UNL     1       7.863   5.424  12.171  0.00  0.00    +0.000 A 
ATOM     33  C   UNL     1       7.810   5.433  13.565  0.00  0.00    +0.000 A 
ENDBRANCH  27  28
ENDBRANCH  24  27
ENDBRANCH  18  20
ENDBRANCH   1  18
TORSDOF 6
ENDMDL
MODEL 6
REMARK VINA RESULT:      -7.9      4.792      6.809
REMARK  Name = 
REMARK  6 active torsions:
REMARK  status: ('A' for Active; 'I' for Inactive)
REMARK    1  A    between atoms: C_2  and  C_3
REMARK    2  A    between atoms: C_3  and  N_4
REMARK    3  A    between atoms: N_7  and  C_8
REMARK    4  A    between atoms: C_11  and  C_12
REMARK    5  A    between atoms: N_24  and  C_25
REMARK    6  A    between atoms: C_25  and  C_26
REMARK                            x       y       z     vdW  Elec       q    Type
REMARK                         _______ _______ _______ _____ _____    ______ ____
ROOT
ATOM      1  N   UNL     1       1.186  10.142  19.594  0.00  0.00    +0.000 NA
ATOM      2  C   UNL     1       1.838   9.066  20.369  0.00  0.00    +0.000 C 
ATOM      3  C   UNL     1       1.697   7.636  19.799  0.00  0.00    +0.000 C 
ATOM      4  N   UNL     1       2.061   7.563  18.378  0.00  0.00    +0.000 N 
ATOM      5  C   UNL     1       1.544   8.646  17.526  0.00  0.00    +0.000 C 
ATOM      6  C   UNL     1       1.666  10.042  18.191  0.00  0.00    +0.000 C 
ENDROOT
BRANCH   4   7
ATOM      7  C   UNL     1       3.127   6.790  17.949  0.00  0.00    +0.000 A 
ATOM      8  N   UNL     1       4.262   7.446  17.590  0.00  0.00    +0.000 NA
ATOM      9  C   UNL     1       5.345   6.741  17.169  0.00  0.00    +0.000 A 
ATOM     10  C   UNL     1       5.386   5.363  17.084  0.00  0.00    +0.000 A 
ATOM     11  C   UNL     1       4.224   4.679  17.428  0.00  0.00    +0.000 A 
ATOM     12  C   UNL     1       3.086   5.385  17.838  0.00  0.00    +0.000 A 
ATOM     13 CL   UNL     1       1.654   4.427  18.049  0.00  0.00    +0.000 Cl
BRANCH  10  14
ATOM     14  C   UNL     1       6.608   4.635  16.622  0.00  0.00    +0.000 C 
ATOM     15  F   UNL     1       6.341   3.518  15.891  0.00  0.00    +0.000 F 
ATOM     16  F   UNL     1       7.409   5.411  15.839  0.00  0.00    +0.000 F 
ATOM     17  F   UNL     1       7.391   4.224  17.657  0.00  0.00    +0.000 F 
ENDBRANCH  10  14
ENDBRANCH   4   7
BRANCH   1  18
ATOM     18  C   UNL     1      -0.294  10.055  19.653  0.00  0.00    +0.000 C 
BRANCH  18  20
ATOM     19  O   UNL     1      -1.553   9.936  17.547  0.00  0.00    +0.000 OA
ATOM     20  C   UNL     1      -0.979  10.623  18.395  0.00  0.00    +0.000 C 
ATOM     21  N   UNL     1      -0.967  11.992  18.211  0.00  0.00    +0.000 N 
ATOM     22  C   UNL     1      -0.658  12.971  19.124  0.00  0.00    +0.000 C 
ATOM     23  O   UNL     1      -0.307  12.763  20.277  0.00  0.00    +0.000 OA
ATOM     24  N   UNL     1      -0.742  14.230  18.605  0.00  0.00    +0.000 N 
ATOM     25  H   UNL     1      -1.430  12.275  17.361  0.00  0.00    +0.000 HD
ATOM     26  H   UNL     1      -1.167  14.401  17.707  0.00  0.00    +0.000 HD
BRANCH  24  27
ATOM     27  C   UNL     1      -0.336  15.389  19.381  0.00  0.00    +0.000 C 
BRANCH  27  28
ATOM     28  C   UNL     1       0.130  16.501  18.480  0.00  0.00    +0.000 A 
ATOM     29  C   UNL     1       1.493  16.671  18.202  0.00  0.00    +0.000 A 
ATOM     30  C   UNL     1       1.918  17.695  17.356  0.00  0.00    +0.000 A 
ATOM     31  C   UNL     1       0.988  18.562  16.784  0.00  0.00    +0.000 A 
ATOM     32  C   UNL     1      -0.369  18.412  17.066  0.00  0.00    +0.000 A 
ATOM     33  C   UNL     1      -0.797  17.390  17.914  0.00  0.00    +0.000 A 
ENDBRANCH  27  28
ENDBRANCH  24  27
ENDBRANCH  18  20
ENDBRANCH   1  18
TORSDOF 6
ENDMDL
MODEL 7
REMARK VINA RESULT:      -7.8      4.804      7.553
REMARK  Name = 
REMARK  6 active torsions:
REMARK  status: ('A' for Active; 'I' for Inactive)
REMARK    1  A    between atoms: C_2  and  C_3
REMARK    2  A    between atoms: C_3  and  N_4
REMARK    3  A    between atoms: N_7  and  C_8
REMARK    4  A    between atoms: C_11  and  C_12
REMARK    5  A    between atoms: N_24  and  C_25
REMARK    6  A    between atoms: C_25  and  C_26
REMARK                            x       y       z     vdW  Elec       q    Type
REMARK                         _______ _______ _______ _____ _____    ______ ____
ROOT
ATOM      1  N   UNL     1       0.008  10.289  20.459  0.00  0.00    +0.000 NA
ATOM      2  C   UNL     1       0.400   9.820  19.113  0.00  0.00    +0.000 C 
ATOM      3  C   UNL     1       1.738   9.051  19.025  0.00  0.00    +0.000 C 
ATOM      4  N   UNL     1       1.824   7.966  20.012  0.00  0.00    +0.000 N 
ATOM      5  C   UNL     1       1.364   8.295  21.370  0.00  0.00    +0.000 C 
ATOM      6  C   UNL     1       0.049   9.118  21.374  0.00  0.00    +0.000 C 
ENDROOT
BRANCH   4   7
ATOM      7  C   UNL     1       1.933   6.643  19.617  0.00  0.00    +0.000 A 
ATOM      8  N   UNL     1       1.316   5.712  20.393  0.00  0.00    +0.000 NA
ATOM      9  C   UNL     1       1.380   4.399  20.051  0.00  0.00    +0.000 A 
ATOM     10  C   UNL     1       2.037   3.920  18.934  0.00  0.00    +0.000 A 
ATOM     11  C   UNL     1       2.692   4.859  18.142  0.00  0.00    +0.000 A 
ATOM     12  C   UNL     1       2.665   6.216  18.489  0.00  0.00    +0.000 A 
ATOM     13 CL   UNL     1       3.678   7.248  17.530  0.00  0.00    +0.000 Cl
BRANCH  10  14
ATOM     14  C   UNL     1       2.070   2.463  18.599  0.00  0.00    +0.000 C 
ATOM     15  F   UNL     1       2.455   2.200  17.321  0.00  0.00    +0.000 F 
ATOM     16  F   UNL     1       2.926   1.767  19.398  0.00  0.00    +0.000 F 
ATOM     17  F   UNL     1       0.856   1.867  18.752  0.00  0.00    +0.000 F 
ENDBRANCH  10  14
ENDBRANCH   4   7
BRANCH   1  18
ATOM     18  C   UNL     1       0.890  11.375  20.952  0.00  0.00    +0.000 C 
BRANCH  18  20
ATOM     19  O   UNL     1       0.755  13.157  19.267  0.00  0.00    +0.000 OA
ATOM     20  C   UNL     1       0.498  12.762  20.406  0.00  0.00    +0.000 C 
ATOM     21  N   UNL     1      -0.202  13.612  21.239  0.00  0.00    +0.000 N 
ATOM     22  C   UNL     1      -0.845  13.314  22.416  0.00  0.00    +0.000 C 
ATOM     23  O   UNL     1      -0.869  12.207  22.935  0.00  0.00    +0.000 OA
ATOM     24  N   UNL     1      -1.438  14.401  22.990  0.00  0.00    +0.000 N 
ATOM     25  H   UNL     1      -0.410  14.499  20.805  0.00  0.00    +0.000 HD
ATOM     26  H   UNL     1      -1.537  15.271  22.491  0.00  0.00    +0.000 HD
BRANCH  24  27
ATOM     27  C   UNL     1      -2.062  14.309  24.299  0.00  0.00    +0.000 C 
BRANCH  27  28
ATOM     28  C   UNL     1      -3.523  13.974  24.174  0.00  0.00    +0.000 A 
ATOM     29  C   UNL     1      -4.003  12.716  24.564  0.00  0.00    +0.000 A 
ATOM     30  C   UNL     1      -5.361  12.415  24.459  0.00  0.00    +0.000 A 
ATOM     31  C   UNL     1      -6.251  13.364  23.958  0.00  0.00    +0.000 A 
ATOM     32  C   UNL     1      -5.783  14.612  23.552  0.00  0.00    +0.000 A 
ATOM     33  C   UNL     1      -4.425  14.915  23.654  0.00  0.00    +0.000 A 
ENDBRANCH  27  28
ENDBRANCH  24  27
ENDBRANCH  18  20
ENDBRANCH   1  18
TORSDOF 6
ENDMDL
MODEL 8
REMARK VINA RESULT:      -7.8      5.082      9.575
REMARK  Name = 
REMARK  6 active torsions:
REMARK  status: ('A' for Active; 'I' for Inactive)
REMARK    1  A    between atoms: C_2  and  C_3
REMARK    2  A    between atoms: C_3  and  N_4
REMARK    3  A    between atoms: N_7  and  C_8
REMARK    4  A    between atoms: C_11  and  C_12
REMARK    5  A    between atoms: N_24  and  C_25
REMARK    6  A    between atoms: C_25  and  C_26
REMARK                            x       y       z     vdW  Elec       q    Type
REMARK                         _______ _______ _______ _____ _____    ______ ____
ROOT
ATOM      1  N   UNL     1       2.273   5.399  19.392  0.00  0.00    +0.000 NA
ATOM      2  C   UNL     1       1.548   5.933  20.564  0.00  0.00    +0.000 C 
ATOM      3  C   UNL     1       1.903   7.378  20.983  0.00  0.00    +0.000 C 
ATOM      4  N   UNL     1       1.850   8.315  19.853  0.00  0.00    +0.000 N 
ATOM      5  C   UNL     1       2.459   7.845  18.599  0.00  0.00    +0.000 C 
ATOM      6  C   UNL     1       2.105   6.369  18.278  0.00  0.00    +0.000 C 
ENDROOT
BRANCH   4   7
ATOM      7  C   UNL     1       0.953   9.370  19.837  0.00  0.00    +0.000 A 
ATOM      8  N   UNL     1      -0.135   9.270  20.646  0.00  0.00    +0.000 NA
ATOM      9  C   UNL     1      -1.046  10.277  20.680  0.00  0.00    +0.000 A 
ATOM     10  C   UNL     1      -0.945  11.439  19.939  0.00  0.00    +0.000 A 
ATOM     11  C   UNL     1       0.154  11.546  19.090  0.00  0.00    +0.000 A 
ATOM     12  C   UNL     1       1.092  10.509  19.016  0.00  0.00    +0.000 A 
ATOM     13 CL   UNL     1       2.298  10.686  17.782  0.00  0.00    +0.000 Cl
BRANCH  10  14
ATOM     14  C   UNL     1      -1.972  12.522  20.020  0.00  0.00    +0.000 C 
ATOM     15  F   UNL     1      -2.465  12.722  21.272  0.00  0.00    +0.000 F 
ATOM     16  F   UNL     1      -1.487  13.728  19.611  0.00  0.00    +0.000 F 
ATOM     17  F   UNL     1      -3.053  12.273  19.230  0.00  0.00    +0.000 F 
ENDBRANCH  10  14
ENDBRANCH   4   7
BRANCH   1  18
ATOM     18  C   UNL     1       3.710   5.171  19.681  0.00  0.00    +0.000 C 
BRANCH  18  20
ATOM     19  O   UNL     1       3.720   2.718  19.808  0.00  0.00    +0.000 OA
ATOM     20  C   UNL     1       4.178   3.749  19.313  0.00  0.00    +0.000 C 
ATOM     21  N   UNL     1       5.163   3.619  18.353  0.00  0.00    +0.000 N 
ATOM     22  C   UNL     1       5.620   4.564  17.467  0.00  0.00    +0.000 C 
ATOM     23  O   UNL     1       5.223   5.720  17.415  0.00  0.00    +0.000 OA
ATOM     24  N   UNL     1       6.612   4.099  16.654  0.00  0.00    +0.000 N 
ATOM     25  H   UNL     1       5.414   2.658  18.180  0.00  0.00    +0.000 HD
ATOM     26  H   UNL     1       6.833   3.116  16.604  0.00  0.00    +0.000 HD
BRANCH  24  27
ATOM     27  C   UNL     1       7.306   4.985  15.735  0.00  0.00    +0.000 C 
BRANCH  27  28
ATOM     28  C   UNL     1       7.019   4.607  14.307  0.00  0.00    +0.000 A 
ATOM     29  C   UNL     1       7.780   5.144  13.260  0.00  0.00    +0.000 A 
ATOM     30  C   UNL     1       7.518   4.780  11.939  0.00  0.00    +0.000 A 
ATOM     31  C   UNL     1       6.491   3.883  11.651  0.00  0.00    +0.000 A 
ATOM     32  C   UNL     1       5.717   3.355  12.682  0.00  0.00    +0.000 A 
ATOM     33  C   UNL     1       5.975   3.719  14.005  0.00  0.00    +0.000 A 
ENDBRANCH  27  28
ENDBRANCH  24  27
ENDBRANCH  18  20
ENDBRANCH   1  18
TORSDOF 6
ENDMDL
MODEL 9
REMARK VINA RESULT:      -7.8      4.570      7.141
REMARK  Name = 
REMARK  6 active torsions:
REMARK  status: ('A' for Active; 'I' for Inactive)
REMARK    1  A    between atoms: C_2  and  C_3
REMARK    2  A    between atoms: C_3  and  N_4
REMARK    3  A    between atoms: N_7  and  C_8
REMARK    4  A    between atoms: C_11  and  C_12
REMARK    5  A    between atoms: N_24  and  C_25
REMARK    6  A    between atoms: C_25  and  C_26
REMARK                            x       y       z     vdW  Elec       q    Type
REMARK                         _______ _______ _______ _____ _____    ______ ____
ROOT
ATOM      1  N   UNL     1       0.312  10.113  19.643  0.00  0.00    +0.000 NA
ATOM      2  C   UNL     1       0.808   9.551  18.370  0.00  0.00    +0.000 C 
ATOM      3  C   UNL     1       2.163   8.810  18.436  0.00  0.00    +0.000 C 
ATOM      4  N   UNL     1       2.200   7.808  19.509  0.00  0.00    +0.000 N 
ATOM      5  C   UNL     1       1.638   8.231  20.802  0.00  0.00    +0.000 C 
ATOM      6  C   UNL     1       0.311   9.019  20.649  0.00  0.00    +0.000 C 
ENDROOT
BRANCH   4   7
ATOM      7  C   UNL     1       2.362   6.462  19.230  0.00  0.00    +0.000 A 
ATOM      8  N   UNL     1       1.632   5.584  19.968  0.00  0.00    +0.000 NA
ATOM      9  C   UNL     1       1.742   4.250  19.733  0.00  0.00    +0.000 A 
ATOM     10  C   UNL     1       2.557   3.698  18.765  0.00  0.00    +0.000 A 
ATOM     11  C   UNL     1       3.327   4.584  18.015  0.00  0.00    +0.000 A 
ATOM     12  C   UNL     1       3.253   5.961  18.257  0.00  0.00    +0.000 A 
ATOM     13 CL   UNL     1       4.402   6.930  17.391  0.00  0.00    +0.000 Cl
BRANCH  10  14
ATOM     14  C   UNL     1       2.635   2.222  18.541  0.00  0.00    +0.000 C 
ATOM     15  F   UNL     1       3.867   1.693  18.771  0.00  0.00    +0.000 F 
ATOM     16  F   UNL     1       1.776   1.531  19.343  0.00  0.00    +0.000 F 
ATOM     17  F   UNL     1       2.311   1.871  17.266  0.00  0.00    +0.000 F 
ENDBRANCH  10  14
ENDBRANCH   4   7
BRANCH   1  18
ATOM     18  C   UNL     1       1.137  11.256  20.108  0.00  0.00    +0.000 C 
BRANCH  18  20
ATOM     19  O   UNL     1       0.722  13.016  18.445  0.00  0.00    +0.000 OA
ATOM     20  C   UNL     1       0.615  12.617  19.606  0.00  0.00    +0.000 C 
ATOM     21  N   UNL     1      -0.033  13.436  20.510  0.00  0.00    +0.000 N 
ATOM     22  C   UNL     1      -0.525  13.114  21.752  0.00  0.00    +0.000 C 
ATOM     23  O   UNL     1      -0.433  12.011  22.273  0.00  0.00    +0.000 OA
ATOM     24  N   UNL     1      -1.106  14.173  22.387  0.00  0.00    +0.000 N 
ATOM     25  H   UNL     1      -0.334  14.307  20.101  0.00  0.00    +0.000 HD
ATOM     26  H   UNL     1      -1.305  15.033  21.900  0.00  0.00    +0.000 HD
BRANCH  24  27
ATOM     27  C   UNL     1      -1.575  14.059  23.757  0.00  0.00    +0.000 C 
BRANCH  27  28
ATOM     28  C   UNL     1      -3.060  13.815  23.797  0.00  0.00    +0.000 A 
ATOM     29  C   UNL     1      -3.945  14.694  23.159  0.00  0.00    +0.000 A 
ATOM     30  C   UNL     1      -5.319  14.456  23.188  0.00  0.00    +0.000 A 
ATOM     31  C   UNL     1      -5.822  13.342  23.858  0.00  0.00    +0.000 A 
ATOM     32  C   UNL     1      -4.953  12.469  24.509  0.00  0.00    +0.000 A 
ATOM     33  C   UNL     1      -3.578  12.707  24.485  0.00  0.00    +0.000 A 
ENDBRANCH  27  28
ENDBRANCH  24  27
ENDBRANCH  18  20
ENDBRANCH   1  18
TORSDOF 6
ENDMDL
