MODEL 1
REMARK VINA RESULT:      -7.4      0.000      0.000
REMARK  Name = 
REMARK  11 active torsions:
REMARK  status: ('A' for Active; 'I' for Inactive)
REMARK    1  A    between atoms: C_1  and  O_2
REMARK    2  A    between atoms: O_2  and  C_3
REMARK    3  A    between atoms: C_5  and  C_6
REMARK    4  A    between atoms: C_7  and  C_8
REMARK    5  A    between atoms: C_11  and  O_12
REMARK    6  A    between atoms: O_12  and  C_13
REMARK    7  A    between atoms: C_14  and  N_15
REMARK    8  A    between atoms: C_18  and  O_19
REMARK    9  A    between atoms: O_19  and  C_20
REMARK   10  A    between atoms: C_20  and  C_21
REMARK   11  A    between atoms: C_21  and  O_22
REMARK                            x       y       z     vdW  Elec       q    Type
REMARK                         _______ _______ _______ _____ _____    ______ ____
ROOT
ATOM      1  C   UNL     1       2.252   4.427  20.538  0.00  0.00    +0.000 A 
ATOM      2  C   UNL     1       2.760   3.782  19.400  0.00  0.00    +0.000 A 
ATOM      3  C   UNL     1       2.970   4.492  18.214  0.00  0.00    +0.000 A 
ATOM      4  C   UNL     1       2.665   5.858  18.150  0.00  0.00    +0.000 A 
ATOM      5  C   UNL     1       2.217   6.531  19.293  0.00  0.00    +0.000 A 
ATOM      6  C   UNL     1       1.990   5.797  20.479  0.00  0.00    +0.000 A 
ENDROOT
BRANCH   1   8
ATOM      7  C   UNL     1       1.538   2.500  21.855  0.00  0.00    +0.000 C 
ATOM      8  O   UNL     1       2.028   3.782  21.711  0.00  0.00    +0.000 OA
ENDBRANCH   1   8
BRANCH   3   9
ATOM      9  C   UNL     1       3.574   3.769  17.082  0.00  0.00    +0.000 C 
ATOM     10  C   UNL     1       4.867   3.907  16.703  0.00  0.00    +0.000 C 
BRANCH  10  11
ATOM     11  C   UNL     1       5.874   4.911  17.186  0.00  0.00    +0.000 A 
ATOM     12  C   UNL     1       5.979   6.133  16.507  0.00  0.00    +0.000 A 
ATOM     13  C   UNL     1       6.857   7.130  16.950  0.00  0.00    +0.000 A 
ATOM     14  C   UNL     1       7.640   6.933  18.107  0.00  0.00    +0.000 A 
ATOM     15  C   UNL     1       7.542   5.713  18.795  0.00  0.00    +0.000 A 
ATOM     16  C   UNL     1       6.670   4.724  18.326  0.00  0.00    +0.000 A 
BRANCH  15  17
ATOM     17  N   UNL     1       8.286   5.476  19.979  0.00  0.00    +0.000 N 
ATOM     18  H   UNL     1       9.246   5.104  19.944  0.00  0.00    +0.000 HD
ATOM     19  H   UNL     1       7.883   5.691  20.906  0.00  0.00    +0.000 HD
ENDBRANCH  15  17
BRANCH  14  20
ATOM     20  O   UNL     1       8.471   7.898  18.589  0.00  0.00    +0.000 OA
ATOM     21  C   UNL     1       8.448   9.228  18.236  0.00  0.00    +0.000 C 
ENDBRANCH  14  20
ENDBRANCH  10  11
ENDBRANCH   3   9
BRANCH   5  22
ATOM     22  O   UNL     1       2.089   7.880  19.245  0.00  0.00    +0.000 OA
BRANCH  22  23
ATOM     23  C   UNL     1       2.255   8.620  18.087  0.00  0.00    +0.000 C 
BRANCH  23  24
ATOM     24  C   UNL     1       1.272   9.783  18.055  0.00  0.00    +0.000 C 
BRANCH  24  25
ATOM     25  O   UNL     1       1.941  10.977  17.751  0.00  0.00    +0.000 OA
ATOM     26  H   UNL     1       1.319  11.521  17.200  0.00  0.00    +0.000 HD
ENDBRANCH  24  25
ENDBRANCH  23  24
ENDBRANCH  22  23
ENDBRANCH   5  22
TORSDOF 9
ENDMDL
MODEL 2
REMARK VINA RESULT:      -7.2      3.318      6.785
REMARK  Name = 
REMARK  11 active torsions:
REMARK  status: ('A' for Active; 'I' for Inactive)
REMARK    1  A    between atoms: C_1  and  O_2
REMARK    2  A    between atoms: O_2  and  C_3
REMARK    3  A    between atoms: C_5  and  C_6
REMARK    4  A    between atoms: C_7  and  C_8
REMARK    5  A    between atoms: C_11  and  O_12
REMARK    6  A    between atoms: O_12  and  C_13
REMARK    7  A    between atoms: C_14  and  N_15
REMARK    8  A    between atoms: C_18  and  O_19
REMARK    9  A    between atoms: O_19  and  C_20
REMARK   10  A    between atoms: C_20  and  C_21
REMARK   11  A    between atoms: C_21  and  O_22
REMARK                            x       y       z     vdW  Elec       q    Type
REMARK                         _______ _______ _______ _____ _____    ______ ____
ROOT
ATOM      1  C   UNL     1       7.084   5.145  17.658  0.00  0.00    +0.000 A 
ATOM      2  C   UNL     1       6.153   6.193  17.729  0.00  0.00    +0.000 A 
ATOM      3  C   UNL     1       5.260   6.424  16.677  0.00  0.00    +0.000 A 
ATOM      4  C   UNL     1       5.295   5.612  15.536  0.00  0.00    +0.000 A 
ATOM      5  C   UNL     1       6.174   4.523  15.476  0.00  0.00    +0.000 A 
ATOM      6  C   UNL     1       7.085   4.315  16.537  0.00  0.00    +0.000 A 
ENDROOT
BRANCH   1   8
ATOM      7  C   UNL     1       8.105   5.583  19.833  0.00  0.00    +0.000 C 
ATOM      8  O   UNL     1       7.972   4.883  18.651  0.00  0.00    +0.000 OA
ENDBRANCH   1   8
BRANCH   3   9
ATOM      9  C   UNL     1       4.263   7.493  16.849  0.00  0.00    +0.000 C 
ATOM     10  C   UNL     1       3.208   7.411  17.696  0.00  0.00    +0.000 C 
BRANCH  10  11
ATOM     11  C   UNL     1       2.724   6.214  18.462  0.00  0.00    +0.000 A 
ATOM     12  C   UNL     1       2.412   6.369  19.820  0.00  0.00    +0.000 A 
ATOM     13  C   UNL     1       1.899   5.302  20.567  0.00  0.00    +0.000 A 
ATOM     14  C   UNL     1       1.663   4.051  19.961  0.00  0.00    +0.000 A 
ATOM     15  C   UNL     1       1.971   3.885  18.601  0.00  0.00    +0.000 A 
ATOM     16  C   UNL     1       2.497   4.959  17.876  0.00  0.00    +0.000 A 
BRANCH  15  17
ATOM     17  N   UNL     1       1.726   2.655  17.937  0.00  0.00    +0.000 N 
ATOM     18  H   UNL     1       1.187   1.901  18.386  0.00  0.00    +0.000 HD
ATOM     19  H   UNL     1       2.068   2.499  16.974  0.00  0.00    +0.000 HD
ENDBRANCH  15  17
BRANCH  14  20
ATOM     20  O   UNL     1       1.125   3.005  20.648  0.00  0.00    +0.000 OA
ATOM     21  C   UNL     1       1.564   2.532  21.863  0.00  0.00    +0.000 C 
ENDBRANCH  14  20
ENDBRANCH  10  11
ENDBRANCH   3   9
BRANCH   5  22
ATOM     22  O   UNL     1       6.071   3.661  14.435  0.00  0.00    +0.000 OA
BRANCH  22  23
ATOM     23  C   UNL     1       6.490   3.963  13.151  0.00  0.00    +0.000 C 
BRANCH  23  24
ATOM     24  C   UNL     1       5.615   3.252  12.127  0.00  0.00    +0.000 C 
BRANCH  24  25
ATOM     25  O   UNL     1       6.068   1.941  11.927  0.00  0.00    +0.000 OA
ATOM     26  H   UNL     1       5.319   1.438  11.512  0.00  0.00    +0.000 HD
ENDBRANCH  24  25
ENDBRANCH  23  24
ENDBRANCH  22  23
ENDBRANCH   5  22
TORSDOF 9
ENDMDL
MODEL 3
REMARK VINA RESULT:      -6.5      1.101      1.302
REMARK  Name = 
REMARK  11 active torsions:
REMARK  status: ('A' for Active; 'I' for Inactive)
REMARK    1  A    between atoms: C_1  and  O_2
REMARK    2  A    between atoms: O_2  and  C_3
REMARK    3  A    between atoms: C_5  and  C_6
REMARK    4  A    between atoms: C_7  and  C_8
REMARK    5  A    between atoms: C_11  and  O_12
REMARK    6  A    between atoms: O_12  and  C_13
REMARK    7  A    between atoms: C_14  and  N_15
REMARK    8  A    between atoms: C_18  and  O_19
REMARK    9  A    between atoms: O_19  and  C_20
REMARK   10  A    between atoms: C_20  and  C_21
REMARK   11  A    between atoms: C_21  and  O_22
REMARK                            x       y       z     vdW  Elec       q    Type
REMARK                         _______ _______ _______ _____ _____    ______ ____
ROOT
ATOM      1  C   UNL     1       1.909   4.249  20.329  0.00  0.00    +0.000 A 
ATOM      2  C   UNL     1       2.411   3.691  19.144  0.00  0.00    +0.000 A 
ATOM      3  C   UNL     1       2.789   4.510  18.076  0.00  0.00    +0.000 A 
ATOM      4  C   UNL     1       2.662   5.902  18.180  0.00  0.00    +0.000 A 
ATOM      5  C   UNL     1       2.223   6.479  19.378  0.00  0.00    +0.000 A 
ATOM      6  C   UNL     1       1.824   5.637  20.441  0.00  0.00    +0.000 A 
ENDROOT
BRANCH   1   8
ATOM      7  C   UNL     1       2.185   2.391  21.889  0.00  0.00    +0.000 C 
ATOM      8  O   UNL     1       1.525   3.496  21.392  0.00  0.00    +0.000 OA
ENDBRANCH   1   8
BRANCH   3   9
ATOM      9  C   UNL     1       3.376   3.863  16.891  0.00  0.00    +0.000 C 
ATOM     10  C   UNL     1       4.667   4.014  16.511  0.00  0.00    +0.000 C 
BRANCH  10  11
ATOM     11  C   UNL     1       5.688   4.972  17.054  0.00  0.00    +0.000 A 
ATOM     12  C   UNL     1       5.837   6.217  16.427  0.00  0.00    +0.000 A 
ATOM     13  C   UNL     1       6.731   7.172  16.928  0.00  0.00    +0.000 A 
ATOM     14  C   UNL     1       7.485   6.908  18.090  0.00  0.00    +0.000 A 
ATOM     15  C   UNL     1       7.344   5.664  18.725  0.00  0.00    +0.000 A 
ATOM     16  C   UNL     1       6.457   4.718  18.200  0.00  0.00    +0.000 A 
BRANCH  15  17
ATOM     17  N   UNL     1       8.058   5.359  19.912  0.00  0.00    +0.000 N 
ATOM     18  H   UNL     1       8.237   6.076  20.630  0.00  0.00    +0.000 HD
ATOM     19  H   UNL     1       8.399   4.400  20.090  0.00  0.00    +0.000 HD
ENDBRANCH  15  17
BRANCH  14  20
ATOM     20  O   UNL     1       8.331   7.830  18.627  0.00  0.00    +0.000 OA
ATOM     21  C   UNL     1       8.478   9.130  18.199  0.00  0.00    +0.000 C 
ENDBRANCH  14  20
ENDBRANCH  10  11
ENDBRANCH   3   9
BRANCH   5  22
ATOM     22  O   UNL     1       2.267   7.828  19.505  0.00  0.00    +0.000 OA
BRANCH  22  23
ATOM     23  C   UNL     1       1.797   8.505  20.616  0.00  0.00    +0.000 C 
BRANCH  23  24
ATOM     24  C   UNL     1       0.408   9.068  20.346  0.00  0.00    +0.000 C 
BRANCH  24  25
ATOM     25  O   UNL     1      -0.436   8.826  21.439  0.00  0.00    +0.000 OA
ATOM     26  H   UNL     1      -1.286   8.468  21.071  0.00  0.00    +0.000 HD
ENDBRANCH  24  25
ENDBRANCH  23  24
ENDBRANCH  22  23
ENDBRANCH   5  22
TORSDOF 9
ENDMDL
MODEL 4
REMARK VINA RESULT:      -6.3      3.186      6.391
REMARK  Name = 
REMARK  11 active torsions:
REMARK  status: ('A' for Active; 'I' for Inactive)
REMARK    1  A    between atoms: C_1  and  O_2
REMARK    2  A    between atoms: O_2  and  C_3
REMARK    3  A    between atoms: C_5  and  C_6
REMARK    4  A    between atoms: C_7  and  C_8
REMARK    5  A    between atoms: C_11  and  O_12
REMARK    6  A    between atoms: O_12  and  C_13
REMARK    7  A    between atoms: C_14  and  N_15
REMARK    8  A    between atoms: C_18  and  O_19
REMARK    9  A    between atoms: O_19  and  C_20
REMARK   10  A    between atoms: C_20  and  C_21
REMARK   11  A    between atoms: C_21  and  O_22
REMARK                            x       y       z     vdW  Elec       q    Type
REMARK                         _______ _______ _______ _____ _____    ______ ____
ROOT
ATOM      1  C   UNL     1       6.717   5.185  17.705  0.00  0.00    +0.000 A 
ATOM      2  C   UNL     1       5.656   4.373  18.132  0.00  0.00    +0.000 A 
ATOM      3  C   UNL     1       4.763   3.822  17.207  0.00  0.00    +0.000 A 
ATOM      4  C   UNL     1       4.919   4.086  15.840  0.00  0.00    +0.000 A 
ATOM      5  C   UNL     1       6.009   4.841  15.390  0.00  0.00    +0.000 A 
ATOM      6  C   UNL     1       6.890   5.409  16.338  0.00  0.00    +0.000 A 
ENDROOT
BRANCH   1   8
ATOM      7  C   UNL     1       8.082   7.040  18.516  0.00  0.00    +0.000 C 
ATOM      8  O   UNL     1       7.607   5.745  18.564  0.00  0.00    +0.000 OA
ENDBRANCH   1   8
BRANCH   3   9
ATOM      9  C   UNL     1       3.717   2.921  17.718  0.00  0.00    +0.000 C 
ATOM     10  C   UNL     1       2.615   3.346  18.382  0.00  0.00    +0.000 C 
BRANCH  10  11
ATOM     11  C   UNL     1       2.315   4.724  18.896  0.00  0.00    +0.000 A 
ATOM     12  C   UNL     1       1.937   4.870  20.239  0.00  0.00    +0.000 A 
ATOM     13  C   UNL     1       1.704   6.136  20.787  0.00  0.00    +0.000 A 
ATOM     14  C   UNL     1       1.869   7.298  20.005  0.00  0.00    +0.000 A 
ATOM     15  C   UNL     1       2.247   7.163  18.659  0.00  0.00    +0.000 A 
ATOM     16  C   UNL     1       2.460   5.887  18.126  0.00  0.00    +0.000 A 
BRANCH  15  17
ATOM     17  N   UNL     1       2.453   8.301  17.836  0.00  0.00    +0.000 N 
ATOM     18  H   UNL     1       1.831   9.120  17.887  0.00  0.00    +0.000 HD
ATOM     19  H   UNL     1       3.249   8.338  17.179  0.00  0.00    +0.000 HD
ENDBRANCH  15  17
BRANCH  14  20
ATOM     20  O   UNL     1       1.692   8.546  20.518  0.00  0.00    +0.000 OA
ATOM     21  C   UNL     1       1.226   8.837  21.781  0.00  0.00    +0.000 C 
ENDBRANCH  14  20
ENDBRANCH  10  11
ENDBRANCH   3   9
BRANCH   5  22
ATOM     22  O   UNL     1       6.225   4.940  14.056  0.00  0.00    +0.000 OA
BRANCH  22  23
ATOM     23  C   UNL     1       6.754   3.915  13.290  0.00  0.00    +0.000 C 
BRANCH  23  24
ATOM     24  C   UNL     1       5.705   3.375  12.328  0.00  0.00    +0.000 C 
BRANCH  24  25
ATOM     25  O   UNL     1       6.084   2.112  11.854  0.00  0.00    +0.000 OA
ATOM     26  H   UNL     1       6.968   2.223  11.416  0.00  0.00    +0.000 HD
ENDBRANCH  24  25
ENDBRANCH  23  24
ENDBRANCH  22  23
ENDBRANCH   5  22
TORSDOF 9
ENDMDL
MODEL 5
REMARK VINA RESULT:      -6.2      2.755      6.052
REMARK  Name = 
REMARK  11 active torsions:
REMARK  status: ('A' for Active; 'I' for Inactive)
REMARK    1  A    between atoms: C_1  and  O_2
REMARK    2  A    between atoms: O_2  and  C_3
REMARK    3  A    between atoms: C_5  and  C_6
REMARK    4  A    between atoms: C_7  and  C_8
REMARK    5  A    between atoms: C_11  and  O_12
REMARK    6  A    between atoms: O_12  and  C_13
REMARK    7  A    between atoms: C_14  and  N_15
REMARK    8  A    between atoms: C_18  and  O_19
REMARK    9  A    between atoms: O_19  and  C_20
REMARK   10  A    between atoms: C_20  and  C_21
REMARK   11  A    between atoms: C_21  and  O_22
REMARK                            x       y       z     vdW  Elec       q    Type
REMARK                         _______ _______ _______ _____ _____    ______ ____
ROOT
ATOM      1  C   UNL     1       6.692   4.795  18.353  0.00  0.00    +0.000 A 
ATOM      2  C   UNL     1       5.498   4.346  18.935  0.00  0.00    +0.000 A 
ATOM      3  C   UNL     1       4.518   3.720  18.157  0.00  0.00    +0.000 A 
ATOM      4  C   UNL     1       4.721   3.543  16.783  0.00  0.00    +0.000 A 
ATOM      5  C   UNL     1       5.934   3.928  16.197  0.00  0.00    +0.000 A 
ATOM      6  C   UNL     1       6.905   4.579  16.991  0.00  0.00    +0.000 A 
ENDROOT
BRANCH   1   8
ATOM      7  C   UNL     1       8.131   6.698  18.872  0.00  0.00    +0.000 C 
ATOM      8  O   UNL     1       7.671   5.412  19.064  0.00  0.00    +0.000 OA
ENDBRANCH   1   8
BRANCH   3   9
ATOM      9  C   UNL     1       3.322   3.208  18.846  0.00  0.00    +0.000 C 
ATOM     10  C   UNL     1       2.285   3.989  19.237  0.00  0.00    +0.000 C 
BRANCH  10  11
ATOM     11  C   UNL     1       2.203   5.488  19.242  0.00  0.00    +0.000 A 
ATOM     12  C   UNL     1       2.319   6.169  18.021  0.00  0.00    +0.000 A 
ATOM     13  C   UNL     1       2.189   7.561  17.959  0.00  0.00    +0.000 A 
ATOM     14  C   UNL     1       1.916   8.309  19.123  0.00  0.00    +0.000 A 
ATOM     15  C   UNL     1       1.799   7.637  20.351  0.00  0.00    +0.000 A 
ATOM     16  C   UNL     1       1.946   6.246  20.394  0.00  0.00    +0.000 A 
BRANCH  15  17
ATOM     17  N   UNL     1       1.496   8.338  21.546  0.00  0.00    +0.000 N 
ATOM     18  H   UNL     1       1.910   9.259  21.747  0.00  0.00    +0.000 HD
ATOM     19  H   UNL     1       0.835   7.945  22.236  0.00  0.00    +0.000 HD
ENDBRANCH  15  17
BRANCH  14  20
ATOM     20  O   UNL     1       1.742   9.659  19.091  0.00  0.00    +0.000 OA
ATOM     21  C   UNL     1       0.618  10.313  18.640  0.00  0.00    +0.000 C 
ENDBRANCH  14  20
ENDBRANCH  10  11
ENDBRANCH   3   9
BRANCH   5  22
ATOM     22  O   UNL     1       6.165   3.596  14.903  0.00  0.00    +0.000 OA
BRANCH  22  23
ATOM     23  C   UNL     1       5.974   4.469  13.846  0.00  0.00    +0.000 C 
BRANCH  23  24
ATOM     24  C   UNL     1       7.282   4.692  13.099  0.00  0.00    +0.000 C 
BRANCH  24  25
ATOM     25  O   UNL     1       8.047   5.676  13.742  0.00  0.00    +0.000 OA
ATOM     26  H   UNL     1       7.501   6.506  13.747  0.00  0.00    +0.000 HD
ENDBRANCH  24  25
ENDBRANCH  23  24
ENDBRANCH  22  23
ENDBRANCH   5  22
TORSDOF 9
ENDMDL
MODEL 6
REMARK VINA RESULT:      -6.2      3.186      6.358
REMARK  Name = 
REMARK  11 active torsions:
REMARK  status: ('A' for Active; 'I' for Inactive)
REMARK    1  A    between atoms: C_1  and  O_2
REMARK    2  A    between atoms: O_2  and  C_3
REMARK    3  A    between atoms: C_5  and  C_6
REMARK    4  A    between atoms: C_7  and  C_8
REMARK    5  A    between atoms: C_11  and  O_12
REMARK    6  A    between atoms: O_12  and  C_13
REMARK    7  A    between atoms: C_14  and  N_15
REMARK    8  A    between atoms: C_18  and  O_19
REMARK    9  A    between atoms: O_19  and  C_20
REMARK   10  A    between atoms: C_20  and  C_21
REMARK   11  A    between atoms: C_21  and  O_22
REMARK                            x       y       z     vdW  Elec       q    Type
REMARK                         _______ _______ _______ _____ _____    ______ ____
ROOT
ATOM      1  C   UNL     1       6.898   5.570  17.575  0.00  0.00    +0.000 A 
ATOM      2  C   UNL     1       5.944   4.984  18.421  0.00  0.00    +0.000 A 
ATOM      3  C   UNL     1       5.003   4.083  17.915  0.00  0.00    +0.000 A 
ATOM      4  C   UNL     1       5.000   3.763  16.550  0.00  0.00    +0.000 A 
ATOM      5  C   UNL     1       5.984   4.290  15.705  0.00  0.00    +0.000 A 
ATOM      6  C   UNL     1       6.916   5.215  16.226  0.00  0.00    +0.000 A 
ENDROOT
BRANCH   1   8
ATOM      7  C   UNL     1       7.828   7.816  17.805  0.00  0.00    +0.000 C 
ATOM      8  O   UNL     1       7.830   6.453  18.018  0.00  0.00    +0.000 OA
ENDBRANCH   1   8
BRANCH   3   9
ATOM      9  C   UNL     1       4.078   3.450  18.870  0.00  0.00    +0.000 C 
ATOM     10  C   UNL     1       3.013   4.082  19.419  0.00  0.00    +0.000 C 
BRANCH  10  11
ATOM     11  C   UNL     1       2.659   5.539  19.345  0.00  0.00    +0.000 A 
ATOM     12  C   UNL     1       2.650   6.164  18.090  0.00  0.00    +0.000 A 
ATOM     13  C   UNL     1       2.270   7.504  17.955  0.00  0.00    +0.000 A 
ATOM     14  C   UNL     1       1.863   8.250  19.081  0.00  0.00    +0.000 A 
ATOM     15  C   UNL     1       1.868   7.635  20.343  0.00  0.00    +0.000 A 
ATOM     16  C   UNL     1       2.267   6.299  20.458  0.00  0.00    +0.000 A 
BRANCH  15  17
ATOM     17  N   UNL     1       1.442   8.333  21.502  0.00  0.00    +0.000 N 
ATOM     18  H   UNL     1       0.628   8.964  21.480  0.00  0.00    +0.000 HD
ATOM     19  H   UNL     1       1.932   8.206  22.403  0.00  0.00    +0.000 HD
ENDBRANCH  15  17
BRANCH  14  20
ATOM     20  O   UNL     1       1.446   9.543  18.979  0.00  0.00    +0.000 OA
ATOM     21  C   UNL     1       1.882  10.456  18.045  0.00  0.00    +0.000 C 
ENDBRANCH  14  20
ENDBRANCH  10  11
ENDBRANCH   3   9
BRANCH   5  22
ATOM     22  O   UNL     1       6.056   3.835  14.429  0.00  0.00    +0.000 OA
BRANCH  22  23
ATOM     23  C   UNL     1       6.713   4.510  13.415  0.00  0.00    +0.000 C 
BRANCH  23  24
ATOM     24  C   UNL     1       6.862   3.616  12.192  0.00  0.00    +0.000 C 
BRANCH  24  25
ATOM     25  O   UNL     1       5.961   2.544  12.261  0.00  0.00    +0.000 OA
ATOM     26  H   UNL     1       6.408   1.766  11.836  0.00  0.00    +0.000 HD
ENDBRANCH  24  25
ENDBRANCH  23  24
ENDBRANCH  22  23
ENDBRANCH   5  22
TORSDOF 9
ENDMDL
MODEL 7
REMARK VINA RESULT:      -6.2      1.147      3.603
REMARK  Name = 
REMARK  11 active torsions:
REMARK  status: ('A' for Active; 'I' for Inactive)
REMARK    1  A    between atoms: C_1  and  O_2
REMARK    2  A    between atoms: O_2  and  C_3
REMARK    3  A    between atoms: C_5  and  C_6
REMARK    4  A    between atoms: C_7  and  C_8
REMARK    5  A    between atoms: C_11  and  O_12
REMARK    6  A    between atoms: O_12  and  C_13
REMARK    7  A    between atoms: C_14  and  N_15
REMARK    8  A    between atoms: C_18  and  O_19
REMARK    9  A    between atoms: O_19  and  C_20
REMARK   10  A    between atoms: C_20  and  C_21
REMARK   11  A    between atoms: C_21  and  O_22
REMARK                            x       y       z     vdW  Elec       q    Type
REMARK                         _______ _______ _______ _____ _____    ______ ____
ROOT
ATOM      1  C   UNL     1       2.146   6.698  19.478  0.00  0.00    +0.000 A 
ATOM      2  C   UNL     1       2.717   6.160  18.315  0.00  0.00    +0.000 A 
ATOM      3  C   UNL     1       3.200   4.848  18.301  0.00  0.00    +0.000 A 
ATOM      4  C   UNL     1       3.124   4.060  19.457  0.00  0.00    +0.000 A 
ATOM      5  C   UNL     1       2.500   4.559  20.607  0.00  0.00    +0.000 A 
ATOM      6  C   UNL     1       2.036   5.894  20.613  0.00  0.00    +0.000 A 
ENDROOT
BRANCH   1   8
ATOM      7  C   UNL     1       1.248   8.623  20.682  0.00  0.00    +0.000 C 
ATOM      8  O   UNL     1       1.667   7.967  19.543  0.00  0.00    +0.000 OA
ENDBRANCH   1   8
BRANCH   3   9
ATOM      9  C   UNL     1       3.720   4.324  17.026  0.00  0.00    +0.000 C 
ATOM     10  C   UNL     1       4.992   4.508  16.599  0.00  0.00    +0.000 C 
BRANCH  10  11
ATOM     11  C   UNL     1       6.049   5.399  17.185  0.00  0.00    +0.000 A 
ATOM     12  C   UNL     1       6.217   6.682  16.647  0.00  0.00    +0.000 A 
ATOM     13  C   UNL     1       7.145   7.576  17.193  0.00  0.00    +0.000 A 
ATOM     14  C   UNL     1       7.917   7.212  18.316  0.00  0.00    +0.000 A 
ATOM     15  C   UNL     1       7.757   5.928  18.863  0.00  0.00    +0.000 A 
ATOM     16  C   UNL     1       6.835   5.044  18.293  0.00  0.00    +0.000 A 
BRANCH  15  17
ATOM     17  N   UNL     1       8.488   5.522  20.009  0.00  0.00    +0.000 N 
ATOM     18  H   UNL     1       8.072   4.903  20.720  0.00  0.00    +0.000 HD
ATOM     19  H   UNL     1       9.467   5.824  20.144  0.00  0.00    +0.000 HD
ENDBRANCH  15  17
BRANCH  14  20
ATOM     20  O   UNL     1       8.797   8.072  18.898  0.00  0.00    +0.000 OA
ATOM     21  C   UNL     1       8.803   9.440  18.746  0.00  0.00    +0.000 C 
ENDBRANCH  14  20
ENDBRANCH  10  11
ENDBRANCH   3   9
BRANCH   5  22
ATOM     22  O   UNL     1       2.296   3.720  21.651  0.00  0.00    +0.000 OA
BRANCH  22  23
ATOM     23  C   UNL     1       1.355   2.704  21.640  0.00  0.00    +0.000 C 
BRANCH  23  24
ATOM     24  C   UNL     1       1.142   2.194  20.222  0.00  0.00    +0.000 C 
BRANCH  24  25
ATOM     25  O   UNL     1      -0.060   2.693  19.700  0.00  0.00    +0.000 OA
ATOM     26  H   UNL     1      -0.296   2.121  18.924  0.00  0.00    +0.000 HD
ENDBRANCH  24  25
ENDBRANCH  23  24
ENDBRANCH  22  23
ENDBRANCH   5  22
TORSDOF 9
ENDMDL
MODEL 8
REMARK VINA RESULT:      -6.2      1.225      3.869
REMARK  Name = 
REMARK  11 active torsions:
REMARK  status: ('A' for Active; 'I' for Inactive)
REMARK    1  A    between atoms: C_1  and  O_2
REMARK    2  A    between atoms: O_2  and  C_3
REMARK    3  A    between atoms: C_5  and  C_6
REMARK    4  A    between atoms: C_7  and  C_8
REMARK    5  A    between atoms: C_11  and  O_12
REMARK    6  A    between atoms: O_12  and  C_13
REMARK    7  A    between atoms: C_14  and  N_15
REMARK    8  A    between atoms: C_18  and  O_19
REMARK    9  A    between atoms: O_19  and  C_20
REMARK   10  A    between atoms: C_20  and  C_21
REMARK   11  A    between atoms: C_21  and  O_22
REMARK                            x       y       z     vdW  Elec       q    Type
REMARK                         _______ _______ _______ _____ _____    ______ ____
ROOT
ATOM      1  C   UNL     1       2.719   6.143  18.324  0.00  0.00    +0.000 A 
ATOM      2  C   UNL     1       3.598   5.638  17.355  0.00  0.00    +0.000 A 
ATOM      3  C   UNL     1       3.764   4.258  17.195  0.00  0.00    +0.000 A 
ATOM      4  C   UNL     1       3.055   3.367  18.011  0.00  0.00    +0.000 A 
ATOM      5  C   UNL     1       2.126   3.852  18.939  0.00  0.00    +0.000 A 
ATOM      6  C   UNL     1       1.985   5.249  19.105  0.00  0.00    +0.000 A 
ENDROOT
BRANCH   1   8
ATOM      7  C   UNL     1       2.814   8.479  17.622  0.00  0.00    +0.000 C 
ATOM      8  O   UNL     1       2.526   7.472  18.521  0.00  0.00    +0.000 OA
ENDBRANCH   1   8
BRANCH   3   9
ATOM      9  C   UNL     1       4.647   3.797  16.110  0.00  0.00    +0.000 C 
ATOM     10  C   UNL     1       5.958   4.128  16.013  0.00  0.00    +0.000 C 
BRANCH  10  11
ATOM     11  C   UNL     1       6.722   5.138  16.820  0.00  0.00    +0.000 A 
ATOM     12  C   UNL     1       6.877   6.431  16.301  0.00  0.00    +0.000 A 
ATOM     13  C   UNL     1       7.528   7.429  17.036  0.00  0.00    +0.000 A 
ATOM     14  C   UNL     1       8.023   7.159  18.329  0.00  0.00    +0.000 A 
ATOM     15  C   UNL     1       7.873   5.867  18.858  0.00  0.00    +0.000 A 
ATOM     16  C   UNL     1       7.233   4.880  18.101  0.00  0.00    +0.000 A 
BRANCH  15  17
ATOM     17  N   UNL     1       8.328   5.551  20.165  0.00  0.00    +0.000 N 
ATOM     18  H   UNL     1       9.325   5.609  20.414  0.00  0.00    +0.000 HD
ATOM     19  H   UNL     1       7.660   5.273  20.902  0.00  0.00    +0.000 HD
ENDBRANCH  15  17
BRANCH  14  20
ATOM     20  O   UNL     1       8.622   8.117  19.088  0.00  0.00    +0.000 OA
ATOM     21  C   UNL     1       8.780   9.438  18.735  0.00  0.00    +0.000 C 
ENDBRANCH  14  20
ENDBRANCH  10  11
ENDBRANCH   3   9
BRANCH   5  22
ATOM     22  O   UNL     1       1.339   2.965  19.596  0.00  0.00    +0.000 OA
BRANCH  22  23
ATOM     23  C   UNL     1       1.836   1.958  20.405  0.00  0.00    +0.000 C 
BRANCH  23  24
ATOM     24  C   UNL     1       2.801   2.532  21.434  0.00  0.00    +0.000 C 
BRANCH  24  25
ATOM     25  O   UNL     1       2.096   3.218  22.433  0.00  0.00    +0.000 OA
ATOM     26  H   UNL     1       1.930   2.567  23.165  0.00  0.00    +0.000 HD
ENDBRANCH  24  25
ENDBRANCH  23  24
ENDBRANCH  22  23
ENDBRANCH   5  22
TORSDOF 9
ENDMDL
MODEL 9
REMARK VINA RESULT:      -6.2      1.305      1.547
REMARK  Name = 
REMARK  11 active torsions:
REMARK  status: ('A' for Active; 'I' for Inactive)
REMARK    1  A    between atoms: C_1  and  O_2
REMARK    2  A    between atoms: O_2  and  C_3
REMARK    3  A    between atoms: C_5  and  C_6
REMARK    4  A    between atoms: C_7  and  C_8
REMARK    5  A    between atoms: C_11  and  O_12
REMARK    6  A    between atoms: O_12  and  C_13
REMARK    7  A    between atoms: C_14  and  N_15
REMARK    8  A    between atoms: C_18  and  O_19
REMARK    9  A    between atoms: O_19  and  C_20
REMARK   10  A    between atoms: C_20  and  C_21
REMARK   11  A    between atoms: C_21  and  O_22
REMARK                            x       y       z     vdW  Elec       q    Type
REMARK                         _______ _______ _______ _____ _____    ______ ____
ROOT
ATOM      1  C   UNL     1       2.203   3.670  19.120  0.00  0.00    +0.000 A 
ATOM      2  C   UNL     1       2.998   3.270  18.035  0.00  0.00    +0.000 A 
ATOM      3  C   UNL     1       3.676   4.218  17.262  0.00  0.00    +0.000 A 
ATOM      4  C   UNL     1       3.559   5.581  17.563  0.00  0.00    +0.000 A 
ATOM      5  C   UNL     1       2.822   5.993  18.680  0.00  0.00    +0.000 A 
ATOM      6  C   UNL     1       2.125   5.026  19.439  0.00  0.00    +0.000 A 
ENDROOT
BRANCH   1   8
ATOM      7  C   UNL     1       1.228   2.941  21.237  0.00  0.00    +0.000 C 
ATOM      8  O   UNL     1       1.523   2.788  19.897  0.00  0.00    +0.000 OA
ENDBRANCH   1   8
BRANCH   3   9
ATOM      9  C   UNL     1       4.549   3.724  16.184  0.00  0.00    +0.000 C 
ATOM     10  C   UNL     1       5.864   4.034  16.078  0.00  0.00    +0.000 C 
BRANCH  10  11
ATOM     11  C   UNL     1       6.645   5.048  16.864  0.00  0.00    +0.000 A 
ATOM     12  C   UNL     1       6.779   6.342  16.340  0.00  0.00    +0.000 A 
ATOM     13  C   UNL     1       7.445   7.342  17.058  0.00  0.00    +0.000 A 
ATOM     14  C   UNL     1       7.976   7.075  18.337  0.00  0.00    +0.000 A 
ATOM     15  C   UNL     1       7.846   5.783  18.871  0.00  0.00    +0.000 A 
ATOM     16  C   UNL     1       7.191   4.793  18.131  0.00  0.00    +0.000 A 
BRANCH  15  17
ATOM     17  N   UNL     1       8.337   5.469  20.164  0.00  0.00    +0.000 N 
ATOM     18  H   UNL     1       7.699   5.247  20.941  0.00  0.00    +0.000 HD
ATOM     19  H   UNL     1       9.354   5.438  20.349  0.00  0.00    +0.000 HD
ENDBRANCH  15  17
BRANCH  14  20
ATOM     20  O   UNL     1       8.591   8.037  19.080  0.00  0.00    +0.000 OA
ATOM     21  C   UNL     1       8.815   9.336  18.684  0.00  0.00    +0.000 C 
ENDBRANCH  14  20
ENDBRANCH  10  11
ENDBRANCH   3   9
BRANCH   5  22
ATOM     22  O   UNL     1       2.864   7.299  19.041  0.00  0.00    +0.000 OA
BRANCH  22  23
ATOM     23  C   UNL     1       1.732   8.060  19.280  0.00  0.00    +0.000 C 
BRANCH  23  24
ATOM     24  C   UNL     1       1.616   8.388  20.762  0.00  0.00    +0.000 C 
BRANCH  24  25
ATOM     25  O   UNL     1       0.270   8.401  21.153  0.00  0.00    +0.000 OA
ATOM     26  H   UNL     1      -0.136   9.215  20.755  0.00  0.00    +0.000 HD
ENDBRANCH  24  25
ENDBRANCH  23  24
ENDBRANCH  22  23
ENDBRANCH   5  22
TORSDOF 9
ENDMDL
