MODEL 1
REMARK VINA RESULT:      -7.2      0.000      0.000
REMARK  Name = 
REMARK  3 active torsions:
REMARK  status: ('A' for Active; 'I' for Inactive)
REMARK    1  A    between atoms: C_2  and  C_15
REMARK    2  A    between atoms: N_3  and  N_4
REMARK    3  A    between atoms: C_5  and  C_6
REMARK                            x       y       z     vdW  Elec       q    Type
REMARK                         _______ _______ _______ _____ _____    ______ ____
ROOT
ATOM      1  N   UNL     1       5.535   3.719  16.966  0.00  0.00    +0.000 NA
ATOM      2  C   UNL     1       4.291   4.046  16.838  0.00  0.00    +0.000 C 
ENDROOT
BRANCH   2   3
ATOM      3  C   UNL     1       3.336   3.719  17.920  0.00  0.00    +0.000 A 
ATOM      4  C   UNL     1       1.945   3.809  17.683  0.00  0.00    +0.000 A 
ATOM      5  C   UNL     1       1.028   3.501  18.690  0.00  0.00    +0.000 A 
ATOM      6  C   UNL     1       1.535   3.120  19.911  0.00  0.00    +0.000 A 
ATOM      7  C   UNL     1       2.890   3.034  20.143  0.00  0.00    +0.000 A 
ATOM      8  C   UNL     1       3.823   3.322  19.168  0.00  0.00    +0.000 A 
ATOM      9  O   UNL     1       3.170   2.644  21.416  0.00  0.00    +0.000 OA
ATOM     10  C   UNL     1       1.841   2.545  21.971  0.00  0.00    +0.000 C 
ATOM     11  O   UNL     1       0.798   2.795  21.006  0.00  0.00    +0.000 OA
ENDBRANCH   2   3
BRANCH   1  14
ATOM     12  O   UNL     1       7.762   5.622  15.035  0.00  0.00    +0.000 OA
ATOM     13  C   UNL     1       6.994   5.293  15.934  0.00  0.00    +0.000 C 
ATOM     14  N   UNL     1       6.379   4.053  15.960  0.00  0.00    +0.000 N 
ATOM     15  H   UNL     1       6.579   3.413  15.200  0.00  0.00    +0.000 HD
BRANCH  13  16
ATOM     16  C   UNL     1       6.701   6.195  17.089  0.00  0.00    +0.000 C 
ATOM     17  C   UNL     1       7.612   6.161  18.293  0.00  0.00    +0.000 C 
ATOM     18  C   UNL     1       7.555   7.389  17.430  0.00  0.00    +0.000 C 
ENDBRANCH  13  16
ENDBRANCH   1  14
TORSDOF 3
ENDMDL
MODEL 2
REMARK VINA RESULT:      -7.2      2.136      3.076
REMARK  Name = 
REMARK  3 active torsions:
REMARK  status: ('A' for Active; 'I' for Inactive)
REMARK    1  A    between atoms: C_2  and  C_15
REMARK    2  A    between atoms: N_3  and  N_4
REMARK    3  A    between atoms: C_5  and  C_6
REMARK                            x       y       z     vdW  Elec       q    Type
REMARK                         _______ _______ _______ _____ _____    ______ ____
ROOT
ATOM      1  N   UNL     1       6.023   5.110  16.382  0.00  0.00    +0.000 NA
ATOM      2  C   UNL     1       4.959   5.819  16.571  0.00  0.00    +0.000 C 
ENDROOT
BRANCH   2   3
ATOM      3  C   UNL     1       3.887   5.307  17.452  0.00  0.00    +0.000 A 
ATOM      4  C   UNL     1       3.386   6.117  18.497  0.00  0.00    +0.000 A 
ATOM      5  C   UNL     1       2.372   5.652  19.336  0.00  0.00    +0.000 A 
ATOM      6  C   UNL     1       1.894   4.382  19.107  0.00  0.00    +0.000 A 
ATOM      7  C   UNL     1       2.383   3.592  18.091  0.00  0.00    +0.000 A 
ATOM      8  C   UNL     1       3.379   4.023  17.237  0.00  0.00    +0.000 A 
ATOM      9  O   UNL     1       1.776   2.376  18.047  0.00  0.00    +0.000 OA
ATOM     10  C   UNL     1       0.888   2.472  19.181  0.00  0.00    +0.000 C 
ATOM     11  O   UNL     1       0.921   3.762  19.826  0.00  0.00    +0.000 OA
ENDBRANCH   2   3
BRANCH   1  14
ATOM     12  O   UNL     1       8.135   5.502  13.608  0.00  0.00    +0.000 OA
ATOM     13  C   UNL     1       7.266   5.057  14.351  0.00  0.00    +0.000 C 
ATOM     14  N   UNL     1       6.989   5.624  15.583  0.00  0.00    +0.000 N 
ATOM     15  H   UNL     1       7.537   6.430  15.864  0.00  0.00    +0.000 HD
BRANCH  13  16
ATOM     16  C   UNL     1       6.414   3.893  13.959  0.00  0.00    +0.000 C 
ATOM     17  C   UNL     1       5.152   4.145  13.168  0.00  0.00    +0.000 C 
ATOM     18  C   UNL     1       6.299   3.409  12.537  0.00  0.00    +0.000 C 
ENDBRANCH  13  16
ENDBRANCH   1  14
TORSDOF 3
ENDMDL
MODEL 3
REMARK VINA RESULT:      -7.2      2.116      3.327
REMARK  Name = 
REMARK  3 active torsions:
REMARK  status: ('A' for Active; 'I' for Inactive)
REMARK    1  A    between atoms: C_2  and  C_15
REMARK    2  A    between atoms: N_3  and  N_4
REMARK    3  A    between atoms: C_5  and  C_6
REMARK                            x       y       z     vdW  Elec       q    Type
REMARK                         _______ _______ _______ _____ _____    ______ ____
ROOT
ATOM      1  N   UNL     1       6.318   4.549  16.044  0.00  0.00    +0.000 NA
ATOM      2  C   UNL     1       5.294   5.123  16.585  0.00  0.00    +0.000 C 
ENDROOT
BRANCH   2   3
ATOM      3  C   UNL     1       4.434   4.356  17.513  0.00  0.00    +0.000 A 
ATOM      4  C   UNL     1       4.983   3.819  18.700  0.00  0.00    +0.000 A 
ATOM      5  C   UNL     1       4.186   3.095  19.590  0.00  0.00    +0.000 A 
ATOM      6  C   UNL     1       2.861   2.925  19.258  0.00  0.00    +0.000 A 
ATOM      7  C   UNL     1       2.327   3.447  18.101  0.00  0.00    +0.000 A 
ATOM      8  C   UNL     1       3.084   4.175  17.204  0.00  0.00    +0.000 A 
ATOM      9  O   UNL     1       1.005   3.157  17.968  0.00  0.00    +0.000 OA
ATOM     10  C   UNL     1       0.782   2.351  19.145  0.00  0.00    +0.000 C 
ATOM     11  O   UNL     1       1.944   2.245  19.994  0.00  0.00    +0.000 OA
ENDBRANCH   2   3
BRANCH   1  14
ATOM     12  O   UNL     1       7.946   5.588  13.115  0.00  0.00    +0.000 OA
ATOM     13  C   UNL     1       7.252   4.934  13.887  0.00  0.00    +0.000 C 
ATOM     14  N   UNL     1       7.090   5.293  15.214  0.00  0.00    +0.000 N 
ATOM     15  H   UNL     1       7.572   6.123  15.540  0.00  0.00    +0.000 HD
BRANCH  13  16
ATOM     16  C   UNL     1       6.499   3.724  13.437  0.00  0.00    +0.000 C 
ATOM     17  C   UNL     1       5.214   3.908  12.665  0.00  0.00    +0.000 C 
ATOM     18  C   UNL     1       6.414   3.306  11.992  0.00  0.00    +0.000 C 
ENDBRANCH  13  16
ENDBRANCH   1  14
TORSDOF 3
ENDMDL
MODEL 4
REMARK VINA RESULT:      -7.1      1.984      2.854
REMARK  Name = 
REMARK  3 active torsions:
REMARK  status: ('A' for Active; 'I' for Inactive)
REMARK    1  A    between atoms: C_2  and  C_15
REMARK    2  A    between atoms: N_3  and  N_4
REMARK    3  A    between atoms: C_5  and  C_6
REMARK                            x       y       z     vdW  Elec       q    Type
REMARK                         _______ _______ _______ _____ _____    ______ ____
ROOT
ATOM      1  N   UNL     1       6.187   4.536  16.293  0.00  0.00    +0.000 NA
ATOM      2  C   UNL     1       5.141   5.110  16.791  0.00  0.00    +0.000 C 
ENDROOT
BRANCH   2   3
ATOM      3  C   UNL     1       4.255   4.349  17.699  0.00  0.00    +0.000 A 
ATOM      4  C   UNL     1       3.802   3.062  17.326  0.00  0.00    +0.000 A 
ATOM      5  C   UNL     1       2.968   2.328  18.171  0.00  0.00    +0.000 A 
ATOM      6  C   UNL     1       2.605   2.910  19.364  0.00  0.00    +0.000 A 
ATOM      7  C   UNL     1       3.045   4.163  19.727  0.00  0.00    +0.000 A 
ATOM      8  C   UNL     1       3.877   4.913  18.920  0.00  0.00    +0.000 A 
ATOM      9  O   UNL     1       2.563   4.546  20.940  0.00  0.00    +0.000 OA
ATOM     10  C   UNL     1       1.731   3.414  21.274  0.00  0.00    +0.000 C 
ATOM     11  O   UNL     1       1.796   2.350  20.302  0.00  0.00    +0.000 OA
ENDBRANCH   2   3
BRANCH   1  14
ATOM     12  O   UNL     1       7.862   5.582  13.393  0.00  0.00    +0.000 OA
ATOM     13  C   UNL     1       7.147   4.932  14.150  0.00  0.00    +0.000 C 
ATOM     14  N   UNL     1       6.983   5.275  15.481  0.00  0.00    +0.000 N 
ATOM     15  H   UNL     1       7.480   6.088  15.823  0.00  0.00    +0.000 HD
BRANCH  13  16
ATOM     16  C   UNL     1       6.370   3.747  13.676  0.00  0.00    +0.000 C 
ATOM     17  C   UNL     1       5.121   3.972  12.857  0.00  0.00    +0.000 C 
ATOM     18  C   UNL     1       6.324   3.327  12.230  0.00  0.00    +0.000 C 
ENDBRANCH  13  16
ENDBRANCH   1  14
TORSDOF 3
ENDMDL
MODEL 5
REMARK VINA RESULT:      -7.0      2.816      3.795
REMARK  Name = 
REMARK  3 active torsions:
REMARK  status: ('A' for Active; 'I' for Inactive)
REMARK    1  A    between atoms: C_2  and  C_15
REMARK    2  A    between atoms: N_3  and  N_4
REMARK    3  A    between atoms: C_5  and  C_6
REMARK                            x       y       z     vdW  Elec       q    Type
REMARK                         _______ _______ _______ _____ _____    ______ ____
ROOT
ATOM      1  N   UNL     1       5.489   4.374  15.094  0.00  0.00    +0.000 NA
ATOM      2  C   UNL     1       5.168   5.259  15.980  0.00  0.00    +0.000 C 
ENDROOT
BRANCH   2   3
ATOM      3  C   UNL     1       4.111   4.952  16.968  0.00  0.00    +0.000 A 
ATOM      4  C   UNL     1       3.631   5.969  17.825  0.00  0.00    +0.000 A 
ATOM      5  C   UNL     1       2.631   5.699  18.762  0.00  0.00    +0.000 A 
ATOM      6  C   UNL     1       2.146   4.412  18.816  0.00  0.00    +0.000 A 
ATOM      7  C   UNL     1       2.614   3.421  17.983  0.00  0.00    +0.000 A 
ATOM      8  C   UNL     1       3.596   3.655  17.040  0.00  0.00    +0.000 A 
ATOM      9  O   UNL     1       2.003   2.227  18.209  0.00  0.00    +0.000 OA
ATOM     10  C   UNL     1       1.137   2.568  19.313  0.00  0.00    +0.000 C 
ATOM     11  O   UNL     1       1.185   3.966  19.667  0.00  0.00    +0.000 OA
ENDBRANCH   2   3
BRANCH   1  14
ATOM     12  O   UNL     1       7.426   4.343  12.169  0.00  0.00    +0.000 OA
ATOM     13  C   UNL     1       6.543   4.078  12.979  0.00  0.00    +0.000 C 
ATOM     14  N   UNL     1       6.475   4.689  14.219  0.00  0.00    +0.000 N 
ATOM     15  H   UNL     1       7.189   5.371  14.448  0.00  0.00    +0.000 HD
BRANCH  13  16
ATOM     16  C   UNL     1       5.454   3.104  12.666  0.00  0.00    +0.000 C 
ATOM     17  C   UNL     1       4.519   3.397  11.516  0.00  0.00    +0.000 C 
ATOM     18  C   UNL     1       5.465   2.234  11.437  0.00  0.00    +0.000 C 
ENDBRANCH  13  16
ENDBRANCH   1  14
TORSDOF 3
ENDMDL
MODEL 6
REMARK VINA RESULT:      -6.8      1.893      6.764
REMARK  Name = 
REMARK  3 active torsions:
REMARK  status: ('A' for Active; 'I' for Inactive)
REMARK    1  A    between atoms: C_2  and  C_15
REMARK    2  A    between atoms: N_3  and  N_4
REMARK    3  A    between atoms: C_5  and  C_6
REMARK                            x       y       z     vdW  Elec       q    Type
REMARK                         _______ _______ _______ _____ _____    ______ ____
ROOT
ATOM      1  N   UNL     1       3.685   5.085  19.466  0.00  0.00    +0.000 NA
ATOM      2  C   UNL     1       4.768   4.426  19.212  0.00  0.00    +0.000 C 
ENDROOT
BRANCH   2   3
ATOM      3  C   UNL     1       5.563   4.766  18.012  0.00  0.00    +0.000 A 
ATOM      4  C   UNL     1       6.515   5.811  18.070  0.00  0.00    +0.000 A 
ATOM      5  C   UNL     1       7.277   6.144  16.949  0.00  0.00    +0.000 A 
ATOM      6  C   UNL     1       7.057   5.422  15.797  0.00  0.00    +0.000 A 
ATOM      7  C   UNL     1       6.131   4.406  15.740  0.00  0.00    +0.000 A 
ATOM      8  C   UNL     1       5.366   4.045  16.832  0.00  0.00    +0.000 A 
ATOM      9  O   UNL     1       6.072   3.831  14.509  0.00  0.00    +0.000 OA
ATOM     10  C   UNL     1       7.030   4.636  13.786  0.00  0.00    +0.000 C 
ATOM     11  O   UNL     1       7.696   5.612  14.613  0.00  0.00    +0.000 OA
ENDBRANCH   2   3
BRANCH   1  14
ATOM     12  O   UNL     1       1.243   3.615  21.513  0.00  0.00    +0.000 OA
ATOM     13  C   UNL     1       1.886   3.930  20.516  0.00  0.00    +0.000 C 
ATOM     14  N   UNL     1       2.996   4.754  20.586  0.00  0.00    +0.000 N 
ATOM     15  H   UNL     1       3.268   5.103  21.498  0.00  0.00    +0.000 HD
BRANCH  13  16
ATOM     16  C   UNL     1       1.539   3.410  19.159  0.00  0.00    +0.000 C 
ATOM     17  C   UNL     1       2.035   2.043  18.751  0.00  0.00    +0.000 C 
ATOM     18  C   UNL     1       0.564   2.282  18.942  0.00  0.00    +0.000 C 
ENDBRANCH  13  16
ENDBRANCH   1  14
TORSDOF 3
ENDMDL
MODEL 7
REMARK VINA RESULT:      -6.8      2.874      3.826
REMARK  Name = 
REMARK  3 active torsions:
REMARK  status: ('A' for Active; 'I' for Inactive)
REMARK    1  A    between atoms: C_2  and  C_15
REMARK    2  A    between atoms: N_3  and  N_4
REMARK    3  A    between atoms: C_5  and  C_6
REMARK                            x       y       z     vdW  Elec       q    Type
REMARK                         _______ _______ _______ _____ _____    ______ ____
ROOT
ATOM      1  N   UNL     1       5.950   4.863  15.243  0.00  0.00    +0.000 NA
ATOM      2  C   UNL     1       5.340   5.787  15.911  0.00  0.00    +0.000 C 
ENDROOT
BRANCH   2   3
ATOM      3  C   UNL     1       4.405   5.408  16.993  0.00  0.00    +0.000 A 
ATOM      4  C   UNL     1       3.968   4.068  17.109  0.00  0.00    +0.000 A 
ATOM      5  C   UNL     1       3.088   3.691  18.126  0.00  0.00    +0.000 A 
ATOM      6  C   UNL     1       2.665   4.673  18.992  0.00  0.00    +0.000 A 
ATOM      7  C   UNL     1       3.089   5.978  18.878  0.00  0.00    +0.000 A 
ATOM      8  C   UNL     1       3.965   6.384  17.891  0.00  0.00    +0.000 A 
ATOM      9  O   UNL     1       2.545   6.781  19.832  0.00  0.00    +0.000 OA
ATOM     10  C   UNL     1       1.693   5.844  20.525  0.00  0.00    +0.000 C 
ATOM     11  O   UNL     1       1.806   4.494  20.030  0.00  0.00    +0.000 OA
ENDBRANCH   2   3
BRANCH   1  14
ATOM     12  O   UNL     1       7.676   4.882  12.188  0.00  0.00    +0.000 OA
ATOM     13  C   UNL     1       6.903   4.552  13.083  0.00  0.00    +0.000 C 
ATOM     14  N   UNL     1       6.812   5.254  14.273  0.00  0.00    +0.000 N 
ATOM     15  H   UNL     1       7.414   6.060  14.392  0.00  0.00    +0.000 HD
BRANCH  13  16
ATOM     16  C   UNL     1       5.975   3.390  12.933  0.00  0.00    +0.000 C 
ATOM     17  C   UNL     1       4.836   3.488  11.946  0.00  0.00    +0.000 C 
ATOM     18  C   UNL     1       5.955   2.515  11.707  0.00  0.00    +0.000 C 
ENDBRANCH  13  16
ENDBRANCH   1  14
TORSDOF 3
ENDMDL
MODEL 8
REMARK VINA RESULT:      -6.7      2.166      6.621
REMARK  Name = 
REMARK  3 active torsions:
REMARK  status: ('A' for Active; 'I' for Inactive)
REMARK    1  A    between atoms: C_2  and  C_15
REMARK    2  A    between atoms: N_3  and  N_4
REMARK    3  A    between atoms: C_5  and  C_6
REMARK                            x       y       z     vdW  Elec       q    Type
REMARK                         _______ _______ _______ _____ _____    ______ ____
ROOT
ATOM      1  N   UNL     1       2.833   4.594  18.196  0.00  0.00    +0.000 NA
ATOM      2  C   UNL     1       3.909   4.412  17.503  0.00  0.00    +0.000 C 
ENDROOT
BRANCH   2   3
ATOM      3  C   UNL     1       5.122   5.198  17.819  0.00  0.00    +0.000 A 
ATOM      4  C   UNL     1       5.998   4.761  18.840  0.00  0.00    +0.000 A 
ATOM      5  C   UNL     1       7.149   5.487  19.150  0.00  0.00    +0.000 A 
ATOM      6  C   UNL     1       7.385   6.637  18.431  0.00  0.00    +0.000 A 
ATOM      7  C   UNL     1       6.532   7.063  17.438  0.00  0.00    +0.000 A 
ATOM      8  C   UNL     1       5.390   6.365  17.100  0.00  0.00    +0.000 A 
ATOM      9  O   UNL     1       6.951   8.221  16.862  0.00  0.00    +0.000 OA
ATOM     10  C   UNL     1       8.135   8.501  17.639  0.00  0.00    +0.000 C 
ATOM     11  O   UNL     1       8.444   7.471  18.601  0.00  0.00    +0.000 OA
ENDBRANCH   2   3
BRANCH   1  14
ATOM     12  O   UNL     1       0.271   2.221  18.530  0.00  0.00    +0.000 OA
ATOM     13  C   UNL     1       1.249   2.916  18.786  0.00  0.00    +0.000 C 
ATOM     14  N   UNL     1       1.750   3.841  17.885  0.00  0.00    +0.000 N 
ATOM     15  H   UNL     1       1.283   3.928  16.990  0.00  0.00    +0.000 HD
BRANCH  13  16
ATOM     16  C   UNL     1       1.945   2.843  20.106  0.00  0.00    +0.000 C 
ATOM     17  C   UNL     1       1.719   3.945  21.114  0.00  0.00    +0.000 C 
ATOM     18  C   UNL     1       1.220   2.557  21.396  0.00  0.00    +0.000 C 
ENDBRANCH  13  16
ENDBRANCH   1  14
TORSDOF 3
ENDMDL
MODEL 9
REMARK VINA RESULT:      -6.7      3.688      4.887
REMARK  Name = 
REMARK  3 active torsions:
REMARK  status: ('A' for Active; 'I' for Inactive)
REMARK    1  A    between atoms: C_2  and  C_15
REMARK    2  A    between atoms: N_3  and  N_4
REMARK    3  A    between atoms: C_5  and  C_6
REMARK                            x       y       z     vdW  Elec       q    Type
REMARK                         _______ _______ _______ _____ _____    ______ ____
ROOT
ATOM      1  N   UNL     1       5.590   4.190  14.070  0.00  0.00    +0.000 NA
ATOM      2  C   UNL     1       5.703   3.942  15.334  0.00  0.00    +0.000 C 
ENDROOT
BRANCH   2   3
ATOM      3  C   UNL     1       4.955   4.766  16.309  0.00  0.00    +0.000 A 
ATOM      4  C   UNL     1       5.104   6.172  16.304  0.00  0.00    +0.000 A 
ATOM      5  C   UNL     1       4.404   6.967  17.214  0.00  0.00    +0.000 A 
ATOM      6  C   UNL     1       3.578   6.325  18.109  0.00  0.00    +0.000 A 
ATOM      7  C   UNL     1       3.433   4.956  18.114  0.00  0.00    +0.000 A 
ATOM      8  C   UNL     1       4.104   4.141  17.224  0.00  0.00    +0.000 A 
ATOM      9  O   UNL     1       2.576   4.534  19.082  0.00  0.00    +0.000 OA
ATOM     10  C   UNL     1       2.238   5.787  19.715  0.00  0.00    +0.000 C 
ATOM     11  O   UNL     1       2.830   6.932  19.068  0.00  0.00    +0.000 OA
ENDBRANCH   2   3
BRANCH   1  14
ATOM     12  O   UNL     1       6.280   2.204  11.262  0.00  0.00    +0.000 OA
ATOM     13  C   UNL     1       5.681   2.921  12.057  0.00  0.00    +0.000 C 
ATOM     14  N   UNL     1       6.278   3.399  13.211  0.00  0.00    +0.000 N 
ATOM     15  H   UNL     1       7.240   3.133  13.389  0.00  0.00    +0.000 HD
BRANCH  13  16
ATOM     16  C   UNL     1       4.275   3.364  11.813  0.00  0.00    +0.000 C 
ATOM     17  C   UNL     1       3.915   3.945  10.466  0.00  0.00    +0.000 C 
ATOM     18  C   UNL     1       3.335   2.627  10.894  0.00  0.00    +0.000 C 
ENDBRANCH  13  16
ENDBRANCH   1  14
TORSDOF 3
ENDMDL
