MODEL 1
REMARK VINA RESULT:      -7.5      0.000      0.000
REMARK  Name = 
REMARK  4 active torsions:
REMARK  status: ('A' for Active; 'I' for Inactive)
REMARK    1  A    between atoms: S_2  and  C_4
REMARK    2  A    between atoms: S_2  and  N_13
REMARK    3  A    between atoms: N_20  and  C_21
REMARK    4  A    between atoms: C_21  and  C_22
REMARK                            x       y       z     vdW  Elec       q    Type
REMARK                         _______ _______ _______ _____ _____    ______ ____
ROOT
ATOM      1  N   UNL     1      -5.157  13.303  21.733  0.00  0.00    +0.000 NA
ATOM      2  C   UNL     1      -5.229  14.567  20.963  0.00  0.00    +0.000 C 
ATOM      3  C   UNL     1      -6.462  14.627  20.057  0.00  0.00    +0.000 C 
ATOM      4  C   UNL     1      -7.750  14.300  20.827  0.00  0.00    +0.000 C 
ATOM      5  C   UNL     1      -7.576  13.174  21.841  0.00  0.00    +0.000 C 
ATOM      6  C   UNL     1      -6.296  12.372  21.581  0.00  0.00    +0.000 C 
ATOM      7  C   UNL     1      -6.300  11.659  20.211  0.00  0.00    +0.000 C 
ATOM      8  N   UNL     1      -5.870  12.383  19.007  0.00  0.00    +0.000 NA
ATOM      9  C   UNL     1      -6.263  13.766  18.806  0.00  0.00    +0.000 C 
ENDROOT
BRANCH   1  11
ATOM     10  O   UNL     1      -4.777  12.346  24.078  0.00  0.00    +0.000 OA
ATOM     11  S   UNL     1      -4.168  13.204  23.099  0.00  0.00    +0.000 S 
ATOM     12  O   UNL     1      -3.739  14.549  23.450  0.00  0.00    +0.000 OA
BRANCH  11  13
ATOM     13  C   UNL     1      -2.743  12.347  22.457  0.00  0.00    +0.000 A 
ATOM     14  C   UNL     1      -2.484  12.455  21.085  0.00  0.00    +0.000 A 
ATOM     15  C   UNL     1      -1.368  11.859  20.504  0.00  0.00    +0.000 A 
ATOM     16  C   UNL     1      -0.597  11.059  21.343  0.00  0.00    +0.000 A 
ATOM     17  N   UNL     1       0.505  10.281  21.100  0.00  0.00    +0.000 N 
ATOM     18  C   UNL     1       0.812   9.619  22.255  0.00  0.00    +0.000 A 
ATOM     19  N   UNL     1       0.033   9.989  23.247  0.00  0.00    +0.000 NA
ATOM     20  C   UNL     1      -0.864  10.872  22.697  0.00  0.00    +0.000 A 
ATOM     21  C   UNL     1      -1.944  11.545  23.291  0.00  0.00    +0.000 A 
ATOM     22  H   UNL     1       0.962  10.165  20.208  0.00  0.00    +0.000 HD
ENDBRANCH  11  13
ENDBRANCH   1  11
BRANCH   8  23
ATOM     23  C   UNL     1      -5.929  11.595  17.771  0.00  0.00    +0.000 C 
BRANCH  23  24
ATOM     24  C   UNL     1      -4.600  11.070  17.251  0.00  0.00    +0.000 A 
ATOM     25  C   UNL     1      -4.179  11.266  15.929  0.00  0.00    +0.000 A 
ATOM     26  C   UNL     1      -2.981  10.715  15.467  0.00  0.00    +0.000 A 
ATOM     27  C   UNL     1      -2.179   9.972  16.332  0.00  0.00    +0.000 A 
ATOM     28  C   UNL     1      -2.565   9.796  17.654  0.00  0.00    +0.000 A 
ATOM     29  C   UNL     1      -3.766  10.345  18.116  0.00  0.00    +0.000 A 
ENDBRANCH  23  24
ENDBRANCH   8  23
TORSDOF 4
ENDMDL
MODEL 2
REMARK VINA RESULT:      -7.4      8.174     11.104
REMARK  Name = 
REMARK  4 active torsions:
REMARK  status: ('A' for Active; 'I' for Inactive)
REMARK    1  A    between atoms: S_2  and  C_4
REMARK    2  A    between atoms: S_2  and  N_13
REMARK    3  A    between atoms: N_20  and  C_21
REMARK    4  A    between atoms: C_21  and  C_22
REMARK                            x       y       z     vdW  Elec       q    Type
REMARK                         _______ _______ _______ _____ _____    ______ ____
ROOT
ATOM      1  N   UNL     1       3.345   4.227  19.095  0.00  0.00    +0.000 NA
ATOM      2  C   UNL     1       3.206   4.674  20.501  0.00  0.00    +0.000 C 
ATOM      3  C   UNL     1       1.928   5.485  20.730  0.00  0.00    +0.000 C 
ATOM      4  C   UNL     1       0.688   4.758  20.189  0.00  0.00    +0.000 C 
ATOM      5  C   UNL     1       0.938   4.047  18.863  0.00  0.00    +0.000 C 
ATOM      6  C   UNL     1       2.221   4.544  18.188  0.00  0.00    +0.000 C 
ATOM      7  C   UNL     1       2.164   6.041  17.816  0.00  0.00    +0.000 C 
ATOM      8  N   UNL     1       2.516   7.059  18.815  0.00  0.00    +0.000 NA
ATOM      9  C   UNL     1       2.084   6.911  20.193  0.00  0.00    +0.000 C 
ENDROOT
BRANCH   1  11
ATOM     10  O   UNL     1       3.683   1.911  18.056  0.00  0.00    +0.000 OA
ATOM     11  S   UNL     1       4.403   2.967  18.712  0.00  0.00    +0.000 S 
ATOM     12  O   UNL     1       5.230   2.694  19.879  0.00  0.00    +0.000 OA
BRANCH  11  13
ATOM     13  C   UNL     1       5.453   3.730  17.490  0.00  0.00    +0.000 A 
ATOM     14  C   UNL     1       6.353   4.710  17.928  0.00  0.00    +0.000 A 
ATOM     15  C   UNL     1       7.244   5.325  17.053  0.00  0.00    +0.000 A 
ATOM     16  C   UNL     1       7.104   4.994  15.707  0.00  0.00    +0.000 A 
ATOM     17  N   UNL     1       7.747   5.451  14.586  0.00  0.00    +0.000 N 
ATOM     18  C   UNL     1       7.156   4.871  13.500  0.00  0.00    +0.000 A 
ATOM     19  N   UNL     1       6.235   4.003  13.856  0.00  0.00    +0.000 NA
ATOM     20  C   UNL     1       6.173   4.077  15.226  0.00  0.00    +0.000 A 
ATOM     21  C   UNL     1       5.337   3.400  16.127  0.00  0.00    +0.000 A 
ATOM     22  H   UNL     1       8.477   6.147  14.565  0.00  0.00    +0.000 HD
ENDBRANCH  11  13
ENDBRANCH   1  11
BRANCH   8  23
ATOM     23  C   UNL     1       2.413   8.442  18.337  0.00  0.00    +0.000 C 
BRANCH  23  24
ATOM     24  C   UNL     1       1.143   9.186  18.718  0.00  0.00    +0.000 A 
ATOM     25  C   UNL     1       0.123   9.455  17.795  0.00  0.00    +0.000 A 
ATOM     26  C   UNL     1      -1.002  10.197  18.163  0.00  0.00    +0.000 A 
ATOM     27  C   UNL     1      -1.128  10.666  19.470  0.00  0.00    +0.000 A 
ATOM     28  C   UNL     1      -0.142  10.381  20.405  0.00  0.00    +0.000 A 
ATOM     29  C   UNL     1       0.987   9.641  20.036  0.00  0.00    +0.000 A 
ENDBRANCH  23  24
ENDBRANCH   8  23
TORSDOF 4
ENDMDL
MODEL 3
REMARK VINA RESULT:      -7.3      8.040     11.201
REMARK  Name = 
REMARK  4 active torsions:
REMARK  status: ('A' for Active; 'I' for Inactive)
REMARK    1  A    between atoms: S_2  and  C_4
REMARK    2  A    between atoms: S_2  and  N_13
REMARK    3  A    between atoms: N_20  and  C_21
REMARK    4  A    between atoms: C_21  and  C_22
REMARK                            x       y       z     vdW  Elec       q    Type
REMARK                         _______ _______ _______ _____ _____    ______ ____
ROOT
ATOM      1  N   UNL     1       2.746   3.302  18.876  0.00  0.00    +0.000 NA
ATOM      2  C   UNL     1       3.484   3.054  20.136  0.00  0.00    +0.000 C 
ATOM      3  C   UNL     1       2.612   3.270  21.375  0.00  0.00    +0.000 C 
ATOM      4  C   UNL     1       1.285   2.502  21.277  0.00  0.00    +0.000 C 
ATOM      5  C   UNL     1       0.679   2.524  19.877  0.00  0.00    +0.000 C 
ATOM      6  C   UNL     1       1.307   3.617  19.006  0.00  0.00    +0.000 C 
ATOM      7  C   UNL     1       1.059   5.039  19.554  0.00  0.00    +0.000 C 
ATOM      8  N   UNL     1       1.954   5.598  20.576  0.00  0.00    +0.000 NA
ATOM      9  C   UNL     1       2.433   4.764  21.663  0.00  0.00    +0.000 C 
ENDROOT
BRANCH   1  11
ATOM     10  O   UNL     1       2.349   2.839  16.389  0.00  0.00    +0.000 OA
ATOM     11  S   UNL     1       3.345   2.700  17.416  0.00  0.00    +0.000 S 
ATOM     12  O   UNL     1       3.975   1.414  17.676  0.00  0.00    +0.000 OA
BRANCH  11  13
ATOM     13  C   UNL     1       4.648   3.861  17.050  0.00  0.00    +0.000 A 
ATOM     14  C   UNL     1       5.623   3.470  16.123  0.00  0.00    +0.000 A 
ATOM     15  C   UNL     1       6.650   4.328  15.741  0.00  0.00    +0.000 A 
ATOM     16  C   UNL     1       6.716   5.542  16.418  0.00  0.00    +0.000 A 
ATOM     17  N   UNL     1       7.615   6.575  16.354  0.00  0.00    +0.000 N 
ATOM     18  C   UNL     1       7.272   7.489  17.308  0.00  0.00    +0.000 A 
ATOM     19  N   UNL     1       6.159   7.154  17.922  0.00  0.00    +0.000 NA
ATOM     20  C   UNL     1       5.805   5.935  17.396  0.00  0.00    +0.000 A 
ATOM     21  C   UNL     1       4.724   5.098  17.714  0.00  0.00    +0.000 A 
ATOM     22  H   UNL     1       8.427   6.615  15.755  0.00  0.00    +0.000 HD
ENDBRANCH  11  13
ENDBRANCH   1  11
BRANCH   8  23
ATOM     23  C   UNL     1       1.604   6.953  21.017  0.00  0.00    +0.000 C 
BRANCH  23  24
ATOM     24  C   UNL     1       1.666   8.037  19.953  0.00  0.00    +0.000 A 
ATOM     25  C   UNL     1       1.016   9.270  20.096  0.00  0.00    +0.000 A 
ATOM     26  C   UNL     1       1.041  10.219  19.071  0.00  0.00    +0.000 A 
ATOM     27  C   UNL     1       1.733   9.950  17.891  0.00  0.00    +0.000 A 
ATOM     28  C   UNL     1       2.409   8.746  17.746  0.00  0.00    +0.000 A 
ATOM     29  C   UNL     1       2.382   7.794  18.771  0.00  0.00    +0.000 A 
ENDBRANCH  23  24
ENDBRANCH   8  23
TORSDOF 4
ENDMDL
MODEL 4
REMARK VINA RESULT:      -7.3      8.169     11.370
REMARK  Name = 
REMARK  4 active torsions:
REMARK  status: ('A' for Active; 'I' for Inactive)
REMARK    1  A    between atoms: S_2  and  C_4
REMARK    2  A    between atoms: S_2  and  N_13
REMARK    3  A    between atoms: N_20  and  C_21
REMARK    4  A    between atoms: C_21  and  C_22
REMARK                            x       y       z     vdW  Elec       q    Type
REMARK                         _______ _______ _______ _____ _____    ______ ____
ROOT
ATOM      1  N   UNL     1       3.196   3.719  19.323  0.00  0.00    +0.000 NA
ATOM      2  C   UNL     1       2.762   3.858  20.733  0.00  0.00    +0.000 C 
ATOM      3  C   UNL     1       1.418   4.580  20.860  0.00  0.00    +0.000 C 
ATOM      4  C   UNL     1       0.351   3.960  19.946  0.00  0.00    +0.000 C 
ATOM      5  C   UNL     1       0.894   3.549  18.581  0.00  0.00    +0.000 C 
ATOM      6  C   UNL     1       2.251   4.199  18.292  0.00  0.00    +0.000 C 
ATOM      7  C   UNL     1       2.177   5.740  18.227  0.00  0.00    +0.000 C 
ATOM      8  N   UNL     1       2.269   6.531  19.462  0.00  0.00    +0.000 NA
ATOM      9  C   UNL     1       1.589   6.089  20.665  0.00  0.00    +0.000 C 
ENDROOT
BRANCH   1  11
ATOM     10  O   UNL     1       3.785   1.503  18.183  0.00  0.00    +0.000 OA
ATOM     11  S   UNL     1       4.381   2.587  18.913  0.00  0.00    +0.000 S 
ATOM     12  O   UNL     1       5.197   2.334  20.091  0.00  0.00    +0.000 OA
BRANCH  11  13
ATOM     13  C   UNL     1       5.385   3.510  17.764  0.00  0.00    +0.000 A 
ATOM     14  C   UNL     1       6.159   4.559  18.276  0.00  0.00    +0.000 A 
ATOM     15  C   UNL     1       7.009   5.303  17.462  0.00  0.00    +0.000 A 
ATOM     16  C   UNL     1       6.953   5.018  16.101  0.00  0.00    +0.000 A 
ATOM     17  N   UNL     1       7.582   5.588  15.024  0.00  0.00    +0.000 N 
ATOM     18  C   UNL     1       7.096   4.996  13.894  0.00  0.00    +0.000 A 
ATOM     19  N   UNL     1       6.262   4.021  14.178  0.00  0.00    +0.000 NA
ATOM     20  C   UNL     1       6.144   4.029  15.547  0.00  0.00    +0.000 A 
ATOM     21  C   UNL     1       5.353   3.229  16.387  0.00  0.00    +0.000 A 
ATOM     22  H   UNL     1       8.234   6.358  15.060  0.00  0.00    +0.000 HD
ENDBRANCH  11  13
ENDBRANCH   1  11
BRANCH   8  23
ATOM     23  C   UNL     1       2.178   7.982  19.263  0.00  0.00    +0.000 C 
BRANCH  23  24
ATOM     24  C   UNL     1       1.325   8.740  20.268  0.00  0.00    +0.000 A 
ATOM     25  C   UNL     1       1.485   8.594  21.652  0.00  0.00    +0.000 A 
ATOM     26  C   UNL     1       0.642   9.257  22.548  0.00  0.00    +0.000 A 
ATOM     27  C   UNL     1      -0.366  10.091  22.066  0.00  0.00    +0.000 A 
ATOM     28  C   UNL     1      -0.517  10.273  20.697  0.00  0.00    +0.000 A 
ATOM     29  C   UNL     1       0.325   9.607  19.800  0.00  0.00    +0.000 A 
ENDBRANCH  23  24
ENDBRANCH   8  23
TORSDOF 4
ENDMDL
MODEL 5
REMARK VINA RESULT:      -7.3      7.530     11.316
REMARK  Name = 
REMARK  4 active torsions:
REMARK  status: ('A' for Active; 'I' for Inactive)
REMARK    1  A    between atoms: S_2  and  C_4
REMARK    2  A    between atoms: S_2  and  N_13
REMARK    3  A    between atoms: N_20  and  C_21
REMARK    4  A    between atoms: C_21  and  C_22
REMARK                            x       y       z     vdW  Elec       q    Type
REMARK                         _______ _______ _______ _____ _____    ______ ____
ROOT
ATOM      1  N   UNL     1       2.771   4.051  19.333  0.00  0.00    +0.000 NA
ATOM      2  C   UNL     1       2.133   3.634  18.063  0.00  0.00    +0.000 C 
ATOM      3  C   UNL     1       3.041   2.732  17.223  0.00  0.00    +0.000 C 
ATOM      4  C   UNL     1       3.598   1.560  18.047  0.00  0.00    +0.000 C 
ATOM      5  C   UNL     1       3.982   1.955  19.470  0.00  0.00    +0.000 C 
ATOM      6  C   UNL     1       4.102   3.475  19.624  0.00  0.00    +0.000 C 
ATOM      7  C   UNL     1       5.215   4.082  18.743  0.00  0.00    +0.000 C 
ATOM      8  N   UNL     1       4.935   4.431  17.344  0.00  0.00    +0.000 NA
ATOM      9  C   UNL     1       4.125   3.553  16.519  0.00  0.00    +0.000 C 
ENDROOT
BRANCH   1  11
ATOM     10  O   UNL     1       2.543   4.545  21.836  0.00  0.00    +0.000 OA
ATOM     11  S   UNL     1       1.823   4.650  20.596  0.00  0.00    +0.000 S 
ATOM     12  O   UNL     1       0.483   4.097  20.462  0.00  0.00    +0.000 OA
BRANCH  11  13
ATOM     13  C   UNL     1       1.722   6.383  20.188  0.00  0.00    +0.000 A 
ATOM     14  C   UNL     1       1.101   7.232  21.112  0.00  0.00    +0.000 A 
ATOM     15  C   UNL     1       1.018   8.605  20.899  0.00  0.00    +0.000 A 
ATOM     16  C   UNL     1       1.482   9.061  19.668  0.00  0.00    +0.000 A 
ATOM     17  N   UNL     1       1.489  10.310  19.102  0.00  0.00    +0.000 N 
ATOM     18  C   UNL     1       1.968  10.189  17.829  0.00  0.00    +0.000 A 
ATOM     19  N   UNL     1       2.352   8.959  17.570  0.00  0.00    +0.000 NA
ATOM     20  C   UNL     1       2.041   8.235  18.695  0.00  0.00    +0.000 A 
ATOM     21  C   UNL     1       2.196   6.865  18.955  0.00  0.00    +0.000 A 
ATOM     22  H   UNL     1       1.136  11.153  19.528  0.00  0.00    +0.000 HD
ENDBRANCH  11  13
ENDBRANCH   1  11
BRANCH   8  23
ATOM     23  C   UNL     1       6.079   4.992  16.616  0.00  0.00    +0.000 C 
BRANCH  23  24
ATOM     24  C   UNL     1       6.855   6.085  17.333  0.00  0.00    +0.000 A 
ATOM     25  C   UNL     1       6.849   7.418  16.903  0.00  0.00    +0.000 A 
ATOM     26  C   UNL     1       7.624   8.386  17.548  0.00  0.00    +0.000 A 
ATOM     27  C   UNL     1       8.406   8.031  18.646  0.00  0.00    +0.000 A 
ATOM     28  C   UNL     1       8.398   6.720  19.106  0.00  0.00    +0.000 A 
ATOM     29  C   UNL     1       7.624   5.750  18.459  0.00  0.00    +0.000 A 
ENDBRANCH  23  24
ENDBRANCH   8  23
TORSDOF 4
ENDMDL
MODEL 6
REMARK VINA RESULT:      -7.2      2.430      5.345
REMARK  Name = 
REMARK  4 active torsions:
REMARK  status: ('A' for Active; 'I' for Inactive)
REMARK    1  A    between atoms: S_2  and  C_4
REMARK    2  A    between atoms: S_2  and  N_13
REMARK    3  A    between atoms: N_20  and  C_21
REMARK    4  A    between atoms: C_21  and  C_22
REMARK                            x       y       z     vdW  Elec       q    Type
REMARK                         _______ _______ _______ _____ _____    ______ ____
ROOT
ATOM      1  N   UNL     1      -5.445  13.279  20.971  0.00  0.00    +0.000 NA
ATOM      2  C   UNL     1      -5.959  12.532  22.143  0.00  0.00    +0.000 C 
ATOM      3  C   UNL     1      -5.484  13.131  23.469  0.00  0.00    +0.000 C 
ATOM      4  C   UNL     1      -5.750  14.643  23.538  0.00  0.00    +0.000 C 
ATOM      5  C   UNL     1      -5.491  15.359  22.216  0.00  0.00    +0.000 C 
ATOM      6  C   UNL     1      -4.660  14.499  21.258  0.00  0.00    +0.000 C 
ATOM      7  C   UNL     1      -3.251  14.181  21.805  0.00  0.00    +0.000 C 
ATOM      8  N   UNL     1      -3.055  13.038  22.708  0.00  0.00    +0.000 NA
ATOM      9  C   UNL     1      -4.027  12.754  23.748  0.00  0.00    +0.000 C 
ENDROOT
BRANCH   1  11
ATOM     10  O   UNL     1      -6.354  14.378  18.844  0.00  0.00    +0.000 OA
ATOM     11  S   UNL     1      -6.183  13.092  19.463  0.00  0.00    +0.000 S 
ATOM     12  O   UNL     1      -7.308  12.181  19.615  0.00  0.00    +0.000 OA
BRANCH  11  13
ATOM     13  C   UNL     1      -4.924  12.226  18.545  0.00  0.00    +0.000 A 
ATOM     14  C   UNL     1      -3.687  12.026  19.170  0.00  0.00    +0.000 A 
ATOM     15  C   UNL     1      -2.662  11.319  18.548  0.00  0.00    +0.000 A 
ATOM     16  C   UNL     1      -2.900  10.929  17.233  0.00  0.00    +0.000 A 
ATOM     17  N   UNL     1      -2.106  10.295  16.313  0.00  0.00    +0.000 N 
ATOM     18  C   UNL     1      -2.792  10.244  15.133  0.00  0.00    +0.000 A 
ATOM     19  N   UNL     1      -4.009  10.723  15.260  0.00  0.00    +0.000 NA
ATOM     20  C   UNL     1      -4.092  11.173  16.555  0.00  0.00    +0.000 A 
ATOM     21  C   UNL     1      -5.150  11.812  17.220  0.00  0.00    +0.000 A 
ATOM     22  H   UNL     1      -1.156   9.988  16.463  0.00  0.00    +0.000 HD
ENDBRANCH  11  13
ENDBRANCH   1  11
BRANCH   8  23
ATOM     23  C   UNL     1      -1.672  12.851  23.161  0.00  0.00    +0.000 C 
BRANCH  23  24
ATOM     24  C   UNL     1      -0.923  11.679  22.548  0.00  0.00    +0.000 A 
ATOM     25  C   UNL     1      -0.199  11.790  21.353  0.00  0.00    +0.000 A 
ATOM     26  C   UNL     1       0.425  10.677  20.784  0.00  0.00    +0.000 A 
ATOM     27  C   UNL     1       0.345   9.437  21.416  0.00  0.00    +0.000 A 
ATOM     28  C   UNL     1      -0.341   9.316  22.617  0.00  0.00    +0.000 A 
ATOM     29  C   UNL     1      -0.968  10.429  23.186  0.00  0.00    +0.000 A 
ENDBRANCH  23  24
ENDBRANCH   8  23
TORSDOF 4
ENDMDL
MODEL 7
REMARK VINA RESULT:      -7.1      7.501     11.308
REMARK  Name = 
REMARK  4 active torsions:
REMARK  status: ('A' for Active; 'I' for Inactive)
REMARK    1  A    between atoms: S_2  and  C_4
REMARK    2  A    between atoms: S_2  and  N_13
REMARK    3  A    between atoms: N_20  and  C_21
REMARK    4  A    between atoms: C_21  and  C_22
REMARK                            x       y       z     vdW  Elec       q    Type
REMARK                         _______ _______ _______ _____ _____    ______ ____
ROOT
ATOM      1  N   UNL     1       2.798   4.079  19.344  0.00  0.00    +0.000 NA
ATOM      2  C   UNL     1       2.185   3.586  18.089  0.00  0.00    +0.000 C 
ATOM      3  C   UNL     1       3.100   2.618  17.334  0.00  0.00    +0.000 C 
ATOM      4  C   UNL     1       3.619   1.497  18.247  0.00  0.00    +0.000 C 
ATOM      5  C   UNL     1       3.975   1.980  19.649  0.00  0.00    +0.000 C 
ATOM      6  C   UNL     1       4.113   3.505  19.705  0.00  0.00    +0.000 C 
ATOM      7  C   UNL     1       5.256   4.038  18.813  0.00  0.00    +0.000 C 
ATOM      8  N   UNL     1       5.015   4.296  17.387  0.00  0.00    +0.000 NA
ATOM      9  C   UNL     1       4.212   3.376  16.603  0.00  0.00    +0.000 C 
ENDROOT
BRANCH   1  11
ATOM     10  O   UNL     1       2.527   4.763  21.796  0.00  0.00    +0.000 OA
ATOM     11  S   UNL     1       1.829   4.773  20.540  0.00  0.00    +0.000 S 
ATOM     12  O   UNL     1       0.491   4.213  20.425  0.00  0.00    +0.000 OA
BRANCH  11  13
ATOM     13  C   UNL     1       1.739   6.470  19.998  0.00  0.00    +0.000 A 
ATOM     14  C   UNL     1       2.350   6.795  18.781  0.00  0.00    +0.000 A 
ATOM     15  C   UNL     1       2.289   8.083  18.256  0.00  0.00    +0.000 A 
ATOM     16  C   UNL     1       1.690   9.044  19.066  0.00  0.00    +0.000 A 
ATOM     17  N   UNL     1       1.523  10.395  18.905  0.00  0.00    +0.000 N 
ATOM     18  C   UNL     1       0.959  10.886  20.047  0.00  0.00    +0.000 A 
ATOM     19  N   UNL     1       0.670   9.925  20.896  0.00  0.00    +0.000 NA
ATOM     20  C   UNL     1       1.133   8.771  20.313  0.00  0.00    +0.000 A 
ATOM     21  C   UNL     1       1.126   7.453  20.795  0.00  0.00    +0.000 A 
ATOM     22  H   UNL     1       1.830  10.939  18.112  0.00  0.00    +0.000 HD
ENDBRANCH  11  13
ENDBRANCH   1  11
BRANCH   8  23
ATOM     23  C   UNL     1       6.185   4.792  16.653  0.00  0.00    +0.000 C 
BRANCH  23  24
ATOM     24  C   UNL     1       6.980   5.895  17.331  0.00  0.00    +0.000 A 
ATOM     25  C   UNL     1       7.736   5.674  18.491  0.00  0.00    +0.000 A 
ATOM     26  C   UNL     1       8.403   6.725  19.126  0.00  0.00    +0.000 A 
ATOM     27  C   UNL     1       8.335   8.013  18.595  0.00  0.00    +0.000 A 
ATOM     28  C   UNL     1       7.618   8.243  17.428  0.00  0.00    +0.000 A 
ATOM     29  C   UNL     1       6.946   7.192  16.794  0.00  0.00    +0.000 A 
ENDBRANCH  23  24
ENDBRANCH   8  23
TORSDOF 4
ENDMDL
MODEL 8
REMARK VINA RESULT:      -7.0      8.896     12.247
REMARK  Name = 
REMARK  4 active torsions:
REMARK  status: ('A' for Active; 'I' for Inactive)
REMARK    1  A    between atoms: S_2  and  C_4
REMARK    2  A    between atoms: S_2  and  N_13
REMARK    3  A    between atoms: N_20  and  C_21
REMARK    4  A    between atoms: C_21  and  C_22
REMARK                            x       y       z     vdW  Elec       q    Type
REMARK                         _______ _______ _______ _____ _____    ______ ____
ROOT
ATOM      1  N   UNL     1       4.556   4.727  17.443  0.00  0.00    +0.000 NA
ATOM      2  C   UNL     1       5.745   4.013  17.965  0.00  0.00    +0.000 C 
ATOM      3  C   UNL     1       7.054   4.725  17.612  0.00  0.00    +0.000 C 
ATOM      4  C   UNL     1       7.013   6.213  17.993  0.00  0.00    +0.000 C 
ATOM      5  C   UNL     1       5.663   6.868  17.714  0.00  0.00    +0.000 C 
ATOM      6  C   UNL     1       4.807   6.019  16.768  0.00  0.00    +0.000 C 
ATOM      7  C   UNL     1       5.445   5.845  15.373  0.00  0.00    +0.000 C 
ATOM      8  N   UNL     1       6.427   4.776  15.144  0.00  0.00    +0.000 NA
ATOM      9  C   UNL     1       7.431   4.479  16.148  0.00  0.00    +0.000 C 
ENDROOT
BRANCH   1  11
ATOM     10  O   UNL     1       3.156   3.560  19.241  0.00  0.00    +0.000 OA
ATOM     11  S   UNL     1       3.027   4.395  18.079  0.00  0.00    +0.000 S 
ATOM     12  O   UNL     1       2.149   4.017  16.981  0.00  0.00    +0.000 OA
BRANCH  11  13
ATOM     13  C   UNL     1       2.507   6.006  18.639  0.00  0.00    +0.000 A 
ATOM     14  C   UNL     1       2.187   6.149  19.995  0.00  0.00    +0.000 A 
ATOM     15  C   UNL     1       1.817   7.379  20.531  0.00  0.00    +0.000 A 
ATOM     16  C   UNL     1       1.673   8.423  19.620  0.00  0.00    +0.000 A 
ATOM     17  N   UNL     1       1.261   9.721  19.780  0.00  0.00    +0.000 N 
ATOM     18  C   UNL     1       1.201  10.295  18.543  0.00  0.00    +0.000 A 
ATOM     19  N   UNL     1       1.632   9.479  17.607  0.00  0.00    +0.000 NA
ATOM     20  C   UNL     1       1.914   8.299  18.254  0.00  0.00    +0.000 A 
ATOM     21  C   UNL     1       2.368   7.076  17.737  0.00  0.00    +0.000 A 
ATOM     22  H   UNL     1       0.984  10.150  20.650  0.00  0.00    +0.000 HD
ENDBRANCH  11  13
ENDBRANCH   1  11
BRANCH   8  23
ATOM     23  C   UNL     1       6.962   4.725  13.778  0.00  0.00    +0.000 C 
BRANCH  23  24
ATOM     24  C   UNL     1       6.257   3.776  12.822  0.00  0.00    +0.000 A 
ATOM     25  C   UNL     1       6.927   2.735  12.164  0.00  0.00    +0.000 A 
ATOM     26  C   UNL     1       6.262   1.922  11.242  0.00  0.00    +0.000 A 
ATOM     27  C   UNL     1       4.909   2.131  10.980  0.00  0.00    +0.000 A 
ATOM     28  C   UNL     1       4.223   3.137  11.647  0.00  0.00    +0.000 A 
ATOM     29  C   UNL     1       4.888   3.954  12.568  0.00  0.00    +0.000 A 
ENDBRANCH  23  24
ENDBRANCH   8  23
TORSDOF 4
ENDMDL
MODEL 9
REMARK VINA RESULT:      -7.0      2.225      5.491
REMARK  Name = 
REMARK  4 active torsions:
REMARK  status: ('A' for Active; 'I' for Inactive)
REMARK    1  A    between atoms: S_2  and  C_4
REMARK    2  A    between atoms: S_2  and  N_13
REMARK    3  A    between atoms: N_20  and  C_21
REMARK    4  A    between atoms: C_21  and  C_22
REMARK                            x       y       z     vdW  Elec       q    Type
REMARK                         _______ _______ _______ _____ _____    ______ ____
ROOT
ATOM      1  N   UNL     1      -0.709  11.590  20.697  0.00  0.00    +0.000 NA
ATOM      2  C   UNL     1      -0.475  10.156  20.407  0.00  0.00    +0.000 C 
ATOM      3  C   UNL     1      -0.040   9.918  18.959  0.00  0.00    +0.000 C 
ATOM      4  C   UNL     1       1.133  10.826  18.560  0.00  0.00    +0.000 C 
ATOM      5  C   UNL     1       1.017  12.240  19.122  0.00  0.00    +0.000 C 
ATOM      6  C   UNL     1      -0.406  12.542  19.606  0.00  0.00    +0.000 C 
ATOM      7  C   UNL     1      -1.450  12.492  18.470  0.00  0.00    +0.000 C 
ATOM      8  N   UNL     1      -2.053  11.210  18.082  0.00  0.00    +0.000 NA
ATOM      9  C   UNL     1      -1.236  10.012  18.008  0.00  0.00    +0.000 C 
ENDROOT
BRANCH   1  11
ATOM     10  O   UNL     1      -0.036  13.377  22.404  0.00  0.00    +0.000 OA
ATOM     11  S   UNL     1      -0.746  12.132  22.296  0.00  0.00    +0.000 S 
ATOM     12  O   UNL     1      -0.423  11.011  23.166  0.00  0.00    +0.000 OA
BRANCH  11  13
ATOM     13  C   UNL     1      -2.478  12.491  22.520  0.00  0.00    +0.000 A 
ATOM     14  C   UNL     1      -3.015  12.324  23.803  0.00  0.00    +0.000 A 
ATOM     15  C   UNL     1      -4.345  12.624  24.082  0.00  0.00    +0.000 A 
ATOM     16  C   UNL     1      -5.131  12.986  22.991  0.00  0.00    +0.000 A 
ATOM     17  N   UNL     1      -6.467  13.273  22.885  0.00  0.00    +0.000 N 
ATOM     18  C   UNL     1      -6.750  13.467  21.564  0.00  0.00    +0.000 A 
ATOM     19  N   UNL     1      -5.666  13.411  20.823  0.00  0.00    +0.000 NA
ATOM     20  C   UNL     1      -4.648  13.094  21.689  0.00  0.00    +0.000 A 
ATOM     21  C   UNL     1      -3.286  12.870  21.433  0.00  0.00    +0.000 A 
ATOM     22  H   UNL     1      -7.134  13.269  23.643  0.00  0.00    +0.000 HD
ENDBRANCH  11  13
ENDBRANCH   1  11
BRANCH   8  23
ATOM     23  C   UNL     1      -3.023  11.300  16.986  0.00  0.00    +0.000 C 
BRANCH  23  24
ATOM     24  C   UNL     1      -4.485  11.387  17.395  0.00  0.00    +0.000 A 
ATOM     25  C   UNL     1      -5.346  12.377  16.902  0.00  0.00    +0.000 A 
ATOM     26  C   UNL     1      -6.668  12.467  17.349  0.00  0.00    +0.000 A 
ATOM     27  C   UNL     1      -7.149  11.553  18.285  0.00  0.00    +0.000 A 
ATOM     28  C   UNL     1      -6.318  10.546  18.758  0.00  0.00    +0.000 A 
ATOM     29  C   UNL     1      -4.994  10.457  18.314  0.00  0.00    +0.000 A 
ENDBRANCH  23  24
ENDBRANCH   8  23
TORSDOF 4
ENDMDL
