MODEL 1
REMARK VINA RESULT:      -8.4      0.000      0.000
REMARK  Name = 
REMARK  8 active torsions:
REMARK  status: ('A' for Active; 'I' for Inactive)
REMARK    1  A    between atoms: C_1  and  N_2
REMARK    2  A    between atoms: C_4  and  C_5
REMARK    3  A    between atoms: C_12  and  C_13
REMARK    4  A    between atoms: C_13  and  C_14
REMARK    5  A    between atoms: C_14  and  N_15
REMARK    6  A    between atoms: C_16  and  C_18
REMARK    7  A    between atoms: C_19  and  C_20
REMARK    8  A    between atoms: N_28  and  C_29
REMARK                            x       y       z     vdW  Elec       q    Type
REMARK                         _______ _______ _______ _____ _____    ______ ____
ROOT
ATOM      1  N   UNL     1       2.774   6.389  18.748  0.00  0.00    +0.000 N 
ATOM      2  C   UNL     1       2.582   5.075  18.393  0.00  0.00    +0.000 C 
ATOM      3  O   UNL     1       1.775   4.768  17.519  0.00  0.00    +0.000 OA
ATOM      4  H   UNL     1       3.625   6.612  19.259  0.00  0.00    +0.000 HD
ENDROOT
BRANCH   2   5
ATOM      5  C   UNL     1       3.317   4.076  19.132  0.00  0.00    +0.000 A 
ATOM      6  C   UNL     1       4.669   3.825  19.348  0.00  0.00    +0.000 A 
ATOM      7  N   UNL     1       4.790   2.725  20.171  0.00  0.00    +0.000 NA
ATOM      8  N   UNL     1       3.585   2.270  20.456  0.00  0.00    +0.000 NA
ATOM      9  N   UNL     1       2.702   3.049  19.813  0.00  0.00    +0.000 N 
ATOM     10  C   UNL     1       1.290   2.779  19.951  0.00  0.00    +0.000 C 
BRANCH   6  11
ATOM     11  C   UNL     1       5.825   4.530  18.799  0.00  0.00    +0.000 C 
ATOM     12  O   UNL     1       6.605   5.143  19.529  0.00  0.00    +0.000 OA
ATOM     13  N   UNL     1       6.025   4.493  17.447  0.00  0.00    +0.000 N 
ATOM     14  C   UNL     1       7.122   5.045  16.676  0.00  0.00    +0.000 C 
ATOM     15  C   UNL     1       6.264   4.756  15.439  0.00  0.00    +0.000 C 
ATOM     16  C   UNL     1       5.410   3.829  16.318  0.00  0.00    +0.000 C 
ENDBRANCH   6  11
ENDBRANCH   2   5
BRANCH   1  17
ATOM     17  C   UNL     1       2.188   7.493  17.999  0.00  0.00    +0.000 C 
BRANCH  17  18
ATOM     18  C   UNL     1       2.275   8.848  18.707  0.00  0.00    +0.000 C 
BRANCH  18  24
ATOM     19  C   UNL     1       1.026   9.881  21.358  0.00  0.00    +0.000 C 
ATOM     20  N   UNL     1       0.425   9.958  20.049  0.00  0.00    +0.000 N 
ATOM     21  C   UNL     1      -0.787  10.531  19.792  0.00  0.00    +0.000 A 
ATOM     22  C   UNL     1      -1.004  10.338  18.446  0.00  0.00    +0.000 A 
ATOM     23  N   UNL     1       0.054   9.663  17.886  0.00  0.00    +0.000 NA
ATOM     24  C   UNL     1       0.926   9.474  18.861  0.00  0.00    +0.000 A 
BRANCH  22  25
ATOM     25  C   UNL     1      -2.205  10.737  17.740  0.00  0.00    +0.000 A 
ATOM     26  C   UNL     1      -3.222  11.445  18.398  0.00  0.00    +0.000 A 
ATOM     27  C   UNL     1      -4.413  11.753  17.741  0.00  0.00    +0.000 A 
ATOM     28  C   UNL     1      -4.596  11.361  16.416  0.00  0.00    +0.000 A 
ATOM     29  C   UNL     1      -3.580  10.683  15.743  0.00  0.00    +0.000 A 
ATOM     30  C   UNL     1      -2.384  10.379  16.400  0.00  0.00    +0.000 A 
ENDBRANCH  22  25
ENDBRANCH  18  24
ENDBRANCH  17  18
ENDBRANCH   1  17
TORSDOF 6
ENDMDL
MODEL 2
REMARK VINA RESULT:      -8.2      0.826      1.268
REMARK  Name = 
REMARK  8 active torsions:
REMARK  status: ('A' for Active; 'I' for Inactive)
REMARK    1  A    between atoms: C_1  and  N_2
REMARK    2  A    between atoms: C_4  and  C_5
REMARK    3  A    between atoms: C_12  and  C_13
REMARK    4  A    between atoms: C_13  and  C_14
REMARK    5  A    between atoms: C_14  and  N_15
REMARK    6  A    between atoms: C_16  and  C_18
REMARK    7  A    between atoms: C_19  and  C_20
REMARK    8  A    between atoms: N_28  and  C_29
REMARK                            x       y       z     vdW  Elec       q    Type
REMARK                         _______ _______ _______ _____ _____    ______ ____
ROOT
ATOM      1  N   UNL     1       2.568   6.739  19.907  0.00  0.00    +0.000 N 
ATOM      2  C   UNL     1       2.594   5.660  19.056  0.00  0.00    +0.000 C 
ATOM      3  O   UNL     1       2.033   5.703  17.964  0.00  0.00    +0.000 OA
ATOM      4  H   UNL     1       3.260   6.758  20.654  0.00  0.00    +0.000 HD
ENDROOT
BRANCH   2   5
ATOM      5  C   UNL     1       3.247   4.461  19.527  0.00  0.00    +0.000 A 
ATOM      6  C   UNL     1       4.561   4.002  19.516  0.00  0.00    +0.000 A 
ATOM      7  N   UNL     1       4.605   2.771  20.138  0.00  0.00    +0.000 NA
ATOM      8  N   UNL     1       3.384   2.436  20.510  0.00  0.00    +0.000 NA
ATOM      9  N   UNL     1       2.564   3.423  20.119  0.00  0.00    +0.000 N 
ATOM     10  C   UNL     1       1.152   3.321  20.405  0.00  0.00    +0.000 C 
BRANCH   6  11
ATOM     11  C   UNL     1       5.741   4.631  18.930  0.00  0.00    +0.000 C 
ATOM     12  O   UNL     1       6.594   5.170  19.637  0.00  0.00    +0.000 OA
ATOM     13  N   UNL     1       5.881   4.609  17.570  0.00  0.00    +0.000 N 
ATOM     14  C   UNL     1       6.982   5.094  16.762  0.00  0.00    +0.000 C 
ATOM     15  C   UNL     1       6.054   4.895  15.559  0.00  0.00    +0.000 C 
ATOM     16  C   UNL     1       5.172   4.015  16.458  0.00  0.00    +0.000 C 
ENDBRANCH   6  11
ENDBRANCH   2   5
BRANCH   1  17
ATOM     17  C   UNL     1       2.052   8.040  19.501  0.00  0.00    +0.000 C 
BRANCH  17  18
ATOM     18  C   UNL     1       1.212   8.743  20.572  0.00  0.00    +0.000 C 
BRANCH  18  24
ATOM     19  C   UNL     1       1.277  11.813  21.044  0.00  0.00    +0.000 C 
ATOM     20  N   UNL     1       0.372  11.106  20.170  0.00  0.00    +0.000 N 
ATOM     21  C   UNL     1      -0.579  11.709  19.399  0.00  0.00    +0.000 A 
ATOM     22  C   UNL     1      -1.249  10.681  18.776  0.00  0.00    +0.000 A 
ATOM     23  N   UNL     1      -0.720   9.470  19.154  0.00  0.00    +0.000 NA
ATOM     24  C   UNL     1       0.284   9.748  19.968  0.00  0.00    +0.000 A 
BRANCH  22  25
ATOM     25  C   UNL     1      -2.388  10.854  17.897  0.00  0.00    +0.000 A 
ATOM     26  C   UNL     1      -2.317  10.477  16.548  0.00  0.00    +0.000 A 
ATOM     27  C   UNL     1      -3.384  10.722  15.684  0.00  0.00    +0.000 A 
ATOM     28  C   UNL     1      -4.536  11.343  16.163  0.00  0.00    +0.000 A 
ATOM     29  C   UNL     1      -4.630  11.696  17.509  0.00  0.00    +0.000 A 
ATOM     30  C   UNL     1      -3.562  11.444  18.377  0.00  0.00    +0.000 A 
ENDBRANCH  22  25
ENDBRANCH  18  24
ENDBRANCH  17  18
ENDBRANCH   1  17
TORSDOF 6
ENDMDL
MODEL 3
REMARK VINA RESULT:      -8.2      3.245      5.486
REMARK  Name = 
REMARK  8 active torsions:
REMARK  status: ('A' for Active; 'I' for Inactive)
REMARK    1  A    between atoms: C_1  and  N_2
REMARK    2  A    between atoms: C_4  and  C_5
REMARK    3  A    between atoms: C_12  and  C_13
REMARK    4  A    between atoms: C_13  and  C_14
REMARK    5  A    between atoms: C_14  and  N_15
REMARK    6  A    between atoms: C_16  and  C_18
REMARK    7  A    between atoms: C_19  and  C_20
REMARK    8  A    between atoms: N_28  and  C_29
REMARK                            x       y       z     vdW  Elec       q    Type
REMARK                         _______ _______ _______ _____ _____    ______ ____
ROOT
ATOM      1  N   UNL     1       4.814   2.692  17.288  0.00  0.00    +0.000 N 
ATOM      2  C   UNL     1       4.612   3.779  16.470  0.00  0.00    +0.000 C 
ATOM      3  O   UNL     1       3.491   4.258  16.322  0.00  0.00    +0.000 OA
ATOM      4  H   UNL     1       5.768   2.511  17.592  0.00  0.00    +0.000 HD
ENDROOT
BRANCH   2   5
ATOM      5  C   UNL     1       5.756   4.286  15.750  0.00  0.00    +0.000 A 
ATOM      6  C   UNL     1       6.947   4.901  16.125  0.00  0.00    +0.000 A 
ATOM      7  N   UNL     1       7.691   5.155  14.993  0.00  0.00    +0.000 NA
ATOM      8  N   UNL     1       7.012   4.751  13.936  0.00  0.00    +0.000 NA
ATOM      9  N   UNL     1       5.842   4.264  14.376  0.00  0.00    +0.000 N 
ATOM     10  C   UNL     1       4.892   3.741  13.423  0.00  0.00    +0.000 C 
BRANCH   6  11
ATOM     11  C   UNL     1       7.391   5.286  17.463  0.00  0.00    +0.000 C 
ATOM     12  O   UNL     1       7.476   4.457  18.370  0.00  0.00    +0.000 OA
ATOM     13  N   UNL     1       7.714   6.595  17.687  0.00  0.00    +0.000 N 
ATOM     14  C   UNL     1       8.242   7.207  18.891  0.00  0.00    +0.000 C 
ATOM     15  C   UNL     1       7.940   8.550  18.219  0.00  0.00    +0.000 C 
ATOM     16  C   UNL     1       7.830   7.794  16.886  0.00  0.00    +0.000 C 
ENDBRANCH   6  11
ENDBRANCH   2   5
BRANCH   1  17
ATOM     17  C   UNL     1       3.771   2.168  18.160  0.00  0.00    +0.000 C 
BRANCH  17  18
ATOM     18  C   UNL     1       3.892   2.613  19.620  0.00  0.00    +0.000 C 
BRANCH  18  24
ATOM     19  C   UNL     1       1.598   2.828  21.706  0.00  0.00    +0.000 C 
ATOM     20  N   UNL     1       2.080   3.892  20.859  0.00  0.00    +0.000 N 
ATOM     21  C   UNL     1       1.599   5.170  20.880  0.00  0.00    +0.000 A 
ATOM     22  C   UNL     1       2.284   5.835  19.889  0.00  0.00    +0.000 A 
ATOM     23  N   UNL     1       3.170   4.985  19.271  0.00  0.00    +0.000 NA
ATOM     24  C   UNL     1       3.061   3.825  19.895  0.00  0.00    +0.000 A 
BRANCH  22  25
ATOM     25  C   UNL     1       2.054   7.216  19.514  0.00  0.00    +0.000 A 
ATOM     26  C   UNL     1       1.457   8.113  20.411  0.00  0.00    +0.000 A 
ATOM     27  C   UNL     1       1.159   9.418  20.019  0.00  0.00    +0.000 A 
ATOM     28  C   UNL     1       1.463   9.840  18.726  0.00  0.00    +0.000 A 
ATOM     29  C   UNL     1       2.084   8.965  17.835  0.00  0.00    +0.000 A 
ATOM     30  C   UNL     1       2.387   7.659  18.230  0.00  0.00    +0.000 A 
ENDBRANCH  22  25
ENDBRANCH  18  24
ENDBRANCH  17  18
ENDBRANCH   1  17
TORSDOF 6
ENDMDL
MODEL 4
REMARK VINA RESULT:      -8.1      1.117      1.146
REMARK  Name = 
REMARK  8 active torsions:
REMARK  status: ('A' for Active; 'I' for Inactive)
REMARK    1  A    between atoms: C_1  and  N_2
REMARK    2  A    between atoms: C_4  and  C_5
REMARK    3  A    between atoms: C_12  and  C_13
REMARK    4  A    between atoms: C_13  and  C_14
REMARK    5  A    between atoms: C_14  and  N_15
REMARK    6  A    between atoms: C_16  and  C_18
REMARK    7  A    between atoms: C_19  and  C_20
REMARK    8  A    between atoms: N_28  and  C_29
REMARK                            x       y       z     vdW  Elec       q    Type
REMARK                         _______ _______ _______ _____ _____    ______ ____
ROOT
ATOM      1  N   UNL     1       2.577   6.315  19.139  0.00  0.00    +0.000 N 
ATOM      2  C   UNL     1       2.540   5.107  19.795  0.00  0.00    +0.000 C 
ATOM      3  O   UNL     1       2.258   5.045  20.989  0.00  0.00    +0.000 OA
ATOM      4  H   UNL     1       2.539   6.292  18.123  0.00  0.00    +0.000 HD
ENDROOT
BRANCH   2   5
ATOM      5  C   UNL     1       2.907   3.933  19.040  0.00  0.00    +0.000 A 
ATOM      6  C   UNL     1       4.089   3.480  18.461  0.00  0.00    +0.000 A 
ATOM      7  N   UNL     1       3.854   2.255  17.872  0.00  0.00    +0.000 NA
ATOM      8  N   UNL     1       2.583   1.939  18.037  0.00  0.00    +0.000 NA
ATOM      9  N   UNL     1       2.004   2.950  18.702  0.00  0.00    +0.000 N 
ATOM     10  C   UNL     1       0.599   2.869  19.027  0.00  0.00    +0.000 C 
BRANCH   6  11
ATOM     11  C   UNL     1       5.389   4.144  18.404  0.00  0.00    +0.000 C 
ATOM     12  O   UNL     1       5.966   4.508  19.430  0.00  0.00    +0.000 OA
ATOM     13  N   UNL     1       5.956   4.356  17.178  0.00  0.00    +0.000 N 
ATOM     14  C   UNL     1       7.253   4.922  16.862  0.00  0.00    +0.000 C 
ATOM     15  C   UNL     1       6.760   4.984  15.413  0.00  0.00    +0.000 C 
ATOM     16  C   UNL     1       5.646   4.003  15.809  0.00  0.00    +0.000 C 
ENDBRANCH   6  11
ENDBRANCH   2   5
BRANCH   1  17
ATOM     17  C   UNL     1       2.109   7.551  19.754  0.00  0.00    +0.000 C 
BRANCH  17  18
ATOM     18  C   UNL     1       2.077   8.751  18.803  0.00  0.00    +0.000 C 
BRANCH  18  24
ATOM     19  C   UNL     1       1.019  10.268  21.300  0.00  0.00    +0.000 C 
ATOM     20  N   UNL     1       0.369  10.190  20.014  0.00  0.00    +0.000 N 
ATOM     21  C   UNL     1      -0.810  10.807  19.709  0.00  0.00    +0.000 A 
ATOM     22  C   UNL     1      -1.097  10.428  18.418  0.00  0.00    +0.000 A 
ATOM     23  N   UNL     1      -0.114   9.597  17.936  0.00  0.00    +0.000 NA
ATOM     24  C   UNL     1       0.783   9.494  18.901  0.00  0.00    +0.000 A 
BRANCH  22  25
ATOM     25  C   UNL     1      -2.296  10.805  17.697  0.00  0.00    +0.000 A 
ATOM     26  C   UNL     1      -3.341  11.480  18.345  0.00  0.00    +0.000 A 
ATOM     27  C   UNL     1      -4.528  11.766  17.672  0.00  0.00    +0.000 A 
ATOM     28  C   UNL     1      -4.680  11.384  16.340  0.00  0.00    +0.000 A 
ATOM     29  C   UNL     1      -3.637  10.739  15.677  0.00  0.00    +0.000 A 
ATOM     30  C   UNL     1      -2.445  10.457  16.350  0.00  0.00    +0.000 A 
ENDBRANCH  22  25
ENDBRANCH  18  24
ENDBRANCH  17  18
ENDBRANCH   1  17
TORSDOF 6
ENDMDL
MODEL 5
REMARK VINA RESULT:      -8.1      2.690      3.775
REMARK  Name = 
REMARK  8 active torsions:
REMARK  status: ('A' for Active; 'I' for Inactive)
REMARK    1  A    between atoms: C_1  and  N_2
REMARK    2  A    between atoms: C_4  and  C_5
REMARK    3  A    between atoms: C_12  and  C_13
REMARK    4  A    between atoms: C_13  and  C_14
REMARK    5  A    between atoms: C_14  and  N_15
REMARK    6  A    between atoms: C_16  and  C_18
REMARK    7  A    between atoms: C_19  and  C_20
REMARK    8  A    between atoms: N_28  and  C_29
REMARK                            x       y       z     vdW  Elec       q    Type
REMARK                         _______ _______ _______ _____ _____    ______ ____
ROOT
ATOM      1  N   UNL     1       2.073   6.640  20.607  0.00  0.00    +0.000 N 
ATOM      2  C   UNL     1       2.557   5.979  19.503  0.00  0.00    +0.000 C 
ATOM      3  O   UNL     1       2.379   6.423  18.372  0.00  0.00    +0.000 OA
ATOM      4  H   UNL     1       2.473   6.393  21.509  0.00  0.00    +0.000 HD
ENDROOT
BRANCH   2   5
ATOM      5  C   UNL     1       3.222   4.717  19.727  0.00  0.00    +0.000 A 
ATOM      6  C   UNL     1       4.520   4.254  19.533  0.00  0.00    +0.000 A 
ATOM      7  N   UNL     1       4.591   2.942  19.953  0.00  0.00    +0.000 NA
ATOM      8  N   UNL     1       3.399   2.564  20.375  0.00  0.00    +0.000 NA
ATOM      9  N   UNL     1       2.569   3.606  20.211  0.00  0.00    +0.000 N 
ATOM     10  C   UNL     1       1.184   3.473  20.599  0.00  0.00    +0.000 C 
BRANCH   6  11
ATOM     11  C   UNL     1       5.660   4.957  18.950  0.00  0.00    +0.000 C 
ATOM     12  O   UNL     1       6.561   5.410  19.658  0.00  0.00    +0.000 OA
ATOM     13  N   UNL     1       5.707   5.102  17.591  0.00  0.00    +0.000 N 
ATOM     14  C   UNL     1       6.753   5.689  16.776  0.00  0.00    +0.000 C 
ATOM     15  C   UNL     1       5.744   5.634  15.624  0.00  0.00    +0.000 C 
ATOM     16  C   UNL     1       4.922   4.646  16.465  0.00  0.00    +0.000 C 
ENDBRANCH   6  11
ENDBRANCH   2   5
BRANCH   1  17
ATOM     17  C   UNL     1       1.496   7.976  20.524  0.00  0.00    +0.000 C 
BRANCH  17  18
ATOM     18  C   UNL     1       1.499   8.743  21.850  0.00  0.00    +0.000 C 
BRANCH  18  24
ATOM     19  C   UNL     1       1.159  10.559  19.352  0.00  0.00    +0.000 C 
ATOM     20  N   UNL     1       0.510  10.738  20.628  0.00  0.00    +0.000 N 
ATOM     21  C   UNL     1      -0.378  11.738  20.905  0.00  0.00    +0.000 A 
ATOM     22  C   UNL     1      -0.704  11.579  22.232  0.00  0.00    +0.000 A 
ATOM     23  N   UNL     1      -0.032  10.503  22.762  0.00  0.00    +0.000 NA
ATOM     24  C   UNL     1       0.669   9.984  21.768  0.00  0.00    +0.000 A 
BRANCH  22  25
ATOM     25  C   UNL     1      -1.582  12.460  22.976  0.00  0.00    +0.000 A 
ATOM     26  C   UNL     1      -1.151  13.735  23.371  0.00  0.00    +0.000 A 
ATOM     27  C   UNL     1      -1.965  14.547  24.160  0.00  0.00    +0.000 A 
ATOM     28  C   UNL     1      -3.223  14.095  24.555  0.00  0.00    +0.000 A 
ATOM     29  C   UNL     1      -3.673  12.841  24.143  0.00  0.00    +0.000 A 
ATOM     30  C   UNL     1      -2.859  12.028  23.348  0.00  0.00    +0.000 A 
ENDBRANCH  22  25
ENDBRANCH  18  24
ENDBRANCH  17  18
ENDBRANCH   1  17
TORSDOF 6
ENDMDL
MODEL 6
REMARK VINA RESULT:      -8.0      2.923      3.429
REMARK  Name = 
REMARK  8 active torsions:
REMARK  status: ('A' for Active; 'I' for Inactive)
REMARK    1  A    between atoms: C_1  and  N_2
REMARK    2  A    between atoms: C_4  and  C_5
REMARK    3  A    between atoms: C_12  and  C_13
REMARK    4  A    between atoms: C_13  and  C_14
REMARK    5  A    between atoms: C_14  and  N_15
REMARK    6  A    between atoms: C_16  and  C_18
REMARK    7  A    between atoms: C_19  and  C_20
REMARK    8  A    between atoms: N_28  and  C_29
REMARK                            x       y       z     vdW  Elec       q    Type
REMARK                         _______ _______ _______ _____ _____    ______ ____
ROOT
ATOM      1  N   UNL     1       2.141   6.765  20.376  0.00  0.00    +0.000 N 
ATOM      2  C   UNL     1       2.566   6.021  19.302  0.00  0.00    +0.000 C 
ATOM      3  O   UNL     1       2.408   6.424  18.152  0.00  0.00    +0.000 OA
ATOM      4  H   UNL     1       2.532   6.532  21.287  0.00  0.00    +0.000 HD
ENDROOT
BRANCH   2   5
ATOM      5  C   UNL     1       3.143   4.728  19.580  0.00  0.00    +0.000 A 
ATOM      6  C   UNL     1       4.419   4.184  19.456  0.00  0.00    +0.000 A 
ATOM      7  N   UNL     1       4.391   2.880  19.903  0.00  0.00    +0.000 NA
ATOM      8  N   UNL     1       3.161   2.582  20.275  0.00  0.00    +0.000 NA
ATOM      9  N   UNL     1       2.404   3.667  20.054  0.00  0.00    +0.000 N 
ATOM     10  C   UNL     1       0.997   3.624  20.379  0.00  0.00    +0.000 C 
BRANCH   6  11
ATOM     11  C   UNL     1       5.624   4.806  18.914  0.00  0.00    +0.000 C 
ATOM     12  O   UNL     1       6.511   5.232  19.654  0.00  0.00    +0.000 OA
ATOM     13  N   UNL     1       5.748   4.905  17.555  0.00  0.00    +0.000 N 
ATOM     14  C   UNL     1       6.865   5.408  16.779  0.00  0.00    +0.000 C 
ATOM     15  C   UNL     1       5.915   5.371  15.578  0.00  0.00    +0.000 C 
ATOM     16  C   UNL     1       4.998   4.455  16.403  0.00  0.00    +0.000 C 
ENDBRANCH   6  11
ENDBRANCH   2   5
BRANCH   1  17
ATOM     17  C   UNL     1       1.658   8.133  20.236  0.00  0.00    +0.000 C 
BRANCH  17  18
ATOM     18  C   UNL     1       1.117   8.744  21.532  0.00  0.00    +0.000 C 
BRANCH  18  24
ATOM     19  C   UNL     1      -0.998  10.321  23.174  0.00  0.00    +0.000 C 
ATOM     20  N   UNL     1      -0.160  10.857  22.128  0.00  0.00    +0.000 N 
ATOM     21  C   UNL     1      -0.169  12.163  21.730  0.00  0.00    +0.000 A 
ATOM     22  C   UNL     1       0.723  12.232  20.684  0.00  0.00    +0.000 A 
ATOM     23  N   UNL     1       1.271  10.994  20.444  0.00  0.00    +0.000 NA
ATOM     24  C   UNL     1       0.754  10.183  21.351  0.00  0.00    +0.000 A 
BRANCH  22  25
ATOM     25  C   UNL     1       0.995  13.427  19.911  0.00  0.00    +0.000 A 
ATOM     26  C   UNL     1       2.164  13.535  19.144  0.00  0.00    +0.000 A 
ATOM     27  C   UNL     1       2.465  14.718  18.469  0.00  0.00    +0.000 A 
ATOM     28  C   UNL     1       1.595  15.803  18.549  0.00  0.00    +0.000 A 
ATOM     29  C   UNL     1       0.414  15.697  19.285  0.00  0.00    +0.000 A 
ATOM     30  C   UNL     1       0.110  14.510  19.957  0.00  0.00    +0.000 A 
ENDBRANCH  22  25
ENDBRANCH  18  24
ENDBRANCH  17  18
ENDBRANCH   1  17
TORSDOF 6
ENDMDL
MODEL 7
REMARK VINA RESULT:      -7.9      1.424      3.445
REMARK  Name = 
REMARK  8 active torsions:
REMARK  status: ('A' for Active; 'I' for Inactive)
REMARK    1  A    between atoms: C_1  and  N_2
REMARK    2  A    between atoms: C_4  and  C_5
REMARK    3  A    between atoms: C_12  and  C_13
REMARK    4  A    between atoms: C_13  and  C_14
REMARK    5  A    between atoms: C_14  and  N_15
REMARK    6  A    between atoms: C_16  and  C_18
REMARK    7  A    between atoms: C_19  and  C_20
REMARK    8  A    between atoms: N_28  and  C_29
REMARK                            x       y       z     vdW  Elec       q    Type
REMARK                         _______ _______ _______ _____ _____    ______ ____
ROOT
ATOM      1  N   UNL     1       3.020   7.284  18.046  0.00  0.00    +0.000 N 
ATOM      2  C   UNL     1       4.101   6.669  17.460  0.00  0.00    +0.000 C 
ATOM      3  O   UNL     1       4.514   7.031  16.361  0.00  0.00    +0.000 OA
ATOM      4  H   UNL     1       2.892   7.144  19.046  0.00  0.00    +0.000 HD
ENDROOT
BRANCH   2   5
ATOM      5  C   UNL     1       4.682   5.547  18.158  0.00  0.00    +0.000 A 
ATOM      6  C   UNL     1       4.179   4.359  18.679  0.00  0.00    +0.000 A 
ATOM      7  N   UNL     1       5.219   3.640  19.230  0.00  0.00    +0.000 NA
ATOM      8  N   UNL     1       6.334   4.332  19.097  0.00  0.00    +0.000 NA
ATOM      9  N   UNL     1       6.017   5.486  18.490  0.00  0.00    +0.000 N 
ATOM     10  C   UNL     1       7.059   6.446  18.210  0.00  0.00    +0.000 C 
BRANCH   6  11
ATOM     11  C   UNL     1       2.794   3.896  18.717  0.00  0.00    +0.000 C 
ATOM     12  O   UNL     1       2.056   4.010  17.737  0.00  0.00    +0.000 OA
ATOM     13  N   UNL     1       2.331   3.329  19.872  0.00  0.00    +0.000 N 
ATOM     14  C   UNL     1       1.035   2.733  20.135  0.00  0.00    +0.000 C 
ATOM     15  C   UNL     1       1.447   2.739  21.611  0.00  0.00    +0.000 C 
ATOM     16  C   UNL     1       2.896   2.949  21.148  0.00  0.00    +0.000 C 
ENDBRANCH   6  11
ENDBRANCH   2   5
BRANCH   1  17
ATOM     17  C   UNL     1       2.426   8.500  17.505  0.00  0.00    +0.000 C 
BRANCH  17  18
ATOM     18  C   UNL     1       2.289   9.637  18.521  0.00  0.00    +0.000 C 
BRANCH  18  24
ATOM     19  C   UNL     1       0.967   9.782  21.329  0.00  0.00    +0.000 C 
ATOM     20  N   UNL     1       0.317  10.046  20.068  0.00  0.00    +0.000 N 
ATOM     21  C   UNL     1      -0.988  10.429  19.941  0.00  0.00    +0.000 A 
ATOM     22  C   UNL     1      -1.213  10.515  18.586  0.00  0.00    +0.000 A 
ATOM     23  N   UNL     1      -0.070  10.194  17.893  0.00  0.00    +0.000 NA
ATOM     24  C   UNL     1       0.856   9.950  18.805  0.00  0.00    +0.000 A 
BRANCH  22  25
ATOM     25  C   UNL     1      -2.490  10.837  17.982  0.00  0.00    +0.000 A 
ATOM     26  C   UNL     1      -2.771  10.468  16.659  0.00  0.00    +0.000 A 
ATOM     27  C   UNL     1      -3.966  10.853  16.052  0.00  0.00    +0.000 A 
ATOM     28  C   UNL     1      -4.896  11.607  16.766  0.00  0.00    +0.000 A 
ATOM     29  C   UNL     1      -4.640  11.954  18.093  0.00  0.00    +0.000 A 
ATOM     30  C   UNL     1      -3.444  11.563  18.703  0.00  0.00    +0.000 A 
ENDBRANCH  22  25
ENDBRANCH  18  24
ENDBRANCH  17  18
ENDBRANCH   1  17
TORSDOF 6
ENDMDL
MODEL 8
REMARK VINA RESULT:      -7.8      2.591      3.786
REMARK  Name = 
REMARK  8 active torsions:
REMARK  status: ('A' for Active; 'I' for Inactive)
REMARK    1  A    between atoms: C_1  and  N_2
REMARK    2  A    between atoms: C_4  and  C_5
REMARK    3  A    between atoms: C_12  and  C_13
REMARK    4  A    between atoms: C_13  and  C_14
REMARK    5  A    between atoms: C_14  and  N_15
REMARK    6  A    between atoms: C_16  and  C_18
REMARK    7  A    between atoms: C_19  and  C_20
REMARK    8  A    between atoms: N_28  and  C_29
REMARK                            x       y       z     vdW  Elec       q    Type
REMARK                         _______ _______ _______ _____ _____    ______ ____
ROOT
ATOM      1  N   UNL     1       2.255   6.784  20.461  0.00  0.00    +0.000 N 
ATOM      2  C   UNL     1       2.539   6.043  19.338  0.00  0.00    +0.000 C 
ATOM      3  O   UNL     1       2.297   6.479  18.216  0.00  0.00    +0.000 OA
ATOM      4  H   UNL     1       2.716   6.511  21.326  0.00  0.00    +0.000 HD
ENDROOT
BRANCH   2   5
ATOM      5  C   UNL     1       3.069   4.715  19.539  0.00  0.00    +0.000 A 
ATOM      6  C   UNL     1       4.328   4.139  19.395  0.00  0.00    +0.000 A 
ATOM      7  N   UNL     1       4.251   2.810  19.757  0.00  0.00    +0.000 NA
ATOM      8  N   UNL     1       3.007   2.530  20.094  0.00  0.00    +0.000 NA
ATOM      9  N   UNL     1       2.288   3.652  19.935  0.00  0.00    +0.000 N 
ATOM     10  C   UNL     1       0.877   3.636  20.240  0.00  0.00    +0.000 C 
BRANCH   6  11
ATOM     11  C   UNL     1       5.560   4.753  18.908  0.00  0.00    +0.000 C 
ATOM     12  O   UNL     1       6.418   5.167  19.688  0.00  0.00    +0.000 OA
ATOM     13  N   UNL     1       5.743   4.858  17.557  0.00  0.00    +0.000 N 
ATOM     14  C   UNL     1       6.896   5.356  16.832  0.00  0.00    +0.000 C 
ATOM     15  C   UNL     1       5.999   5.333  15.591  0.00  0.00    +0.000 C 
ATOM     16  C   UNL     1       5.039   4.421  16.371  0.00  0.00    +0.000 C 
ENDBRANCH   6  11
ENDBRANCH   2   5
BRANCH   1  17
ATOM     17  C   UNL     1       1.836   8.178  20.389  0.00  0.00    +0.000 C 
BRANCH  17  18
ATOM     18  C   UNL     1       0.487   8.463  21.057  0.00  0.00    +0.000 C 
BRANCH  18  24
ATOM     19  C   UNL     1      -0.497   9.964  18.520  0.00  0.00    +0.000 C 
ATOM     20  N   UNL     1      -0.345  10.531  19.839  0.00  0.00    +0.000 N 
ATOM     21  C   UNL     1      -0.644  11.824  20.158  0.00  0.00    +0.000 A 
ATOM     22  C   UNL     1      -0.301  11.961  21.484  0.00  0.00    +0.000 A 
ATOM     23  N   UNL     1       0.197  10.776  21.971  0.00  0.00    +0.000 NA
ATOM     24  C   UNL     1       0.128   9.912  20.973  0.00  0.00    +0.000 A 
BRANCH  22  25
ATOM     25  C   UNL     1      -0.396  13.196  22.236  0.00  0.00    +0.000 A 
ATOM     26  C   UNL     1      -1.316  13.328  23.286  0.00  0.00    +0.000 A 
ATOM     27  C   UNL     1      -1.465  14.544  23.952  0.00  0.00    +0.000 A 
ATOM     28  C   UNL     1      -0.690  15.640  23.577  0.00  0.00    +0.000 A 
ATOM     29  C   UNL     1       0.249  15.512  22.554  0.00  0.00    +0.000 A 
ATOM     30  C   UNL     1       0.403  14.291  21.891  0.00  0.00    +0.000 A 
ENDBRANCH  22  25
ENDBRANCH  18  24
ENDBRANCH  17  18
ENDBRANCH   1  17
TORSDOF 6
ENDMDL
MODEL 9
REMARK VINA RESULT:      -7.8      2.601      3.444
REMARK  Name = 
REMARK  8 active torsions:
REMARK  status: ('A' for Active; 'I' for Inactive)
REMARK    1  A    between atoms: C_1  and  N_2
REMARK    2  A    between atoms: C_4  and  C_5
REMARK    3  A    between atoms: C_12  and  C_13
REMARK    4  A    between atoms: C_13  and  C_14
REMARK    5  A    between atoms: C_14  and  N_15
REMARK    6  A    between atoms: C_16  and  C_18
REMARK    7  A    between atoms: C_19  and  C_20
REMARK    8  A    between atoms: N_28  and  C_29
REMARK                            x       y       z     vdW  Elec       q    Type
REMARK                         _______ _______ _______ _____ _____    ______ ____
ROOT
ATOM      1  N   UNL     1       2.608   7.567  18.216  0.00  0.00    +0.000 N 
ATOM      2  C   UNL     1       2.736   6.315  18.767  0.00  0.00    +0.000 C 
ATOM      3  O   UNL     1       2.497   6.120  19.957  0.00  0.00    +0.000 OA
ATOM      4  H   UNL     1       2.545   7.624  17.202  0.00  0.00    +0.000 HD
ENDROOT
BRANCH   2   5
ATOM      5  C   UNL     1       3.221   5.261  17.908  0.00  0.00    +0.000 A 
ATOM      6  C   UNL     1       4.334   5.111  17.086  0.00  0.00    +0.000 A 
ATOM      7  N   UNL     1       4.295   3.859  16.509  0.00  0.00    +0.000 NA
ATOM      8  N   UNL     1       3.205   3.236  16.914  0.00  0.00    +0.000 NA
ATOM      9  N   UNL     1       2.542   4.078  17.722  0.00  0.00    +0.000 N 
ATOM     10  C   UNL     1       1.299   3.649  18.320  0.00  0.00    +0.000 C 
BRANCH   6  11
ATOM     11  C   UNL     1       5.386   6.081  16.793  0.00  0.00    +0.000 C 
ATOM     12  O   UNL     1       5.369   6.749  15.758  0.00  0.00    +0.000 OA
ATOM     13  N   UNL     1       6.398   6.234  17.700  0.00  0.00    +0.000 N 
ATOM     14  C   UNL     1       7.506   7.169  17.676  0.00  0.00    +0.000 C 
ATOM     15  C   UNL     1       8.097   6.342  18.822  0.00  0.00    +0.000 C 
ATOM     16  C   UNL     1       6.704   5.724  19.019  0.00  0.00    +0.000 C 
ENDBRANCH   6  11
ENDBRANCH   2   5
BRANCH   1  17
ATOM     17  C   UNL     1       2.012   8.682  18.942  0.00  0.00    +0.000 C 
BRANCH  17  18
ATOM     18  C   UNL     1       1.030   9.516  18.115  0.00  0.00    +0.000 C 
BRANCH  18  24
ATOM     19  C   UNL     1       2.140  12.407  18.359  0.00  0.00    +0.000 C 
ATOM     20  N   UNL     1       0.934  11.905  18.971  0.00  0.00    +0.000 N 
ATOM     21  C   UNL     1       0.089  12.658  19.736  0.00  0.00    +0.000 A 
ATOM     22  C   UNL     1      -0.888  11.788  20.164  0.00  0.00    +0.000 A 
ATOM     23  N   UNL     1      -0.650  10.526  19.672  0.00  0.00    +0.000 NA
ATOM     24  C   UNL     1       0.434  10.623  18.923  0.00  0.00    +0.000 A 
BRANCH  22  25
ATOM     25  C   UNL     1      -1.973  12.143  21.056  0.00  0.00    +0.000 A 
ATOM     26  C   UNL     1      -3.129  12.768  20.565  0.00  0.00    +0.000 A 
ATOM     27  C   UNL     1      -4.135  13.187  21.437  0.00  0.00    +0.000 A 
ATOM     28  C   UNL     1      -3.997  12.978  22.807  0.00  0.00    +0.000 A 
ATOM     29  C   UNL     1      -2.865  12.331  23.303  0.00  0.00    +0.000 A 
ATOM     30  C   UNL     1      -1.859  11.907  22.430  0.00  0.00    +0.000 A 
ENDBRANCH  22  25
ENDBRANCH  18  24
ENDBRANCH  17  18
ENDBRANCH   1  17
TORSDOF 6
ENDMDL
