MODEL 1
REMARK VINA RESULT:      -7.9      0.000      0.000
REMARK  Name = 
REMARK  8 active torsions:
REMARK  status: ('A' for Active; 'I' for Inactive)
REMARK    1  A    between atoms: C_1  and  O_2
REMARK    2  A    between atoms: O_2  and  C_3
REMARK    3  A    between atoms: C_8  and  C_9
REMARK    4  A    between atoms: C_9  and  N_10
REMARK    5  A    between atoms: N_14  and  C_15
REMARK    6  A    between atoms: C_15  and  C_16
REMARK    7  A    between atoms: C_21  and  S_22
REMARK    8  A    between atoms: S_22  and  C_23
REMARK                            x       y       z     vdW  Elec       q    Type
REMARK                         _______ _______ _______ _____ _____    ______ ____
ROOT
ATOM      1  N   UNL     1       2.238   7.554  19.361  0.00  0.00    +0.000 N 
ATOM      2  C   UNL     1       1.459   8.573  19.903  0.00  0.00    +0.000 A 
ATOM      3  N   UNL     1       1.244   9.642  19.118  0.00  0.00    +0.000 NA
ATOM      4  C   UNL     1       0.461  10.675  19.530  0.00  0.00    +0.000 A 
ATOM      5  N   UNL     1       0.258  11.687  18.596  0.00  0.00    +0.000 N 
ATOM      6  C   UNL     1       0.008  10.636  20.854  0.00  0.00    +0.000 A 
ATOM      7  S   UNL     1      -0.869  11.783  21.797  0.00  0.00    +0.000 S 
ATOM      8  C   UNL     1      -0.924  10.763  23.155  0.00  0.00    +0.000 A 
ATOM      9  C   UNL     1      -0.264   9.577  22.924  0.00  0.00    +0.000 A 
ATOM     10  C   UNL     1       0.277   9.500  21.613  0.00  0.00    +0.000 A 
ATOM     11  N   UNL     1       0.986   8.449  21.140  0.00  0.00    +0.000 NA
ATOM     12  H   UNL     1       3.182   7.913  19.276  0.00  0.00    +0.000 HD
ATOM     13  H   UNL     1       0.590  11.359  17.692  0.00  0.00    +0.000 HD
ENDROOT
BRANCH   1  14
ATOM     14  C   UNL     1       2.189   6.263  20.043  0.00  0.00    +0.000 C 
BRANCH  14  20
ATOM     15  C   UNL     1       3.396   5.084  18.093  0.00  0.00    +0.000 A 
ATOM     16  C   UNL     1       3.545   3.945  17.284  0.00  0.00    +0.000 A 
ATOM     17  C   UNL     1       2.621   2.900  17.337  0.00  0.00    +0.000 A 
ATOM     18  C   UNL     1       1.554   2.970  18.224  0.00  0.00    +0.000 A 
ATOM     19  C   UNL     1       1.435   4.068  19.072  0.00  0.00    +0.000 A 
ATOM     20  C   UNL     1       2.352   5.141  19.030  0.00  0.00    +0.000 A 
BRANCH  15  22
ATOM     21  C   UNL     1       5.619   5.793  17.776  0.00  0.00    +0.000 C 
ATOM     22  O   UNL     1       4.258   6.151  18.023  0.00  0.00    +0.000 OA
ENDBRANCH  15  22
ENDBRANCH  14  20
ENDBRANCH   1  14
BRANCH   5  23
ATOM     23  C   UNL     1      -0.998  12.433  18.547  0.00  0.00    +0.000 C 
BRANCH  23  24
ATOM     24  C   UNL     1      -2.147  11.633  17.955  0.00  0.00    +0.000 A 
ATOM     25  C   UNL     1      -1.923  10.897  16.766  0.00  0.00    +0.000 A 
ATOM     26  C   UNL     1      -2.924  10.144  16.156  0.00  0.00    +0.000 A 
ATOM     27  C   UNL     1      -4.173  10.062  16.749  0.00  0.00    +0.000 A 
ATOM     28  C   UNL     1      -4.423  10.770  17.925  0.00  0.00    +0.000 A 
ATOM     29  C   UNL     1      -3.437  11.580  18.532  0.00  0.00    +0.000 A 
BRANCH  29  30
ATOM     30  S   UNL     1      -4.100  12.630  19.838  0.00  0.00    +0.000 S 
ATOM     31  C   UNL     1      -5.830  12.144  20.024  0.00  0.00    +0.000 C 
ENDBRANCH  29  30
ENDBRANCH  23  24
ENDBRANCH   5  23
TORSDOF 6
ENDMDL
MODEL 2
REMARK VINA RESULT:      -7.8      1.051      1.940
REMARK  Name = 
REMARK  8 active torsions:
REMARK  status: ('A' for Active; 'I' for Inactive)
REMARK    1  A    between atoms: C_1  and  O_2
REMARK    2  A    between atoms: O_2  and  C_3
REMARK    3  A    between atoms: C_8  and  C_9
REMARK    4  A    between atoms: C_9  and  N_10
REMARK    5  A    between atoms: N_14  and  C_15
REMARK    6  A    between atoms: C_15  and  C_16
REMARK    7  A    between atoms: C_21  and  S_22
REMARK    8  A    between atoms: S_22  and  C_23
REMARK                            x       y       z     vdW  Elec       q    Type
REMARK                         _______ _______ _______ _____ _____    ______ ____
ROOT
ATOM      1  N   UNL     1       2.507   7.958  18.195  0.00  0.00    +0.000 N 
ATOM      2  C   UNL     1       1.741   8.777  19.019  0.00  0.00    +0.000 A 
ATOM      3  N   UNL     1       1.346   9.950  18.497  0.00  0.00    +0.000 NA
ATOM      4  C   UNL     1       0.556  10.806  19.198  0.00  0.00    +0.000 A 
ATOM      5  N   UNL     1       0.157  11.953  18.517  0.00  0.00    +0.000 N 
ATOM      6  C   UNL     1       0.293  10.475  20.532  0.00  0.00    +0.000 A 
ATOM      7  S   UNL     1      -0.526  11.334  21.784  0.00  0.00    +0.000 S 
ATOM      8  C   UNL     1      -0.322  10.074  22.906  0.00  0.00    +0.000 A 
ATOM      9  C   UNL     1       0.381   9.022  22.366  0.00  0.00    +0.000 A 
ATOM     10  C   UNL     1       0.742   9.246  21.010  0.00  0.00    +0.000 A 
ATOM     11  N   UNL     1       1.451   8.376  20.255  0.00  0.00    +0.000 NA
ATOM     12  H   UNL     1       3.403   8.415  18.070  0.00  0.00    +0.000 HD
ATOM     13  H   UNL     1       0.384  11.835  17.532  0.00  0.00    +0.000 HD
ENDROOT
BRANCH   1  14
ATOM     14  C   UNL     1       2.643   6.562  18.606  0.00  0.00    +0.000 C 
BRANCH  14  20
ATOM     15  C   UNL     1       3.721   4.458  17.577  0.00  0.00    +0.000 A 
ATOM     16  C   UNL     1       4.575   3.892  16.617  0.00  0.00    +0.000 A 
ATOM     17  C   UNL     1       5.405   4.695  15.831  0.00  0.00    +0.000 A 
ATOM     18  C   UNL     1       5.364   6.075  15.977  0.00  0.00    +0.000 A 
ATOM     19  C   UNL     1       4.476   6.646  16.885  0.00  0.00    +0.000 A 
ATOM     20  C   UNL     1       3.635   5.854  17.697  0.00  0.00    +0.000 A 
BRANCH  15  22
ATOM     21  C   UNL     1       2.354   2.549  17.768  0.00  0.00    +0.000 C 
ATOM     22  O   UNL     1       2.935   3.691  18.402  0.00  0.00    +0.000 OA
ENDBRANCH  15  22
ENDBRANCH  14  20
ENDBRANCH   1  14
BRANCH   5  23
ATOM     23  C   UNL     1      -1.143  12.571  18.770  0.00  0.00    +0.000 C 
BRANCH  23  24
ATOM     24  C   UNL     1      -2.291  11.857  18.075  0.00  0.00    +0.000 A 
ATOM     25  C   UNL     1      -2.063  11.274  16.805  0.00  0.00    +0.000 A 
ATOM     26  C   UNL     1      -3.062  10.608  16.099  0.00  0.00    +0.000 A 
ATOM     27  C   UNL     1      -4.315  10.459  16.669  0.00  0.00    +0.000 A 
ATOM     28  C   UNL     1      -4.570  11.016  17.923  0.00  0.00    +0.000 A 
ATOM     29  C   UNL     1      -3.586  11.739  18.632  0.00  0.00    +0.000 A 
BRANCH  29  30
ATOM     30  S   UNL     1      -4.254  12.621  20.056  0.00  0.00    +0.000 S 
ATOM     31  C   UNL     1      -5.967  12.072  20.210  0.00  0.00    +0.000 C 
ENDBRANCH  29  30
ENDBRANCH  23  24
ENDBRANCH   5  23
TORSDOF 6
ENDMDL
MODEL 3
REMARK VINA RESULT:      -7.8      4.005      8.784
REMARK  Name = 
REMARK  8 active torsions:
REMARK  status: ('A' for Active; 'I' for Inactive)
REMARK    1  A    between atoms: C_1  and  O_2
REMARK    2  A    between atoms: O_2  and  C_3
REMARK    3  A    between atoms: C_8  and  C_9
REMARK    4  A    between atoms: C_9  and  N_10
REMARK    5  A    between atoms: N_14  and  C_15
REMARK    6  A    between atoms: C_15  and  C_16
REMARK    7  A    between atoms: C_21  and  S_22
REMARK    8  A    between atoms: S_22  and  C_23
REMARK                            x       y       z     vdW  Elec       q    Type
REMARK                         _______ _______ _______ _____ _____    ______ ____
ROOT
ATOM      1  N   UNL     1       1.672   8.037  20.343  0.00  0.00    +0.000 N 
ATOM      2  C   UNL     1       1.876   6.678  20.126  0.00  0.00    +0.000 A 
ATOM      3  N   UNL     1       2.197   6.313  18.873  0.00  0.00    +0.000 NA
ATOM      4  C   UNL     1       2.462   5.018  18.560  0.00  0.00    +0.000 A 
ATOM      5  N   UNL     1       2.854   4.783  17.244  0.00  0.00    +0.000 N 
ATOM      6  C   UNL     1       2.247   4.067  19.565  0.00  0.00    +0.000 A 
ATOM      7  S   UNL     1       2.324   2.345  19.546  0.00  0.00    +0.000 S 
ATOM      8  C   UNL     1       1.959   2.218  21.201  0.00  0.00    +0.000 A 
ATOM      9  C   UNL     1       1.749   3.454  21.769  0.00  0.00    +0.000 A 
ATOM     10  C   UNL     1       1.906   4.516  20.838  0.00  0.00    +0.000 A 
ATOM     11  N   UNL     1       1.737   5.825  21.138  0.00  0.00    +0.000 NA
ATOM     12  H   UNL     1       0.823   8.294  19.852  0.00  0.00    +0.000 HD
ATOM     13  H   UNL     1       3.056   5.679  16.807  0.00  0.00    +0.000 HD
ENDROOT
BRANCH   1  14
ATOM     14  C   UNL     1       1.672   8.483  21.734  0.00  0.00    +0.000 C 
BRANCH  14  20
ATOM     15  C   UNL     1       0.518  10.664  20.983  0.00  0.00    +0.000 A 
ATOM     16  C   UNL     1      -0.515  11.599  21.158  0.00  0.00    +0.000 A 
ATOM     17  C   UNL     1      -1.338  11.559  22.285  0.00  0.00    +0.000 A 
ATOM     18  C   UNL     1      -1.155  10.561  23.234  0.00  0.00    +0.000 A 
ATOM     19  C   UNL     1      -0.172   9.594  23.036  0.00  0.00    +0.000 A 
ATOM     20  C   UNL     1       0.677   9.621  21.909  0.00  0.00    +0.000 A 
BRANCH  15  22
ATOM     21  C   UNL     1       0.748  11.015  18.665  0.00  0.00    +0.000 C 
ATOM     22  O   UNL     1       1.377  10.712  19.912  0.00  0.00    +0.000 OA
ENDBRANCH  15  22
ENDBRANCH  14  20
ENDBRANCH   1  14
BRANCH   5  23
ATOM     23  C   UNL     1       3.800   3.719  16.913  0.00  0.00    +0.000 C 
BRANCH  23  24
ATOM     24  C   UNL     1       5.089   4.235  16.296  0.00  0.00    +0.000 A 
ATOM     25  C   UNL     1       5.329   3.999  14.920  0.00  0.00    +0.000 A 
ATOM     26  C   UNL     1       6.488   4.433  14.281  0.00  0.00    +0.000 A 
ATOM     27  C   UNL     1       7.425   5.165  14.989  0.00  0.00    +0.000 A 
ATOM     28  C   UNL     1       7.215   5.420  16.345  0.00  0.00    +0.000 A 
ATOM     29  C   UNL     1       6.071   4.946  17.025  0.00  0.00    +0.000 A 
BRANCH  29  30
ATOM     30  S   UNL     1       6.195   5.127  18.814  0.00  0.00    +0.000 S 
ATOM     31  C   UNL     1       7.806   5.884  19.118  0.00  0.00    +0.000 C 
ENDBRANCH  29  30
ENDBRANCH  23  24
ENDBRANCH   5  23
TORSDOF 6
ENDMDL
MODEL 4
REMARK VINA RESULT:      -7.7      1.124      1.350
REMARK  Name = 
REMARK  8 active torsions:
REMARK  status: ('A' for Active; 'I' for Inactive)
REMARK    1  A    between atoms: C_1  and  O_2
REMARK    2  A    between atoms: O_2  and  C_3
REMARK    3  A    between atoms: C_8  and  C_9
REMARK    4  A    between atoms: C_9  and  N_10
REMARK    5  A    between atoms: N_14  and  C_15
REMARK    6  A    between atoms: C_15  and  C_16
REMARK    7  A    between atoms: C_21  and  S_22
REMARK    8  A    between atoms: S_22  and  C_23
REMARK                            x       y       z     vdW  Elec       q    Type
REMARK                         _______ _______ _______ _____ _____    ______ ____
ROOT
ATOM      1  N   UNL     1       2.726   7.311  18.988  0.00  0.00    +0.000 N 
ATOM      2  C   UNL     1       1.844   8.177  19.629  0.00  0.00    +0.000 A 
ATOM      3  N   UNL     1       1.192   9.054  18.847  0.00  0.00    +0.000 NA
ATOM      4  C   UNL     1       0.275   9.915  19.362  0.00  0.00    +0.000 A 
ATOM      5  N   UNL     1      -0.383  10.720  18.436  0.00  0.00    +0.000 N 
ATOM      6  C   UNL     1       0.145   9.941  20.756  0.00  0.00    +0.000 A 
ATOM      7  S   UNL     1      -0.776  10.959  21.799  0.00  0.00    +0.000 S 
ATOM      8  C   UNL     1      -0.267  10.139  23.198  0.00  0.00    +0.000 A 
ATOM      9  C   UNL     1       0.613   9.125  22.899  0.00  0.00    +0.000 A 
ATOM     10  C   UNL     1       0.859   9.009  21.505  0.00  0.00    +0.000 A 
ATOM     11  N   UNL     1       1.698   8.105  20.950  0.00  0.00    +0.000 NA
ATOM     12  H   UNL     1       3.501   7.871  18.652  0.00  0.00    +0.000 HD
ATOM     13  H   UNL     1      -0.181  10.366  17.503  0.00  0.00    +0.000 HD
ENDROOT
BRANCH   1  14
ATOM     14  C   UNL     1       3.165   6.145  19.751  0.00  0.00    +0.000 C 
BRANCH  14  20
ATOM     15  C   UNL     1       2.523   4.254  18.120  0.00  0.00    +0.000 A 
ATOM     16  C   UNL     1       1.823   3.060  17.879  0.00  0.00    +0.000 A 
ATOM     17  C   UNL     1       0.894   2.573  18.800  0.00  0.00    +0.000 A 
ATOM     18  C   UNL     1       0.679   3.261  19.988  0.00  0.00    +0.000 A 
ATOM     19  C   UNL     1       1.414   4.411  20.261  0.00  0.00    +0.000 A 
ATOM     20  C   UNL     1       2.352   4.927  19.340  0.00  0.00    +0.000 A 
BRANCH  15  22
ATOM     21  C   UNL     1       4.607   4.035  17.045  0.00  0.00    +0.000 C 
ATOM     22  O   UNL     1       3.402   4.785  17.208  0.00  0.00    +0.000 OA
ENDBRANCH  15  22
ENDBRANCH  14  20
ENDBRANCH   1  14
BRANCH   5  23
ATOM     23  C   UNL     1      -1.770  11.133  18.640  0.00  0.00    +0.000 C 
BRANCH  23  24
ATOM     24  C   UNL     1      -2.646  10.914  17.417  0.00  0.00    +0.000 A 
ATOM     25  C   UNL     1      -2.050  10.421  16.231  0.00  0.00    +0.000 A 
ATOM     26  C   UNL     1      -2.781  10.199  15.066  0.00  0.00    +0.000 A 
ATOM     27  C   UNL     1      -4.149  10.416  15.067  0.00  0.00    +0.000 A 
ATOM     28  C   UNL     1      -4.767  10.895  16.222  0.00  0.00    +0.000 A 
ATOM     29  C   UNL     1      -4.036  11.175  17.399  0.00  0.00    +0.000 A 
BRANCH  29  30
ATOM     30  S   UNL     1      -5.001  12.078  18.625  0.00  0.00    +0.000 S 
ATOM     31  C   UNL     1      -6.727  11.877  18.132  0.00  0.00    +0.000 C 
ENDBRANCH  29  30
ENDBRANCH  23  24
ENDBRANCH   5  23
TORSDOF 6
ENDMDL
MODEL 5
REMARK VINA RESULT:      -7.6      5.731      9.734
REMARK  Name = 
REMARK  8 active torsions:
REMARK  status: ('A' for Active; 'I' for Inactive)
REMARK    1  A    between atoms: C_1  and  O_2
REMARK    2  A    between atoms: O_2  and  C_3
REMARK    3  A    between atoms: C_8  and  C_9
REMARK    4  A    between atoms: C_9  and  N_10
REMARK    5  A    between atoms: N_14  and  C_15
REMARK    6  A    between atoms: C_15  and  C_16
REMARK    7  A    between atoms: C_21  and  S_22
REMARK    8  A    between atoms: S_22  and  C_23
REMARK                            x       y       z     vdW  Elec       q    Type
REMARK                         _______ _______ _______ _____ _____    ______ ____
ROOT
ATOM      1  N   UNL     1       8.390   8.034  18.854  0.00  0.00    +0.000 N 
ATOM      2  C   UNL     1       7.795   7.019  18.111  0.00  0.00    +0.000 A 
ATOM      3  N   UNL     1       7.268   5.998  18.808  0.00  0.00    +0.000 NA
ATOM      4  C   UNL     1       6.622   4.976  18.186  0.00  0.00    +0.000 A 
ATOM      5  N   UNL     1       6.058   4.019  19.025  0.00  0.00    +0.000 N 
ATOM      6  C   UNL     1       6.656   4.966  16.786  0.00  0.00    +0.000 A 
ATOM      7  S   UNL     1       6.099   3.807  15.637  0.00  0.00    +0.000 S 
ATOM      8  C   UNL     1       6.567   4.760  14.311  0.00  0.00    +0.000 A 
ATOM      9  C   UNL     1       7.167   5.930  14.715  0.00  0.00    +0.000 A 
ATOM     10  C   UNL     1       7.227   6.053  16.129  0.00  0.00    +0.000 A 
ATOM     11  N   UNL     1       7.783   7.099  16.783  0.00  0.00    +0.000 NA
ATOM     12  H   UNL     1       9.228   7.645  19.273  0.00  0.00    +0.000 HD
ATOM     13  H   UNL     1       6.075   4.379  19.977  0.00  0.00    +0.000 HD
ENDROOT
BRANCH   1  14
ATOM     14  C   UNL     1       8.646   9.291  18.154  0.00  0.00    +0.000 C 
BRANCH  14  20
ATOM     15  C   UNL     1      10.143  11.313  18.718  0.00  0.00    +0.000 A 
ATOM     16  C   UNL     1      10.557  12.280  19.649  0.00  0.00    +0.000 A 
ATOM     17  C   UNL     1      10.169  12.201  20.988  0.00  0.00    +0.000 A 
ATOM     18  C   UNL     1       9.336  11.170  21.402  0.00  0.00    +0.000 A 
ATOM     19  C   UNL     1       8.872  10.243  20.472  0.00  0.00    +0.000 A 
ATOM     20  C   UNL     1       9.259  10.298  19.115  0.00  0.00    +0.000 A 
BRANCH  15  22
ATOM     21  C   UNL     1      11.185  12.553  17.007  0.00  0.00    +0.000 C 
ATOM     22  O   UNL     1      10.553  11.335  17.407  0.00  0.00    +0.000 OA
ENDBRANCH  15  22
ENDBRANCH  14  20
ENDBRANCH   1  14
BRANCH   5  23
ATOM     23  C   UNL     1       4.826   3.323  18.661  0.00  0.00    +0.000 C 
BRANCH  23  24
ATOM     24  C   UNL     1       3.663   3.641  19.587  0.00  0.00    +0.000 A 
ATOM     25  C   UNL     1       3.235   2.653  20.508  0.00  0.00    +0.000 A 
ATOM     26  C   UNL     1       2.174   2.863  21.386  0.00  0.00    +0.000 A 
ATOM     27  C   UNL     1       1.537   4.092  21.406  0.00  0.00    +0.000 A 
ATOM     28  C   UNL     1       1.939   5.088  20.515  0.00  0.00    +0.000 A 
ATOM     29  C   UNL     1       2.979   4.879  19.582  0.00  0.00    +0.000 A 
BRANCH  29  30
ATOM     30  S   UNL     1       3.085   6.187  18.346  0.00  0.00    +0.000 S 
ATOM     31  C   UNL     1       2.253   7.615  19.075  0.00  0.00    +0.000 C 
ENDBRANCH  29  30
ENDBRANCH  23  24
ENDBRANCH   5  23
TORSDOF 6
ENDMDL
MODEL 6
REMARK VINA RESULT:      -7.5      5.912      9.714
REMARK  Name = 
REMARK  8 active torsions:
REMARK  status: ('A' for Active; 'I' for Inactive)
REMARK    1  A    between atoms: C_1  and  O_2
REMARK    2  A    between atoms: O_2  and  C_3
REMARK    3  A    between atoms: C_8  and  C_9
REMARK    4  A    between atoms: C_9  and  N_10
REMARK    5  A    between atoms: N_14  and  C_15
REMARK    6  A    between atoms: C_15  and  C_16
REMARK    7  A    between atoms: C_21  and  S_22
REMARK    8  A    between atoms: S_22  and  C_23
REMARK                            x       y       z     vdW  Elec       q    Type
REMARK                         _______ _______ _______ _____ _____    ______ ____
ROOT
ATOM      1  N   UNL     1       8.014   8.135  18.440  0.00  0.00    +0.000 N 
ATOM      2  C   UNL     1       7.505   7.015  17.790  0.00  0.00    +0.000 A 
ATOM      3  N   UNL     1       7.026   6.034  18.574  0.00  0.00    +0.000 NA
ATOM      4  C   UNL     1       6.465   4.915  18.043  0.00  0.00    +0.000 A 
ATOM      5  N   UNL     1       5.941   4.009  18.961  0.00  0.00    +0.000 N 
ATOM      6  C   UNL     1       6.535   4.771  16.652  0.00  0.00    +0.000 A 
ATOM      7  S   UNL     1       6.084   3.471  15.613  0.00  0.00    +0.000 S 
ATOM      8  C   UNL     1       6.526   4.320  14.208  0.00  0.00    +0.000 A 
ATOM      9  C   UNL     1       7.039   5.561  14.506  0.00  0.00    +0.000 A 
ATOM     10  C   UNL     1       7.053   5.824  15.903  0.00  0.00    +0.000 A 
ATOM     11  N   UNL     1       7.523   6.964  16.460  0.00  0.00    +0.000 NA
ATOM     12  H   UNL     1       8.863   7.845  18.912  0.00  0.00    +0.000 HD
ATOM     13  H   UNL     1       5.909   4.460  19.873  0.00  0.00    +0.000 HD
ENDROOT
BRANCH   1  14
ATOM     14  C   UNL     1       8.207   9.332  17.625  0.00  0.00    +0.000 C 
BRANCH  14  20
ATOM     15  C   UNL     1       8.682  11.798  18.211  0.00  0.00    +0.000 A 
ATOM     16  C   UNL     1       9.200  12.740  19.114  0.00  0.00    +0.000 A 
ATOM     17  C   UNL     1       9.953  12.338  20.220  0.00  0.00    +0.000 A 
ATOM     18  C   UNL     1      10.167  10.984  20.450  0.00  0.00    +0.000 A 
ATOM     19  C   UNL     1       9.604  10.043  19.593  0.00  0.00    +0.000 A 
ATOM     20  C   UNL     1       8.848  10.426  18.463  0.00  0.00    +0.000 A 
BRANCH  15  22
ATOM     21  C   UNL     1       7.163  13.323  17.255  0.00  0.00    +0.000 C 
ATOM     22  O   UNL     1       7.985  12.166  17.086  0.00  0.00    +0.000 OA
ENDBRANCH  15  22
ENDBRANCH  14  20
ENDBRANCH   1  14
BRANCH   5  23
ATOM     23  C   UNL     1       4.766   3.201  18.644  0.00  0.00    +0.000 C 
BRANCH  23  24
ATOM     24  C   UNL     1       3.605   3.430  19.598  0.00  0.00    +0.000 A 
ATOM     25  C   UNL     1       3.431   2.539  20.686  0.00  0.00    +0.000 A 
ATOM     26  C   UNL     1       2.390   2.676  21.601  0.00  0.00    +0.000 A 
ATOM     27  C   UNL     1       1.516   3.744  21.487  0.00  0.00    +0.000 A 
ATOM     28  C   UNL     1       1.665   4.642  20.430  0.00  0.00    +0.000 A 
ATOM     29  C   UNL     1       2.683   4.493  19.461  0.00  0.00    +0.000 A 
BRANCH  29  30
ATOM     30  S   UNL     1       2.463   5.581  18.041  0.00  0.00    +0.000 S 
ATOM     31  C   UNL     1       2.662   7.260  18.675  0.00  0.00    +0.000 C 
ENDBRANCH  29  30
ENDBRANCH  23  24
ENDBRANCH   5  23
TORSDOF 6
ENDMDL
MODEL 7
REMARK VINA RESULT:      -7.5      1.272      1.878
REMARK  Name = 
REMARK  8 active torsions:
REMARK  status: ('A' for Active; 'I' for Inactive)
REMARK    1  A    between atoms: C_1  and  O_2
REMARK    2  A    between atoms: O_2  and  C_3
REMARK    3  A    between atoms: C_8  and  C_9
REMARK    4  A    between atoms: C_9  and  N_10
REMARK    5  A    between atoms: N_14  and  C_15
REMARK    6  A    between atoms: C_15  and  C_16
REMARK    7  A    between atoms: C_21  and  S_22
REMARK    8  A    between atoms: S_22  and  C_23
REMARK                            x       y       z     vdW  Elec       q    Type
REMARK                         _______ _______ _______ _____ _____    ______ ____
ROOT
ATOM      1  N   UNL     1       2.163   7.517  19.669  0.00  0.00    +0.000 N 
ATOM      2  C   UNL     1       1.327   8.491  20.207  0.00  0.00    +0.000 A 
ATOM      3  N   UNL     1       0.955   9.484  19.381  0.00  0.00    +0.000 NA
ATOM      4  C   UNL     1       0.105  10.462  19.790  0.00  0.00    +0.000 A 
ATOM      5  N   UNL     1      -0.259  11.390  18.818  0.00  0.00    +0.000 N 
ATOM      6  C   UNL     1      -0.251  10.466  21.145  0.00  0.00    +0.000 A 
ATOM      7  S   UNL     1      -1.170  11.583  22.082  0.00  0.00    +0.000 S 
ATOM      8  C   UNL     1      -1.032  10.650  23.496  0.00  0.00    +0.000 A 
ATOM      9  C   UNL     1      -0.277   9.520  23.286  0.00  0.00    +0.000 A 
ATOM     10  C   UNL     1       0.179   9.410  21.944  0.00  0.00    +0.000 A 
ATOM     11  N   UNL     1       0.953   8.402  21.481  0.00  0.00    +0.000 NA
ATOM     12  H   UNL     1       3.059   7.957  19.493  0.00  0.00    +0.000 HD
ATOM     13  H   UNL     1       0.041  11.037  17.912  0.00  0.00    +0.000 HD
ENDROOT
BRANCH   1  14
ATOM     14  C   UNL     1       2.287   6.273  20.424  0.00  0.00    +0.000 C 
BRANCH  14  20
ATOM     15  C   UNL     1       1.683   3.877  19.685  0.00  0.00    +0.000 A 
ATOM     16  C   UNL     1       1.685   2.891  18.686  0.00  0.00    +0.000 A 
ATOM     17  C   UNL     1       2.410   3.066  17.505  0.00  0.00    +0.000 A 
ATOM     18  C   UNL     1       3.115   4.246  17.300  0.00  0.00    +0.000 A 
ATOM     19  C   UNL     1       3.066   5.253  18.261  0.00  0.00    +0.000 A 
ATOM     20  C   UNL     1       2.348   5.094  19.466  0.00  0.00    +0.000 A 
BRANCH  15  22
ATOM     21  C   UNL     1       1.548   2.664  21.700  0.00  0.00    +0.000 C 
ATOM     22  O   UNL     1       1.024   3.709  20.879  0.00  0.00    +0.000 OA
ENDBRANCH  15  22
ENDBRANCH  14  20
ENDBRANCH   1  14
BRANCH   5  23
ATOM     23  C   UNL     1      -1.582  12.010  18.820  0.00  0.00    +0.000 C 
BRANCH  23  24
ATOM     24  C   UNL     1      -2.486  11.496  17.711  0.00  0.00    +0.000 A 
ATOM     25  C   UNL     1      -1.893  10.938  16.552  0.00  0.00    +0.000 A 
ATOM     26  C   UNL     1      -2.650  10.450  15.489  0.00  0.00    +0.000 A 
ATOM     27  C   UNL     1      -4.032  10.459  15.574  0.00  0.00    +0.000 A 
ATOM     28  C   UNL     1      -4.646  10.996  16.706  0.00  0.00    +0.000 A 
ATOM     29  C   UNL     1      -3.898  11.542  17.773  0.00  0.00    +0.000 A 
BRANCH  29  30
ATOM     30  S   UNL     1      -4.917  12.453  18.949  0.00  0.00    +0.000 S 
ATOM     31  C   UNL     1      -6.608  12.332  18.326  0.00  0.00    +0.000 C 
ENDBRANCH  29  30
ENDBRANCH  23  24
ENDBRANCH   5  23
TORSDOF 6
ENDMDL
MODEL 8
REMARK VINA RESULT:      -7.4      1.614      2.421
REMARK  Name = 
REMARK  8 active torsions:
REMARK  status: ('A' for Active; 'I' for Inactive)
REMARK    1  A    between atoms: C_1  and  O_2
REMARK    2  A    between atoms: O_2  and  C_3
REMARK    3  A    between atoms: C_8  and  C_9
REMARK    4  A    between atoms: C_9  and  N_10
REMARK    5  A    between atoms: N_14  and  C_15
REMARK    6  A    between atoms: C_15  and  C_16
REMARK    7  A    between atoms: C_21  and  S_22
REMARK    8  A    between atoms: S_22  and  C_23
REMARK                            x       y       z     vdW  Elec       q    Type
REMARK                         _______ _______ _______ _____ _____    ______ ____
ROOT
ATOM      1  N   UNL     1       2.869   7.482  17.570  0.00  0.00    +0.000 N 
ATOM      2  C   UNL     1       2.137   8.216  18.498  0.00  0.00    +0.000 A 
ATOM      3  N   UNL     1       1.556   9.341  18.047  0.00  0.00    +0.000 NA
ATOM      4  C   UNL     1       0.782  10.111  18.856  0.00  0.00    +0.000 A 
ATOM      5  N   UNL     1       0.179  11.209  18.248  0.00  0.00    +0.000 N 
ATOM      6  C   UNL     1       0.732   9.755  20.210  0.00  0.00    +0.000 A 
ATOM      7  S   UNL     1       0.001  10.524  21.569  0.00  0.00    +0.000 S 
ATOM      8  C   UNL     1       0.481   9.294  22.639  0.00  0.00    +0.000 A 
ATOM      9  C   UNL     1       1.212   8.321  21.997  0.00  0.00    +0.000 A 
ATOM     10  C   UNL     1       1.366   8.581  20.609  0.00  0.00    +0.000 A 
ATOM     11  N   UNL     1       2.056   7.789  19.756  0.00  0.00    +0.000 NA
ATOM     12  H   UNL     1       3.688   8.030  17.334  0.00  0.00    +0.000 HD
ATOM     13  H   UNL     1       0.285  11.115  17.241  0.00  0.00    +0.000 HD
ENDROOT
BRANCH   1  14
ATOM     14  C   UNL     1       3.202   6.109  17.942  0.00  0.00    +0.000 C 
BRANCH  14  20
ATOM     15  C   UNL     1       5.581   6.169  16.947  0.00  0.00    +0.000 A 
ATOM     16  C   UNL     1       6.969   6.131  17.150  0.00  0.00    +0.000 A 
ATOM     17  C   UNL     1       7.505   5.799  18.396  0.00  0.00    +0.000 A 
ATOM     18  C   UNL     1       6.654   5.532  19.460  0.00  0.00    +0.000 A 
ATOM     19  C   UNL     1       5.276   5.628  19.281  0.00  0.00    +0.000 A 
ATOM     20  C   UNL     1       4.712   5.952  18.028  0.00  0.00    +0.000 A 
BRANCH  15  22
ATOM     21  C   UNL     1       5.388   5.512  14.693  0.00  0.00    +0.000 C 
ATOM     22  O   UNL     1       5.026   6.438  15.719  0.00  0.00    +0.000 OA
ENDBRANCH  15  22
ENDBRANCH  14  20
ENDBRANCH   1  14
BRANCH   5  23
ATOM     23  C   UNL     1      -1.134  11.688  18.678  0.00  0.00    +0.000 C 
BRANCH  23  24
ATOM     24  C   UNL     1      -2.246  11.343  17.701  0.00  0.00    +0.000 A 
ATOM     25  C   UNL     1      -1.899  10.838  16.424  0.00  0.00    +0.000 A 
ATOM     26  C   UNL     1      -2.857  10.504  15.469  0.00  0.00    +0.000 A 
ATOM     27  C   UNL     1      -4.201  10.618  15.782  0.00  0.00    +0.000 A 
ATOM     28  C   UNL     1      -4.575  11.106  17.034  0.00  0.00    +0.000 A 
ATOM     29  C   UNL     1      -3.620  11.498  17.999  0.00  0.00    +0.000 A 
BRANCH  29  30
ATOM     30  S   UNL     1      -4.349  12.387  19.387  0.00  0.00    +0.000 S 
ATOM     31  C   UNL     1      -6.020  11.723  19.567  0.00  0.00    +0.000 C 
ENDBRANCH  29  30
ENDBRANCH  23  24
ENDBRANCH   5  23
TORSDOF 6
ENDMDL
MODEL 9
REMARK VINA RESULT:      -7.4      3.800      6.766
REMARK  Name = 
REMARK  8 active torsions:
REMARK  status: ('A' for Active; 'I' for Inactive)
REMARK    1  A    between atoms: C_1  and  O_2
REMARK    2  A    between atoms: O_2  and  C_3
REMARK    3  A    between atoms: C_8  and  C_9
REMARK    4  A    between atoms: C_9  and  N_10
REMARK    5  A    between atoms: N_14  and  C_15
REMARK    6  A    between atoms: C_15  and  C_16
REMARK    7  A    between atoms: C_21  and  S_22
REMARK    8  A    between atoms: S_22  and  C_23
REMARK                            x       y       z     vdW  Elec       q    Type
REMARK                         _______ _______ _______ _____ _____    ______ ____
ROOT
ATOM      1  N   UNL     1       5.425   4.338  16.326  0.00  0.00    +0.000 N 
ATOM      2  C   UNL     1       4.368   4.228  17.225  0.00  0.00    +0.000 A 
ATOM      3  N   UNL     1       4.284   5.180  18.170  0.00  0.00    +0.000 NA
ATOM      4  C   UNL     1       3.267   5.194  19.071  0.00  0.00    +0.000 A 
ATOM      5  N   UNL     1       3.254   6.274  19.950  0.00  0.00    +0.000 N 
ATOM      6  C   UNL     1       2.394   4.099  19.058  0.00  0.00    +0.000 A 
ATOM      7  S   UNL     1       1.089   3.664  20.097  0.00  0.00    +0.000 S 
ATOM      8  C   UNL     1       0.717   2.271  19.197  0.00  0.00    +0.000 A 
ATOM      9  C   UNL     1       1.580   2.106  18.139  0.00  0.00    +0.000 A 
ATOM     10  C   UNL     1       2.546   3.144  18.055  0.00  0.00    +0.000 A 
ATOM     11  N   UNL     1       3.519   3.209  17.118  0.00  0.00    +0.000 NA
ATOM     12  H   UNL     1       6.277   4.159  16.845  0.00  0.00    +0.000 HD
ATOM     13  H   UNL     1       3.922   6.966  19.616  0.00  0.00    +0.000 HD
ENDROOT
BRANCH   1  14
ATOM     14  C   UNL     1       5.331   3.537  15.108  0.00  0.00    +0.000 C 
BRANCH  14  20
ATOM     15  C   UNL     1       6.258   3.705  12.707  0.00  0.00    +0.000 A 
ATOM     16  C   UNL     1       7.084   4.361  11.781  0.00  0.00    +0.000 A 
ATOM     17  C   UNL     1       7.994   5.337  12.194  0.00  0.00    +0.000 A 
ATOM     18  C   UNL     1       8.063   5.688  13.536  0.00  0.00    +0.000 A 
ATOM     19  C   UNL     1       7.203   5.084  14.451  0.00  0.00    +0.000 A 
ATOM     20  C   UNL     1       6.282   4.088  14.057  0.00  0.00    +0.000 A 
BRANCH  15  22
ATOM     21  C   UNL     1       4.343   3.123  11.465  0.00  0.00    +0.000 C 
ATOM     22  O   UNL     1       5.393   2.703  12.338  0.00  0.00    +0.000 OA
ENDBRANCH  15  22
ENDBRANCH  14  20
ENDBRANCH   1  14
BRANCH   5  23
ATOM     23  C   UNL     1       1.998   6.834  20.446  0.00  0.00    +0.000 C 
BRANCH  23  24
ATOM     24  C   UNL     1       1.680   8.201  19.862  0.00  0.00    +0.000 A 
ATOM     25  C   UNL     1       1.885   8.416  18.477  0.00  0.00    +0.000 A 
ATOM     26  C   UNL     1       1.624   9.640  17.866  0.00  0.00    +0.000 A 
ATOM     27  C   UNL     1       1.099  10.679  18.616  0.00  0.00    +0.000 A 
ATOM     28  C   UNL     1       0.880  10.497  19.982  0.00  0.00    +0.000 A 
ATOM     29  C   UNL     1       1.186   9.280  20.631  0.00  0.00    +0.000 A 
BRANCH  29  30
ATOM     30  S   UNL     1       1.118   9.408  22.428  0.00  0.00    +0.000 S 
ATOM     31  C   UNL     1      -0.630   9.606  22.838  0.00  0.00    +0.000 C 
ENDBRANCH  29  30
ENDBRANCH  23  24
ENDBRANCH   5  23
TORSDOF 6
ENDMDL
