MODEL 1
REMARK VINA RESULT:      -7.3      0.000      0.000
REMARK  Name = 
REMARK  6 active torsions:
REMARK  status: ('A' for Active; 'I' for Inactive)
REMARK    1  A    between atoms: C_1  and  C_2
REMARK    2  A    between atoms: C_5  and  O_6
REMARK    3  A    between atoms: C_7  and  C_8
REMARK    4  A    between atoms: C_8  and  C_9
REMARK    5  A    between atoms: C_8  and  C_13
REMARK    6  A    between atoms: C_9  and  C_10
REMARK                            x       y       z     vdW  Elec       q    Type
REMARK                         _______ _______ _______ _____ _____    ______ ____
ROOT
ATOM      1  C   UNL     1       5.058   6.104  17.009  0.00  0.00    +0.000 C 
ENDROOT
BRANCH   1   7
ATOM      2  C   UNL     1       7.751   8.054  17.487  0.00  0.00    +0.000 C 
ATOM      3  C   UNL     1       7.295   6.825  18.182  0.00  0.00    +0.000 A 
ATOM      4  N   UNL     1       8.001   6.316  19.241  0.00  0.00    +0.000 N 
ATOM      5  N   UNL     1       7.512   5.159  19.711  0.00  0.00    +0.000 NA
ATOM      6  C   UNL     1       6.436   4.987  18.964  0.00  0.00    +0.000 A 
ATOM      7  C   UNL     1       6.193   5.985  18.009  0.00  0.00    +0.000 A 
ATOM      8  H   UNL     1       8.835   6.700  19.677  0.00  0.00    +0.000 HD
BRANCH   6   9
ATOM      9  O   UNL     1       5.781   3.863  19.239  0.00  0.00    +0.000 OA
ATOM     10  H   UNL     1       6.055   3.662  20.154  0.00  0.00    +0.000 HD
ENDBRANCH   6   9
ENDBRANCH   1   7
BRANCH   1  11
ATOM     11  C   UNL     1       3.807   5.360  17.399  0.00  0.00    +0.000 A 
ATOM     12  C   UNL     1       2.682   5.727  18.113  0.00  0.00    +0.000 A 
ATOM     13  C   UNL     1       1.855   4.578  18.184  0.00  0.00    +0.000 A 
ATOM     14  C   UNL     1       2.516   3.591  17.496  0.00  0.00    +0.000 A 
ATOM     15  O   UNL     1       3.700   4.051  17.023  0.00  0.00    +0.000 OA
ENDBRANCH   1  11
BRANCH   1  16
ATOM     16  C   UNL     1       5.441   5.854  15.541  0.00  0.00    +0.000 C 
BRANCH  16  17
ATOM     17  C   UNL     1       6.595   4.894  15.311  0.00  0.00    +0.000 C 
ATOM     18  N   UNL     1       6.301   3.582  15.576  0.00  0.00    +0.000 N 
ATOM     19  O   UNL     1       7.737   5.210  15.007  0.00  0.00    +0.000 OA
ATOM     20  H   UNL     1       5.361   3.264  15.368  0.00  0.00    +0.000 HD
ATOM     21  H   UNL     1       7.038   2.943  15.305  0.00  0.00    +0.000 HD
ENDBRANCH  16  17
ENDBRANCH   1  16
TORSDOF 5
ENDMDL
MODEL 2
REMARK VINA RESULT:      -6.9      1.997      3.894
REMARK  Name = 
REMARK  6 active torsions:
REMARK  status: ('A' for Active; 'I' for Inactive)
REMARK    1  A    between atoms: C_1  and  C_2
REMARK    2  A    between atoms: C_5  and  O_6
REMARK    3  A    between atoms: C_7  and  C_8
REMARK    4  A    between atoms: C_8  and  C_9
REMARK    5  A    between atoms: C_8  and  C_13
REMARK    6  A    between atoms: C_9  and  C_10
REMARK                            x       y       z     vdW  Elec       q    Type
REMARK                         _______ _______ _______ _____ _____    ______ ____
ROOT
ATOM      1  C   UNL     1       5.847   6.247  17.134  0.00  0.00    +0.000 C 
ENDROOT
BRANCH   1   7
ATOM      2  C   UNL     1       2.924   7.700  17.927  0.00  0.00    +0.000 C 
ATOM      3  C   UNL     1       3.504   6.390  18.313  0.00  0.00    +0.000 A 
ATOM      4  N   UNL     1       2.802   5.521  19.107  0.00  0.00    +0.000 N 
ATOM      5  N   UNL     1       3.488   4.416  19.437  0.00  0.00    +0.000 NA
ATOM      6  C   UNL     1       4.618   4.580  18.771  0.00  0.00    +0.000 A 
ATOM      7  C   UNL     1       4.711   5.756  18.013  0.00  0.00    +0.000 A 
ATOM      8  H   UNL     1       1.861   5.630  19.473  0.00  0.00    +0.000 HD
BRANCH   6   9
ATOM      9  O   UNL     1       5.488   3.595  18.966  0.00  0.00    +0.000 OA
ATOM     10  H   UNL     1       6.129   3.981  19.591  0.00  0.00    +0.000 HD
ENDBRANCH   6   9
ENDBRANCH   1   7
BRANCH   1  11
ATOM     11  C   UNL     1       6.064   5.429  15.887  0.00  0.00    +0.000 A 
ATOM     12  C   UNL     1       5.337   4.416  15.291  0.00  0.00    +0.000 A 
ATOM     13  C   UNL     1       6.070   4.010  14.148  0.00  0.00    +0.000 A 
ATOM     14  C   UNL     1       7.186   4.809  14.108  0.00  0.00    +0.000 A 
ATOM     15  O   UNL     1       7.196   5.665  15.159  0.00  0.00    +0.000 OA
ENDBRANCH   1  11
BRANCH   1  16
ATOM     16  C   UNL     1       7.168   6.544  17.864  0.00  0.00    +0.000 C 
BRANCH  16  17
ATOM     17  C   UNL     1       7.814   5.367  18.573  0.00  0.00    +0.000 C 
ATOM     18  N   UNL     1       7.983   5.542  19.922  0.00  0.00    +0.000 N 
ATOM     19  O   UNL     1       8.252   4.361  18.033  0.00  0.00    +0.000 OA
ATOM     20  H   UNL     1       7.274   6.072  20.416  0.00  0.00    +0.000 HD
ATOM     21  H   UNL     1       8.302   4.708  20.398  0.00  0.00    +0.000 HD
ENDBRANCH  16  17
ENDBRANCH   1  16
TORSDOF 5
ENDMDL
MODEL 3
REMARK VINA RESULT:      -6.8      2.355      3.967
REMARK  Name = 
REMARK  6 active torsions:
REMARK  status: ('A' for Active; 'I' for Inactive)
REMARK    1  A    between atoms: C_1  and  C_2
REMARK    2  A    between atoms: C_5  and  O_6
REMARK    3  A    between atoms: C_7  and  C_8
REMARK    4  A    between atoms: C_8  and  C_9
REMARK    5  A    between atoms: C_8  and  C_13
REMARK    6  A    between atoms: C_9  and  C_10
REMARK                            x       y       z     vdW  Elec       q    Type
REMARK                         _______ _______ _______ _____ _____    ______ ____
ROOT
ATOM      1  C   UNL     1       5.565   4.589  16.774  0.00  0.00    +0.000 C 
ENDROOT
BRANCH   1   7
ATOM      2  C   UNL     1       3.233   6.709  17.938  0.00  0.00    +0.000 C 
ATOM      3  C   UNL     1       3.292   5.227  17.927  0.00  0.00    +0.000 A 
ATOM      4  N   UNL     1       2.256   4.481  18.427  0.00  0.00    +0.000 N 
ATOM      5  N   UNL     1       2.490   3.160  18.424  0.00  0.00    +0.000 NA
ATOM      6  C   UNL     1       3.675   3.088  17.843  0.00  0.00    +0.000 A 
ATOM      7  C   UNL     1       4.241   4.314  17.463  0.00  0.00    +0.000 A 
ATOM      8  H   UNL     1       1.373   4.813  18.803  0.00  0.00    +0.000 HD
BRANCH   6   9
ATOM      9  O   UNL     1       4.137   1.845  17.747  0.00  0.00    +0.000 OA
ATOM     10  H   UNL     1       3.796   1.545  16.884  0.00  0.00    +0.000 HD
ENDBRANCH   6   9
ENDBRANCH   1   7
BRANCH   1  11
ATOM     11  C   UNL     1       6.538   5.394  17.596  0.00  0.00    +0.000 A 
ATOM     12  C   UNL     1       7.068   6.661  17.447  0.00  0.00    +0.000 A 
ATOM     13  C   UNL     1       7.964   6.854  18.528  0.00  0.00    +0.000 A 
ATOM     14  C   UNL     1       7.911   5.705  19.276  0.00  0.00    +0.000 A 
ATOM     15  O   UNL     1       7.057   4.812  18.718  0.00  0.00    +0.000 OA
ENDBRANCH   1  11
BRANCH   1  16
ATOM     16  C   UNL     1       5.463   5.112  15.331  0.00  0.00    +0.000 C 
BRANCH  16  17
ATOM     17  C   UNL     1       6.586   4.699  14.395  0.00  0.00    +0.000 C 
ATOM     18  N   UNL     1       6.371   3.514  13.741  0.00  0.00    +0.000 N 
ATOM     19  O   UNL     1       7.655   5.279  14.264  0.00  0.00    +0.000 OA
ATOM     20  H   UNL     1       5.418   3.295  13.474  0.00  0.00    +0.000 HD
ATOM     21  H   UNL     1       7.068   3.313  13.035  0.00  0.00    +0.000 HD
ENDBRANCH  16  17
ENDBRANCH   1  16
TORSDOF 5
ENDMDL
MODEL 4
REMARK VINA RESULT:      -6.8      0.826      1.039
REMARK  Name = 
REMARK  6 active torsions:
REMARK  status: ('A' for Active; 'I' for Inactive)
REMARK    1  A    between atoms: C_1  and  C_2
REMARK    2  A    between atoms: C_5  and  O_6
REMARK    3  A    between atoms: C_7  and  C_8
REMARK    4  A    between atoms: C_8  and  C_9
REMARK    5  A    between atoms: C_8  and  C_13
REMARK    6  A    between atoms: C_9  and  C_10
REMARK                            x       y       z     vdW  Elec       q    Type
REMARK                         _______ _______ _______ _____ _____    ______ ____
ROOT
ATOM      1  C   UNL     1       5.169   6.247  16.931  0.00  0.00    +0.000 C 
ENDROOT
BRANCH   1   7
ATOM      2  C   UNL     1       7.709   8.366  17.519  0.00  0.00    +0.000 C 
ATOM      3  C   UNL     1       7.409   7.020  18.065  0.00  0.00    +0.000 A 
ATOM      4  N   UNL     1       8.227   6.448  19.006  0.00  0.00    +0.000 N 
ATOM      5  N   UNL     1       7.873   5.198  19.342  0.00  0.00    +0.000 NA
ATOM      6  C   UNL     1       6.768   5.023  18.639  0.00  0.00    +0.000 A 
ATOM      7  C   UNL     1       6.375   6.109  17.842  0.00  0.00    +0.000 A 
ATOM      8  H   UNL     1       9.051   6.850  19.443  0.00  0.00    +0.000 HD
BRANCH   6   9
ATOM      9  O   UNL     1       6.234   3.816  18.795  0.00  0.00    +0.000 OA
ATOM     10  H   UNL     1       5.645   3.728  18.023  0.00  0.00    +0.000 HD
ENDBRANCH   6   9
ENDBRANCH   1   7
BRANCH   1  11
ATOM     11  C   UNL     1       3.892   5.690  17.504  0.00  0.00    +0.000 A 
ATOM     12  C   UNL     1       3.181   4.531  17.257  0.00  0.00    +0.000 A 
ATOM     13  C   UNL     1       2.031   4.578  18.084  0.00  0.00    +0.000 A 
ATOM     14  C   UNL     1       2.120   5.750  18.794  0.00  0.00    +0.000 A 
ATOM     15  O   UNL     1       3.238   6.433  18.446  0.00  0.00    +0.000 OA
ENDBRANCH   1  11
BRANCH   1  16
ATOM     16  C   UNL     1       5.387   5.806  15.474  0.00  0.00    +0.000 C 
BRANCH  16  17
ATOM     17  C   UNL     1       6.526   4.829  15.240  0.00  0.00    +0.000 C 
ATOM     18  N   UNL     1       6.219   3.523  15.521  0.00  0.00    +0.000 N 
ATOM     19  O   UNL     1       7.668   5.128  14.920  0.00  0.00    +0.000 OA
ATOM     20  H   UNL     1       5.273   3.215  15.328  0.00  0.00    +0.000 HD
ATOM     21  H   UNL     1       6.944   2.872  15.248  0.00  0.00    +0.000 HD
ENDBRANCH  16  17
ENDBRANCH   1  16
TORSDOF 5
ENDMDL
MODEL 5
REMARK VINA RESULT:      -6.8      1.231      1.436
REMARK  Name = 
REMARK  6 active torsions:
REMARK  status: ('A' for Active; 'I' for Inactive)
REMARK    1  A    between atoms: C_1  and  C_2
REMARK    2  A    between atoms: C_5  and  O_6
REMARK    3  A    between atoms: C_7  and  C_8
REMARK    4  A    between atoms: C_8  and  C_9
REMARK    5  A    between atoms: C_8  and  C_13
REMARK    6  A    between atoms: C_9  and  C_10
REMARK                            x       y       z     vdW  Elec       q    Type
REMARK                         _______ _______ _______ _____ _____    ______ ____
ROOT
ATOM      1  C   UNL     1       5.371   6.527  16.930  0.00  0.00    +0.000 C 
ENDROOT
BRANCH   1   7
ATOM      2  C   UNL     1       8.050   8.404  17.696  0.00  0.00    +0.000 C 
ATOM      3  C   UNL     1       7.619   7.069  18.177  0.00  0.00    +0.000 A 
ATOM      4  N   UNL     1       8.348   6.397  19.124  0.00  0.00    +0.000 N 
ATOM      5  N   UNL     1       7.880   5.169  19.396  0.00  0.00    +0.000 NA
ATOM      6  C   UNL     1       6.793   5.113  18.646  0.00  0.00    +0.000 A 
ATOM      7  C   UNL     1       6.523   6.255  17.879  0.00  0.00    +0.000 A 
ATOM      8  H   UNL     1       9.184   6.712  19.607  0.00  0.00    +0.000 HD
BRANCH   6   9
ATOM      9  O   UNL     1       6.156   3.949  18.735  0.00  0.00    +0.000 OA
ATOM     10  H   UNL     1       5.217   4.201  18.662  0.00  0.00    +0.000 HD
ENDBRANCH   6   9
ENDBRANCH   1   7
BRANCH   1  11
ATOM     11  C   UNL     1       4.062   6.828  17.613  0.00  0.00    +0.000 A 
ATOM     12  C   UNL     1       3.207   7.913  17.566  0.00  0.00    +0.000 A 
ATOM     13  C   UNL     1       2.146   7.631  18.461  0.00  0.00    +0.000 A 
ATOM     14  C   UNL     1       2.408   6.389  18.984  0.00  0.00    +0.000 A 
ATOM     15  O   UNL     1       3.568   5.898  18.483  0.00  0.00    +0.000 OA
ENDBRANCH   1  11
BRANCH   1  16
ATOM     16  C   UNL     1       5.203   5.513  15.786  0.00  0.00    +0.000 C 
BRANCH  16  17
ATOM     17  C   UNL     1       6.474   4.830  15.313  0.00  0.00    +0.000 C 
ATOM     18  N   UNL     1       6.496   3.474  15.511  0.00  0.00    +0.000 N 
ATOM     19  O   UNL     1       7.466   5.394  14.872  0.00  0.00    +0.000 OA
ATOM     20  H   UNL     1       5.618   2.975  15.418  0.00  0.00    +0.000 HD
ATOM     21  H   UNL     1       7.293   3.019  15.084  0.00  0.00    +0.000 HD
ENDBRANCH  16  17
ENDBRANCH   1  16
TORSDOF 5
ENDMDL
MODEL 6
REMARK VINA RESULT:      -6.8      2.312      3.968
REMARK  Name = 
REMARK  6 active torsions:
REMARK  status: ('A' for Active; 'I' for Inactive)
REMARK    1  A    between atoms: C_1  and  C_2
REMARK    2  A    between atoms: C_5  and  O_6
REMARK    3  A    between atoms: C_7  and  C_8
REMARK    4  A    between atoms: C_8  and  C_9
REMARK    5  A    between atoms: C_8  and  C_13
REMARK    6  A    between atoms: C_9  and  C_10
REMARK                            x       y       z     vdW  Elec       q    Type
REMARK                         _______ _______ _______ _____ _____    ______ ____
ROOT
ATOM      1  C   UNL     1       5.683   4.974  16.596  0.00  0.00    +0.000 C 
ENDROOT
BRANCH   1   7
ATOM      2  C   UNL     1       3.434   7.187  17.748  0.00  0.00    +0.000 C 
ATOM      3  C   UNL     1       3.464   5.705  17.796  0.00  0.00    +0.000 A 
ATOM      4  N   UNL     1       2.431   5.001  18.360  0.00  0.00    +0.000 N 
ATOM      5  N   UNL     1       2.638   3.677  18.403  0.00  0.00    +0.000 NA
ATOM      6  C   UNL     1       3.802   3.557  17.787  0.00  0.00    +0.000 A 
ATOM      7  C   UNL     1       4.379   4.754  17.339  0.00  0.00    +0.000 A 
ATOM      8  H   UNL     1       1.567   5.367  18.750  0.00  0.00    +0.000 HD
BRANCH   6   9
ATOM      9  O   UNL     1       4.235   2.302  17.727  0.00  0.00    +0.000 OA
ATOM     10  H   UNL     1       5.190   2.385  17.907  0.00  0.00    +0.000 HD
ENDBRANCH   6   9
ENDBRANCH   1   7
BRANCH   1  11
ATOM     11  C   UNL     1       6.640   5.911  17.287  0.00  0.00    +0.000 A 
ATOM     12  C   UNL     1       7.442   5.776  18.404  0.00  0.00    +0.000 A 
ATOM     13  C   UNL     1       8.095   7.021  18.586  0.00  0.00    +0.000 A 
ATOM     14  C   UNL     1       7.666   7.829  17.562  0.00  0.00    +0.000 A 
ATOM     15  O   UNL     1       6.781   7.170  16.775  0.00  0.00    +0.000 OA
ENDBRANCH   1  11
BRANCH   1  16
ATOM     16  C   UNL     1       5.546   5.294  15.098  0.00  0.00    +0.000 C 
BRANCH  16  17
ATOM     17  C   UNL     1       6.665   4.784  14.206  0.00  0.00    +0.000 C 
ATOM     18  N   UNL     1       6.423   3.560  13.639  0.00  0.00    +0.000 N 
ATOM     19  O   UNL     1       7.750   5.325  14.042  0.00  0.00    +0.000 OA
ATOM     20  H   UNL     1       5.467   3.347  13.381  0.00  0.00    +0.000 HD
ATOM     21  H   UNL     1       7.120   3.290  12.956  0.00  0.00    +0.000 HD
ENDBRANCH  16  17
ENDBRANCH   1  16
TORSDOF 5
ENDMDL
MODEL 7
REMARK VINA RESULT:      -6.8      2.183      3.540
REMARK  Name = 
REMARK  6 active torsions:
REMARK  status: ('A' for Active; 'I' for Inactive)
REMARK    1  A    between atoms: C_1  and  C_2
REMARK    2  A    between atoms: C_5  and  O_6
REMARK    3  A    between atoms: C_7  and  C_8
REMARK    4  A    between atoms: C_8  and  C_9
REMARK    5  A    between atoms: C_8  and  C_13
REMARK    6  A    between atoms: C_9  and  C_10
REMARK                            x       y       z     vdW  Elec       q    Type
REMARK                         _______ _______ _______ _____ _____    ______ ____
ROOT
ATOM      1  C   UNL     1       4.235   4.470  17.735  0.00  0.00    +0.000 C 
ENDROOT
BRANCH   1   7
ATOM      2  C   UNL     1       6.067   3.882  14.982  0.00  0.00    +0.000 C 
ATOM      3  C   UNL     1       6.462   4.276  16.357  0.00  0.00    +0.000 A 
ATOM      4  N   UNL     1       7.779   4.496  16.672  0.00  0.00    +0.000 N 
ATOM      5  N   UNL     1       7.987   4.763  17.969  0.00  0.00    +0.000 NA
ATOM      6  C   UNL     1       6.757   4.776  18.452  0.00  0.00    +0.000 A 
ATOM      7  C   UNL     1       5.736   4.521  17.524  0.00  0.00    +0.000 A 
ATOM      8  H   UNL     1       8.583   4.459  16.052  0.00  0.00    +0.000 HD
BRANCH   6   9
ATOM      9  O   UNL     1       6.710   5.004  19.761  0.00  0.00    +0.000 OA
ATOM     10  H   UNL     1       5.760   4.931  19.969  0.00  0.00    +0.000 HD
ENDBRANCH   6   9
ENDBRANCH   1   7
BRANCH   1  11
ATOM     11  C   UNL     1       3.599   5.811  17.998  0.00  0.00    +0.000 A 
ATOM     12  C   UNL     1       3.680   7.030  17.351  0.00  0.00    +0.000 A 
ATOM     13  C   UNL     1       2.880   7.935  18.092  0.00  0.00    +0.000 A 
ATOM     14  C   UNL     1       2.349   7.211  19.131  0.00  0.00    +0.000 A 
ATOM     15  O   UNL     1       2.783   5.928  19.087  0.00  0.00    +0.000 OA
ENDBRANCH   1  11
BRANCH   1  16
ATOM     16  C   UNL     1       3.740   3.397  18.720  0.00  0.00    +0.000 C 
BRANCH  16  17
ATOM     17  C   UNL     1       3.141   2.150  18.095  0.00  0.00    +0.000 C 
ATOM     18  N   UNL     1       3.857   1.003  18.323  0.00  0.00    +0.000 N 
ATOM     19  O   UNL     1       2.161   2.117  17.365  0.00  0.00    +0.000 OA
ATOM     20  H   UNL     1       4.326   0.916  19.217  0.00  0.00    +0.000 HD
ATOM     21  H   UNL     1       3.386   0.166  18.005  0.00  0.00    +0.000 HD
ENDBRANCH  16  17
ENDBRANCH   1  16
TORSDOF 5
ENDMDL
MODEL 8
REMARK VINA RESULT:      -6.8      2.224      3.757
REMARK  Name = 
REMARK  6 active torsions:
REMARK  status: ('A' for Active; 'I' for Inactive)
REMARK    1  A    between atoms: C_1  and  C_2
REMARK    2  A    between atoms: C_5  and  O_6
REMARK    3  A    between atoms: C_7  and  C_8
REMARK    4  A    between atoms: C_8  and  C_9
REMARK    5  A    between atoms: C_8  and  C_13
REMARK    6  A    between atoms: C_9  and  C_10
REMARK                            x       y       z     vdW  Elec       q    Type
REMARK                         _______ _______ _______ _____ _____    ______ ____
ROOT
ATOM      1  C   UNL     1       4.138   3.801  16.994  0.00  0.00    +0.000 C 
ENDROOT
BRANCH   1   7
ATOM      2  C   UNL     1       5.485   4.171  13.939  0.00  0.00    +0.000 C 
ATOM      3  C   UNL     1       6.078   4.295  15.293  0.00  0.00    +0.000 A 
ATOM      4  N   UNL     1       7.394   4.647  15.452  0.00  0.00    +0.000 N 
ATOM      5  N   UNL     1       7.806   4.638  16.729  0.00  0.00    +0.000 NA
ATOM      6  C   UNL     1       6.694   4.338  17.378  0.00  0.00    +0.000 A 
ATOM      7  C   UNL     1       5.558   4.142  16.580  0.00  0.00    +0.000 A 
ATOM      8  H   UNL     1       8.067   4.887  14.730  0.00  0.00    +0.000 HD
BRANCH   6   9
ATOM      9  O   UNL     1       6.864   4.248  18.693  0.00  0.00    +0.000 OA
ATOM     10  H   UNL     1       6.043   3.819  18.998  0.00  0.00    +0.000 HD
ENDBRANCH   6   9
ENDBRANCH   1   7
BRANCH   1  11
ATOM     11  C   UNL     1       3.487   4.829  17.883  0.00  0.00    +0.000 A 
ATOM     12  C   UNL     1       2.257   5.458  17.844  0.00  0.00    +0.000 A 
ATOM     13  C   UNL     1       2.229   6.359  18.937  0.00  0.00    +0.000 A 
ATOM     14  C   UNL     1       3.431   6.212  19.583  0.00  0.00    +0.000 A 
ATOM     15  O   UNL     1       4.202   5.294  18.949  0.00  0.00    +0.000 OA
ENDBRANCH   1  11
BRANCH   1  16
ATOM     16  C   UNL     1       3.928   2.371  17.519  0.00  0.00    +0.000 C 
BRANCH  16  17
ATOM     17  C   UNL     1       3.730   2.238  19.019  0.00  0.00    +0.000 C 
ATOM     18  N   UNL     1       4.893   2.221  19.745  0.00  0.00    +0.000 N 
ATOM     19  O   UNL     1       2.660   2.062  19.586  0.00  0.00    +0.000 OA
ATOM     20  H   UNL     1       5.660   2.793  19.409  0.00  0.00    +0.000 HD
ATOM     21  H   UNL     1       4.743   2.253  20.745  0.00  0.00    +0.000 HD
ENDBRANCH  16  17
ENDBRANCH   1  16
TORSDOF 5
ENDMDL
MODEL 9
REMARK VINA RESULT:      -6.7      2.173      3.424
REMARK  Name = 
REMARK  6 active torsions:
REMARK  status: ('A' for Active; 'I' for Inactive)
REMARK    1  A    between atoms: C_1  and  C_2
REMARK    2  A    between atoms: C_5  and  O_6
REMARK    3  A    between atoms: C_7  and  C_8
REMARK    4  A    between atoms: C_8  and  C_9
REMARK    5  A    between atoms: C_8  and  C_13
REMARK    6  A    between atoms: C_9  and  C_10
REMARK                            x       y       z     vdW  Elec       q    Type
REMARK                         _______ _______ _______ _____ _____    ______ ____
ROOT
ATOM      1  C   UNL     1       3.995   4.642  17.145  0.00  0.00    +0.000 C 
ENDROOT
BRANCH   1   7
ATOM      2  C   UNL     1       6.275   3.859  14.806  0.00  0.00    +0.000 C 
ATOM      3  C   UNL     1       6.424   4.230  16.234  0.00  0.00    +0.000 A 
ATOM      4  N   UNL     1       7.667   4.331  16.805  0.00  0.00    +0.000 N 
ATOM      5  N   UNL     1       7.638   4.593  18.120  0.00  0.00    +0.000 NA
ATOM      6  C   UNL     1       6.343   4.723  18.350  0.00  0.00    +0.000 A 
ATOM      7  C   UNL     1       5.507   4.553  17.236  0.00  0.00    +0.000 A 
ATOM      8  H   UNL     1       8.571   4.215  16.356  0.00  0.00    +0.000 HD
BRANCH   6   9
ATOM      9  O   UNL     1       6.060   4.969  19.625  0.00  0.00    +0.000 OA
ATOM     10  H   UNL     1       5.198   4.532  19.753  0.00  0.00    +0.000 HD
ENDBRANCH   6   9
ENDBRANCH   1   7
BRANCH   1  11
ATOM     11  C   UNL     1       3.403   5.848  17.827  0.00  0.00    +0.000 A 
ATOM     12  C   UNL     1       2.600   5.995  18.943  0.00  0.00    +0.000 A 
ATOM     13  C   UNL     1       2.336   7.381  19.072  0.00  0.00    +0.000 A 
ATOM     14  C   UNL     1       3.006   7.994  18.042  0.00  0.00    +0.000 A 
ATOM     15  O   UNL     1       3.648   7.075  17.279  0.00  0.00    +0.000 OA
ENDBRANCH   1  11
BRANCH   1  16
ATOM     16  C   UNL     1       3.234   3.353  17.494  0.00  0.00    +0.000 C 
BRANCH  16  17
ATOM     17  C   UNL     1       3.794   2.544  18.652  0.00  0.00    +0.000 C 
ATOM     18  N   UNL     1       4.152   1.262  18.325  0.00  0.00    +0.000 N 
ATOM     19  O   UNL     1       3.858   2.914  19.816  0.00  0.00    +0.000 OA
ATOM     20  H   UNL     1       4.534   1.106  17.400  0.00  0.00    +0.000 HD
ATOM     21  H   UNL     1       4.632   0.777  19.073  0.00  0.00    +0.000 HD
ENDBRANCH  16  17
ENDBRANCH   1  16
TORSDOF 5
ENDMDL
