MODEL 1
REMARK VINA RESULT:      -7.9      0.000      0.000
REMARK  Name = 
REMARK  2 active torsions:
REMARK  status: ('A' for Active; 'I' for Inactive)
REMARK    1  A    between atoms: C_1  and  C_2
REMARK    2  A    between atoms: C_11  and  C_13
REMARK                            x       y       z     vdW  Elec       q    Type
REMARK                         _______ _______ _______ _____ _____    ______ ____
ROOT
ATOM      1  C   UNL     1      -2.676  11.470  18.734  0.00  0.00    +0.000 C 
ATOM      2  C   UNL     1      -1.399  10.728  18.833  0.00  0.00    +0.000 A 
ATOM      3  C   UNL     1      -0.606  10.194  17.795  0.00  0.00    +0.000 A 
ATOM      4  C   UNL     1       0.509   9.660  18.413  0.00  0.00    +0.000 A 
ATOM      5  N   UNL     1       0.311   9.879  19.752  0.00  0.00    +0.000 N 
ATOM      6  N   UNL     1      -0.844  10.512  20.028  0.00  0.00    +0.000 NA
ATOM      7  C   UNL     1       1.172   9.534  20.858  0.00  0.00    +0.000 C 
ATOM      8  C   UNL     1       1.835   8.161  20.805  0.00  0.00    +0.000 C 
ATOM      9  C   UNL     1       1.478   7.293  19.595  0.00  0.00    +0.000 C 
ATOM     10  N   UNL     1       2.178   7.781  18.402  0.00  0.00    +0.000 N 
ATOM     11  C   UNL     1       3.352   7.262  17.831  0.00  0.00    +0.000 C 
ATOM     12  O   UNL     1       3.845   7.818  16.844  0.00  0.00    +0.000 OA
ATOM     13  C   UNL     1       1.732   9.051  17.816  0.00  0.00    +0.000 C 
ENDROOT
BRANCH  11  14
ATOM     14  C   UNL     1       4.049   6.031  18.379  0.00  0.00    +0.000 A 
ATOM     15  C   UNL     1       5.337   6.112  18.747  0.00  0.00    +0.000 A 
ATOM     16  C   UNL     1       6.103   5.001  19.330  0.00  0.00    +0.000 A 
ATOM     17  O   UNL     1       7.216   5.192  19.802  0.00  0.00    +0.000 OA
ATOM     18  N   UNL     1       5.508   3.781  19.305  0.00  0.00    +0.000 N 
ATOM     19  C   UNL     1       4.237   3.564  18.775  0.00  0.00    +0.000 A 
ATOM     20  C   UNL     1       3.780   2.244  18.696  0.00  0.00    +0.000 A 
ATOM     21  C   UNL     1       2.539   1.978  18.135  0.00  0.00    +0.000 A 
ATOM     22  C   UNL     1       1.755   3.031  17.672  0.00  0.00    +0.000 A 
ATOM     23  C   UNL     1       2.207   4.355  17.772  0.00  0.00    +0.000 A 
ATOM     24  C   UNL     1       3.467   4.652  18.315  0.00  0.00    +0.000 A 
ATOM     25  H   UNL     1       6.055   3.015  19.673  0.00  0.00    +0.000 HD
ENDBRANCH  11  14
TORSDOF 1
ENDMDL
MODEL 2
REMARK VINA RESULT:      -7.8      3.647      7.067
REMARK  Name = 
REMARK  2 active torsions:
REMARK  status: ('A' for Active; 'I' for Inactive)
REMARK    1  A    between atoms: C_1  and  C_2
REMARK    2  A    between atoms: C_11  and  C_13
REMARK                            x       y       z     vdW  Elec       q    Type
REMARK                         _______ _______ _______ _____ _____    ______ ____
ROOT
ATOM      1  C   UNL     1       7.842   5.175  11.983  0.00  0.00    +0.000 C 
ATOM      2  C   UNL     1       7.197   4.887  13.284  0.00  0.00    +0.000 A 
ATOM      3  C   UNL     1       5.898   4.396  13.536  0.00  0.00    +0.000 A 
ATOM      4  C   UNL     1       5.817   4.240  14.907  0.00  0.00    +0.000 A 
ATOM      5  N   UNL     1       7.032   4.659  15.384  0.00  0.00    +0.000 N 
ATOM      6  N   UNL     1       7.877   5.066  14.418  0.00  0.00    +0.000 NA
ATOM      7  C   UNL     1       7.498   4.700  16.749  0.00  0.00    +0.000 C 
ATOM      8  C   UNL     1       6.504   5.193  17.796  0.00  0.00    +0.000 C 
ATOM      9  C   UNL     1       5.133   5.621  17.266  0.00  0.00    +0.000 C 
ATOM     10  N   UNL     1       4.333   4.440  16.926  0.00  0.00    +0.000 N 
ATOM     11  C   UNL     1       3.321   3.845  17.697  0.00  0.00    +0.000 C 
ATOM     12  O   UNL     1       2.767   2.820  17.288  0.00  0.00    +0.000 OA
ATOM     13  C   UNL     1       4.720   3.667  15.739  0.00  0.00    +0.000 C 
ENDROOT
BRANCH  11  14
ATOM     14  C   UNL     1       2.870   4.416  19.029  0.00  0.00    +0.000 A 
ATOM     15  C   UNL     1       2.596   3.583  20.044  0.00  0.00    +0.000 A 
ATOM     16  C   UNL     1       2.193   4.020  21.388  0.00  0.00    +0.000 A 
ATOM     17  O   UNL     1       2.128   3.218  22.311  0.00  0.00    +0.000 OA
ATOM     18  N   UNL     1       1.904   5.338  21.532  0.00  0.00    +0.000 N 
ATOM     19  C   UNL     1       1.985   6.255  20.483  0.00  0.00    +0.000 A 
ATOM     20  C   UNL     1       1.546   7.560  20.723  0.00  0.00    +0.000 A 
ATOM     21  C   UNL     1       1.568   8.494  19.696  0.00  0.00    +0.000 A 
ATOM     22  C   UNL     1       2.045   8.122  18.442  0.00  0.00    +0.000 A 
ATOM     23  C   UNL     1       2.505   6.818  18.210  0.00  0.00    +0.000 A 
ATOM     24  C   UNL     1       2.473   5.847  19.224  0.00  0.00    +0.000 A 
ATOM     25  H   UNL     1       1.591   5.626  22.449  0.00  0.00    +0.000 HD
ENDBRANCH  11  14
TORSDOF 1
ENDMDL
MODEL 3
REMARK VINA RESULT:      -7.3      2.061      2.851
REMARK  Name = 
REMARK  2 active torsions:
REMARK  status: ('A' for Active; 'I' for Inactive)
REMARK    1  A    between atoms: C_1  and  C_2
REMARK    2  A    between atoms: C_11  and  C_13
REMARK                            x       y       z     vdW  Elec       q    Type
REMARK                         _______ _______ _______ _____ _____    ______ ____
ROOT
ATOM      1  C   UNL     1      -0.915  14.569  20.017  0.00  0.00    +0.000 C 
ATOM      2  C   UNL     1      -0.587  13.138  19.829  0.00  0.00    +0.000 A 
ATOM      3  C   UNL     1       0.173  12.290  20.662  0.00  0.00    +0.000 A 
ATOM      4  C   UNL     1       0.121  11.041  20.072  0.00  0.00    +0.000 A 
ATOM      5  N   UNL     1      -0.628  11.217  18.937  0.00  0.00    +0.000 N 
ATOM      6  N   UNL     1      -1.055  12.481  18.765  0.00  0.00    +0.000 NA
ATOM      7  C   UNL     1      -1.009  10.236  17.949  0.00  0.00    +0.000 C 
ATOM      8  C   UNL     1       0.065   9.237  17.529  0.00  0.00    +0.000 C 
ATOM      9  C   UNL     1       1.438   9.417  18.184  0.00  0.00    +0.000 C 
ATOM     10  N   UNL     1       1.401   8.937  19.569  0.00  0.00    +0.000 N 
ATOM     11  C   UNL     1       1.858   7.702  20.056  0.00  0.00    +0.000 C 
ATOM     12  O   UNL     1       1.714   7.428  21.252  0.00  0.00    +0.000 OA
ATOM     13  C   UNL     1       0.658   9.736  20.553  0.00  0.00    +0.000 C 
ENDROOT
BRANCH  11  14
ATOM     14  C   UNL     1       2.531   6.674  19.166  0.00  0.00    +0.000 A 
ATOM     15  C   UNL     1       3.323   7.086  18.164  0.00  0.00    +0.000 A 
ATOM     16  C   UNL     1       4.059   6.185  17.266  0.00  0.00    +0.000 A 
ATOM     17  O   UNL     1       4.896   6.627  16.489  0.00  0.00    +0.000 OA
ATOM     18  N   UNL     1       3.753   4.866  17.353  0.00  0.00    +0.000 N 
ATOM     19  C   UNL     1       2.805   4.360  18.243  0.00  0.00    +0.000 A 
ATOM     20  C   UNL     1       2.489   3.001  18.155  0.00  0.00    +0.000 A 
ATOM     21  C   UNL     1       1.520   2.465  18.992  0.00  0.00    +0.000 A 
ATOM     22  C   UNL     1       0.886   3.284  19.922  0.00  0.00    +0.000 A 
ATOM     23  C   UNL     1       1.221   4.642  20.021  0.00  0.00    +0.000 A 
ATOM     24  C   UNL     1       2.181   5.217  19.173  0.00  0.00    +0.000 A 
ATOM     25  H   UNL     1       4.235   4.256  16.707  0.00  0.00    +0.000 HD
ENDBRANCH  11  14
TORSDOF 1
ENDMDL
MODEL 4
REMARK VINA RESULT:      -7.2      3.439      8.387
REMARK  Name = 
REMARK  2 active torsions:
REMARK  status: ('A' for Active; 'I' for Inactive)
REMARK    1  A    between atoms: C_1  and  C_2
REMARK    2  A    between atoms: C_11  and  C_13
REMARK                            x       y       z     vdW  Elec       q    Type
REMARK                         _______ _______ _______ _____ _____    ______ ____
ROOT
ATOM      1  C   UNL     1       2.724   3.714  18.635  0.00  0.00    +0.000 C 
ATOM      2  C   UNL     1       2.504   5.154  18.899  0.00  0.00    +0.000 A 
ATOM      3  C   UNL     1       1.966   5.767  20.050  0.00  0.00    +0.000 A 
ATOM      4  C   UNL     1       2.038   7.128  19.817  0.00  0.00    +0.000 A 
ATOM      5  N   UNL     1       2.579   7.243  18.563  0.00  0.00    +0.000 N 
ATOM      6  N   UNL     1       2.856   6.060  17.985  0.00  0.00    +0.000 NA
ATOM      7  C   UNL     1       2.888   8.444  17.822  0.00  0.00    +0.000 C 
ATOM      8  C   UNL     1       1.857   9.568  17.883  0.00  0.00    +0.000 C 
ATOM      9  C   UNL     1       0.595   9.273  18.698  0.00  0.00    +0.000 C 
ATOM     10  N   UNL     1       0.894   9.344  20.132  0.00  0.00    +0.000 N 
ATOM     11  C   UNL     1       0.635  10.413  21.005  0.00  0.00    +0.000 C 
ATOM     12  O   UNL     1       0.991  10.334  22.185  0.00  0.00    +0.000 OA
ATOM     13  C   UNL     1       1.707   8.269  20.717  0.00  0.00    +0.000 C 
ENDROOT
BRANCH  11  14
ATOM     14  C   UNL     1      -0.073  11.678  20.556  0.00  0.00    +0.000 A 
ATOM     15  C   UNL     1      -1.412  11.692  20.480  0.00  0.00    +0.000 A 
ATOM     16  C   UNL     1      -2.207  12.869  20.101  0.00  0.00    +0.000 A 
ATOM     17  O   UNL     1      -3.425  12.862  20.221  0.00  0.00    +0.000 OA
ATOM     18  N   UNL     1      -1.516  13.933  19.619  0.00  0.00    +0.000 N 
ATOM     19  C   UNL     1      -0.127  13.945  19.489  0.00  0.00    +0.000 A 
ATOM     20  C   UNL     1       0.460  15.051  18.868  0.00  0.00    +0.000 A 
ATOM     21  C   UNL     1       1.835  15.084  18.679  0.00  0.00    +0.000 A 
ATOM     22  C   UNL     1       2.616  14.022  19.126  0.00  0.00    +0.000 A 
ATOM     23  C   UNL     1       2.025  12.924  19.769  0.00  0.00    +0.000 A 
ATOM     24  C   UNL     1       0.635  12.853  19.953  0.00  0.00    +0.000 A 
ATOM     25  H   UNL     1      -2.071  14.725  19.324  0.00  0.00    +0.000 HD
ENDBRANCH  11  14
TORSDOF 1
ENDMDL
MODEL 5
REMARK VINA RESULT:      -6.9      1.066      1.109
REMARK  Name = 
REMARK  2 active torsions:
REMARK  status: ('A' for Active; 'I' for Inactive)
REMARK    1  A    between atoms: C_1  and  C_2
REMARK    2  A    between atoms: C_11  and  C_13
REMARK                            x       y       z     vdW  Elec       q    Type
REMARK                         _______ _______ _______ _____ _____    ______ ____
ROOT
ATOM      1  C   UNL     1      -2.564  12.103  20.594  0.00  0.00    +0.000 C 
ATOM      2  C   UNL     1      -1.363  11.250  20.436  0.00  0.00    +0.000 A 
ATOM      3  C   UNL     1      -0.797  10.736  19.250  0.00  0.00    +0.000 A 
ATOM      4  C   UNL     1       0.345  10.063  19.643  0.00  0.00    +0.000 A 
ATOM      5  N   UNL     1       0.379  10.191  21.007  0.00  0.00    +0.000 N 
ATOM      6  N   UNL     1      -0.653  10.895  21.508  0.00  0.00    +0.000 NA
ATOM      7  C   UNL     1       1.365   9.689  21.934  0.00  0.00    +0.000 C 
ATOM      8  C   UNL     1       1.878   8.273  21.685  0.00  0.00    +0.000 C 
ATOM      9  C   UNL     1       1.256   7.537  20.495  0.00  0.00    +0.000 C 
ATOM     10  N   UNL     1       1.805   8.057  19.239  0.00  0.00    +0.000 N 
ATOM     11  C   UNL     1       2.820   7.489  18.452  0.00  0.00    +0.000 C 
ATOM     12  O   UNL     1       3.204   8.078  17.436  0.00  0.00    +0.000 OA
ATOM     13  C   UNL     1       1.396   9.403  18.816  0.00  0.00    +0.000 C 
ENDROOT
BRANCH  11  14
ATOM     14  C   UNL     1       3.474   6.164  18.798  0.00  0.00    +0.000 A 
ATOM     15  C   UNL     1       4.805   6.107  18.954  0.00  0.00    +0.000 A 
ATOM     16  C   UNL     1       5.543   4.892  19.331  0.00  0.00    +0.000 A 
ATOM     17  O   UNL     1       6.730   4.951  19.625  0.00  0.00    +0.000 OA
ATOM     18  N   UNL     1       4.837   3.733  19.327  0.00  0.00    +0.000 N 
ATOM     19  C   UNL     1       3.483   3.666  18.999  0.00  0.00    +0.000 A 
ATOM     20  C   UNL     1       2.895   2.401  18.913  0.00  0.00    +0.000 A 
ATOM     21  C   UNL     1       1.561   2.285  18.547  0.00  0.00    +0.000 A 
ATOM     22  C   UNL     1       0.819   3.434  18.288  0.00  0.00    +0.000 A 
ATOM     23  C   UNL     1       1.406   4.703  18.396  0.00  0.00    +0.000 A 
ATOM     24  C   UNL     1       2.759   4.849  18.742  0.00  0.00    +0.000 A 
ATOM     25  H   UNL     1       5.359   2.897  19.550  0.00  0.00    +0.000 HD
ENDBRANCH  11  14
TORSDOF 1
ENDMDL
MODEL 6
REMARK VINA RESULT:      -6.8      2.622      7.584
REMARK  Name = 
REMARK  2 active torsions:
REMARK  status: ('A' for Active; 'I' for Inactive)
REMARK    1  A    between atoms: C_1  and  C_2
REMARK    2  A    between atoms: C_11  and  C_13
REMARK                            x       y       z     vdW  Elec       q    Type
REMARK                         _______ _______ _______ _____ _____    ______ ____
ROOT
ATOM      1  C   UNL     1       3.274   2.790  19.702  0.00  0.00    +0.000 C 
ATOM      2  C   UNL     1       3.009   4.243  19.605  0.00  0.00    +0.000 A 
ATOM      3  C   UNL     1       2.195   5.048  20.429  0.00  0.00    +0.000 A 
ATOM      4  C   UNL     1       2.342   6.338  19.955  0.00  0.00    +0.000 A 
ATOM      5  N   UNL     1       3.195   6.227  18.887  0.00  0.00    +0.000 N 
ATOM      6  N   UNL     1       3.600   4.966  18.651  0.00  0.00    +0.000 NA
ATOM      7  C   UNL     1       3.701   7.270  18.027  0.00  0.00    +0.000 C 
ATOM      8  C   UNL     1       2.704   8.340  17.591  0.00  0.00    +0.000 C 
ATOM      9  C   UNL     1       1.269   8.159  18.092  0.00  0.00    +0.000 C 
ATOM     10  N   UNL     1       1.181   8.522  19.510  0.00  0.00    +0.000 N 
ATOM     11  C   UNL     1       0.714   9.731  20.053  0.00  0.00    +0.000 C 
ATOM     12  O   UNL     1       0.746   9.901  21.276  0.00  0.00    +0.000 OA
ATOM     13  C   UNL     1       1.799   7.619  20.490  0.00  0.00    +0.000 C 
ENDROOT
BRANCH  11  14
ATOM     14  C   UNL     1       0.164  10.852  19.192  0.00  0.00    +0.000 A 
ATOM     15  C   UNL     1       0.680  12.085  19.306  0.00  0.00    +0.000 A 
ATOM     16  C   UNL     1       0.258  13.237  18.496  0.00  0.00    +0.000 A 
ATOM     17  O   UNL     1       0.888  14.286  18.530  0.00  0.00    +0.000 OA
ATOM     18  N   UNL     1      -0.850  13.063  17.732  0.00  0.00    +0.000 N 
ATOM     19  C   UNL     1      -1.565  11.866  17.687  0.00  0.00    +0.000 A 
ATOM     20  C   UNL     1      -2.758  11.846  16.958  0.00  0.00    +0.000 A 
ATOM     21  C   UNL     1      -3.523  10.688  16.922  0.00  0.00    +0.000 A 
ATOM     22  C   UNL     1      -3.084   9.554  17.600  0.00  0.00    +0.000 A 
ATOM     23  C   UNL     1      -1.876   9.572  18.313  0.00  0.00    +0.000 A 
ATOM     24  C   UNL     1      -1.093  10.735  18.384  0.00  0.00    +0.000 A 
ATOM     25  H   UNL     1      -1.157  13.870  17.207  0.00  0.00    +0.000 HD
ENDBRANCH  11  14
TORSDOF 1
ENDMDL
MODEL 7
REMARK VINA RESULT:      -6.8      2.420      3.580
REMARK  Name = 
REMARK  2 active torsions:
REMARK  status: ('A' for Active; 'I' for Inactive)
REMARK    1  A    between atoms: C_1  and  C_2
REMARK    2  A    between atoms: C_11  and  C_13
REMARK                            x       y       z     vdW  Elec       q    Type
REMARK                         _______ _______ _______ _____ _____    ______ ____
ROOT
ATOM      1  C   UNL     1       0.775  14.323  19.841  0.00  0.00    +0.000 C 
ATOM      2  C   UNL     1       0.774  12.855  19.652  0.00  0.00    +0.000 A 
ATOM      3  C   UNL     1       1.440  11.868  20.409  0.00  0.00    +0.000 A 
ATOM      4  C   UNL     1       1.059  10.657  19.861  0.00  0.00    +0.000 A 
ATOM      5  N   UNL     1       0.228  10.985  18.821  0.00  0.00    +0.000 N 
ATOM      6  N   UNL     1       0.053  12.310  18.670  0.00  0.00    +0.000 NA
ATOM      7  C   UNL     1      -0.467  10.104  17.912  0.00  0.00    +0.000 C 
ATOM      8  C   UNL     1       0.317   8.903  17.391  0.00  0.00    +0.000 C 
ATOM      9  C   UNL     1       1.767   8.794  17.871  0.00  0.00    +0.000 C 
ATOM     10  N   UNL     1       1.804   8.332  19.262  0.00  0.00    +0.000 N 
ATOM     11  C   UNL     1       2.052   7.029  19.722  0.00  0.00    +0.000 C 
ATOM     12  O   UNL     1       2.004   6.791  20.933  0.00  0.00    +0.000 OA
ATOM     13  C   UNL     1       1.369   9.268  20.307  0.00  0.00    +0.000 C 
ENDROOT
BRANCH  11  14
ATOM     14  C   UNL     1       2.383   5.883  18.783  0.00  0.00    +0.000 A 
ATOM     15  C   UNL     1       1.694   4.736  18.875  0.00  0.00    +0.000 A 
ATOM     16  C   UNL     1       1.896   3.576  17.994  0.00  0.00    +0.000 A 
ATOM     17  O   UNL     1       1.118   2.632  18.020  0.00  0.00    +0.000 OA
ATOM     18  N   UNL     1       2.977   3.623  17.175  0.00  0.00    +0.000 N 
ATOM     19  C   UNL     1       3.860   4.702  17.139  0.00  0.00    +0.000 A 
ATOM     20  C   UNL     1       5.003   4.583  16.343  0.00  0.00    +0.000 A 
ATOM     21  C   UNL     1       5.931   5.615  16.311  0.00  0.00    +0.000 A 
ATOM     22  C   UNL     1       5.702   6.766  17.060  0.00  0.00    +0.000 A 
ATOM     23  C   UNL     1       4.544   6.891  17.841  0.00  0.00    +0.000 A 
ATOM     24  C   UNL     1       3.600   5.854  17.910  0.00  0.00    +0.000 A 
ATOM     25  H   UNL     1       3.132   2.807  16.599  0.00  0.00    +0.000 HD
ENDBRANCH  11  14
TORSDOF 1
ENDMDL
MODEL 8
REMARK VINA RESULT:      -6.7      3.158      8.124
REMARK  Name = 
REMARK  2 active torsions:
REMARK  status: ('A' for Active; 'I' for Inactive)
REMARK    1  A    between atoms: C_1  and  C_2
REMARK    2  A    between atoms: C_11  and  C_13
REMARK                            x       y       z     vdW  Elec       q    Type
REMARK                         _______ _______ _______ _____ _____    ______ ____
ROOT
ATOM      1  C   UNL     1       2.256   3.212  18.334  0.00  0.00    +0.000 C 
ATOM      2  C   UNL     1       2.229   4.641  18.719  0.00  0.00    +0.000 A 
ATOM      3  C   UNL     1       1.830   5.217  19.944  0.00  0.00    +0.000 A 
ATOM      4  C   UNL     1       2.059   6.574  19.811  0.00  0.00    +0.000 A 
ATOM      5  N   UNL     1       2.546   6.728  18.539  0.00  0.00    +0.000 N 
ATOM      6  N   UNL     1       2.645   5.572  17.857  0.00  0.00    +0.000 NA
ATOM      7  C   UNL     1       2.963   7.940  17.875  0.00  0.00    +0.000 C 
ATOM      8  C   UNL     1       2.084   9.170  18.083  0.00  0.00    +0.000 C 
ATOM      9  C   UNL     1       0.838   8.962  18.947  0.00  0.00    +0.000 C 
ATOM     10  N   UNL     1       1.215   8.877  20.362  0.00  0.00    +0.000 N 
ATOM     11  C   UNL     1       1.135   9.893  21.328  0.00  0.00    +0.000 C 
ATOM     12  O   UNL     1       1.537   9.675  22.475  0.00  0.00    +0.000 OA
ATOM     13  C   UNL     1       1.917   7.668  20.814  0.00  0.00    +0.000 C 
ENDROOT
BRANCH  11  14
ATOM     14  C   UNL     1       0.567  11.267  21.020  0.00  0.00    +0.000 A 
ATOM     15  C   UNL     1       1.265  12.109  20.244  0.00  0.00    +0.000 A 
ATOM     16  C   UNL     1       0.798  13.445  19.844  0.00  0.00    +0.000 A 
ATOM     17  O   UNL     1       1.404  14.088  18.996  0.00  0.00    +0.000 OA
ATOM     18  N   UNL     1      -0.318  13.904  20.465  0.00  0.00    +0.000 N 
ATOM     19  C   UNL     1      -1.013  13.169  21.425  0.00  0.00    +0.000 A 
ATOM     20  C   UNL     1      -2.077  13.795  22.081  0.00  0.00    +0.000 A 
ATOM     21  C   UNL     1      -2.768  13.116  23.074  0.00  0.00    +0.000 A 
ATOM     22  C   UNL     1      -2.405  11.810  23.394  0.00  0.00    +0.000 A 
ATOM     23  C   UNL     1      -1.351  11.178  22.718  0.00  0.00    +0.000 A 
ATOM     24  C   UNL     1      -0.620  11.848  21.725  0.00  0.00    +0.000 A 
ATOM     25  H   UNL     1      -0.612  14.837  20.213  0.00  0.00    +0.000 HD
ENDBRANCH  11  14
TORSDOF 1
ENDMDL
MODEL 9
REMARK VINA RESULT:      -6.7      3.066      8.135
REMARK  Name = 
REMARK  2 active torsions:
REMARK  status: ('A' for Active; 'I' for Inactive)
REMARK    1  A    between atoms: C_1  and  C_2
REMARK    2  A    between atoms: C_11  and  C_13
REMARK                            x       y       z     vdW  Elec       q    Type
REMARK                         _______ _______ _______ _____ _____    ______ ____
ROOT
ATOM      1  C   UNL     1       3.443   2.956  19.185  0.00  0.00    +0.000 C 
ATOM      2  C   UNL     1       3.134   4.403  19.221  0.00  0.00    +0.000 A 
ATOM      3  C   UNL     1       2.318   5.108  20.131  0.00  0.00    +0.000 A 
ATOM      4  C   UNL     1       2.415   6.438  19.768  0.00  0.00    +0.000 A 
ATOM      5  N   UNL     1       3.244   6.447  18.675  0.00  0.00    +0.000 N 
ATOM      6  N   UNL     1       3.679   5.224  18.321  0.00  0.00    +0.000 NA
ATOM      7  C   UNL     1       3.698   7.575  17.899  0.00  0.00    +0.000 C 
ATOM      8  C   UNL     1       2.659   8.647  17.580  0.00  0.00    +0.000 C 
ATOM      9  C   UNL     1       1.243   8.379  18.096  0.00  0.00    +0.000 C 
ATOM     10  N   UNL     1       1.181   8.616  19.542  0.00  0.00    +0.000 N 
ATOM     11  C   UNL     1       0.694   9.757  20.199  0.00  0.00    +0.000 C 
ATOM     12  O   UNL     1       0.752   9.822  21.431  0.00  0.00    +0.000 OA
ATOM     13  C   UNL     1       1.849   7.651  20.425  0.00  0.00    +0.000 C 
ENDROOT
BRANCH  11  14
ATOM     14  C   UNL     1       0.089  10.932  19.451  0.00  0.00    +0.000 A 
ATOM     15  C   UNL     1      -0.932  10.721  18.608  0.00  0.00    +0.000 A 
ATOM     16  C   UNL     1      -1.623  11.784  17.863  0.00  0.00    +0.000 A 
ATOM     17  O   UNL     1      -2.654  11.543  17.248  0.00  0.00    +0.000 OA
ATOM     18  N   UNL     1      -1.054  13.015  17.901  0.00  0.00    +0.000 N 
ATOM     19  C   UNL     1       0.117  13.291  18.608  0.00  0.00    +0.000 A 
ATOM     20  C   UNL     1       0.673  14.567  18.473  0.00  0.00    +0.000 A 
ATOM     21  C   UNL     1       1.861  14.872  19.124  0.00  0.00    +0.000 A 
ATOM     22  C   UNL     1       2.475  13.907  19.918  0.00  0.00    +0.000 A 
ATOM     23  C   UNL     1       1.903  12.636  20.068  0.00  0.00    +0.000 A 
ATOM     24  C   UNL     1       0.714  12.293  19.404  0.00  0.00    +0.000 A 
ATOM     25  H   UNL     1      -1.513  13.732  17.357  0.00  0.00    +0.000 HD
ENDBRANCH  11  14
TORSDOF 1
ENDMDL
