MODEL 1
REMARK VINA RESULT:      -8.7      0.000      0.000
REMARK  Name = 
REMARK  5 active torsions:
REMARK  status: ('A' for Active; 'I' for Inactive)
REMARK    1  A    between atoms: C_1  and  C_2
REMARK    2  A    between atoms: C_5  and  N_6
REMARK    3  A    between atoms: C_7  and  C_9
REMARK    4  A    between atoms: C_16  and  C_17
REMARK    5  A    between atoms: C_22  and  C_23
REMARK                            x       y       z     vdW  Elec       q    Type
REMARK                         _______ _______ _______ _____ _____    ______ ____
ROOT
ATOM      1  C   UNL     1       1.042   9.472  19.217  0.00  0.00    +0.000 A 
ATOM      2  C   UNL     1       0.954   9.237  20.585  0.00  0.00    +0.000 A 
ATOM      3  C   UNL     1       0.102  10.032  21.384  0.00  0.00    +0.000 A 
ATOM      4  C   UNL     1      -0.650  11.069  20.828  0.00  0.00    +0.000 A 
ATOM      5  N   UNL     1      -1.492  11.890  21.577  0.00  0.00    +0.000 N 
ATOM      6  C   UNL     1      -2.269  12.881  20.823  0.00  0.00    +0.000 C 
ATOM      7  C   UNL     1      -3.703  12.934  21.342  0.00  0.00    +0.000 C 
ATOM      8  C   UNL     1      -3.669  13.546  22.740  0.00  0.00    +0.000 C 
ATOM      9  C   UNL     1      -2.678  12.748  23.635  0.00  0.00    +0.000 C 
ATOM     10  C   UNL     1      -1.954  11.565  22.935  0.00  0.00    +0.000 C 
ATOM     11  N   UNL     1      -0.522  11.307  19.499  0.00  0.00    +0.000 NA
ATOM     12  C   UNL     1       0.298  10.530  18.732  0.00  0.00    +0.000 A 
ENDROOT
BRANCH   8  13
ATOM     13  C   UNL     1      -5.084  13.812  23.262  0.00  0.00    +0.000 A 
ATOM     14  C   UNL     1      -5.914  12.745  23.650  0.00  0.00    +0.000 A 
ATOM     15  C   UNL     1      -7.210  12.969  24.135  0.00  0.00    +0.000 A 
ATOM     16  C   UNL     1      -7.715  14.262  24.230  0.00  0.00    +0.000 A 
ATOM     17  C   UNL     1      -6.933  15.330  23.810  0.00  0.00    +0.000 A 
ATOM     18  C   UNL     1      -5.631  15.125  23.308  0.00  0.00    +0.000 A 
ATOM     19  C   UNL     1      -4.872  16.353  22.874  0.00  0.00    +0.000 C 
ENDBRANCH   8  13
BRANCH   1  21
ATOM     20  N   UNL     1       2.296   7.430  18.705  0.00  0.00    +0.000 N 
ATOM     21  C   UNL     1       1.910   8.697  18.275  0.00  0.00    +0.000 C 
ATOM     22  O   UNL     1       2.193   9.215  17.205  0.00  0.00    +0.000 OA
ATOM     23  H   UNL     1       1.901   7.093  19.572  0.00  0.00    +0.000 HD
BRANCH  20  28
ATOM     24  C   UNL     1       5.855   3.909  15.863  0.00  0.00    +0.000 C 
ATOM     25  C   UNL     1       4.931   4.814  16.628  0.00  0.00    +0.000 A 
ATOM     26  C   UNL     1       3.752   4.316  17.192  0.00  0.00    +0.000 A 
ATOM     27  C   UNL     1       2.875   5.159  17.889  0.00  0.00    +0.000 A 
ATOM     28  C   UNL     1       3.154   6.517  18.040  0.00  0.00    +0.000 A 
ATOM     29  C   UNL     1       4.343   7.014  17.481  0.00  0.00    +0.000 A 
ATOM     30  C   UNL     1       5.218   6.171  16.781  0.00  0.00    +0.000 A 
ENDBRANCH  20  28
ENDBRANCH   1  21
TORSDOF 3
ENDMDL
MODEL 2
REMARK VINA RESULT:      -8.5      2.398     11.656
REMARK  Name = 
REMARK  5 active torsions:
REMARK  status: ('A' for Active; 'I' for Inactive)
REMARK    1  A    between atoms: C_1  and  C_2
REMARK    2  A    between atoms: C_5  and  N_6
REMARK    3  A    between atoms: C_7  and  C_9
REMARK    4  A    between atoms: C_16  and  C_17
REMARK    5  A    between atoms: C_22  and  C_23
REMARK                            x       y       z     vdW  Elec       q    Type
REMARK                         _______ _______ _______ _____ _____    ______ ____
ROOT
ATOM      1  C   UNL     1      -1.669  11.994  22.039  0.00  0.00    +0.000 A 
ATOM      2  C   UNL     1      -1.618  12.089  20.652  0.00  0.00    +0.000 A 
ATOM      3  C   UNL     1      -0.749  11.253  19.919  0.00  0.00    +0.000 A 
ATOM      4  C   UNL     1       0.082  10.332  20.562  0.00  0.00    +0.000 A 
ATOM      5  N   UNL     1       0.967   9.496  19.883  0.00  0.00    +0.000 N 
ATOM      6  C   UNL     1       1.709   8.533  20.705  0.00  0.00    +0.000 C 
ATOM      7  C   UNL     1       1.748   7.171  20.018  0.00  0.00    +0.000 C 
ATOM      8  C   UNL     1       2.640   7.297  18.785  0.00  0.00    +0.000 C 
ATOM      9  C   UNL     1       2.134   8.466  17.893  0.00  0.00    +0.000 C 
ATOM     10  C   UNL     1       0.896   9.232  18.437  0.00  0.00    +0.000 C 
ATOM     11  N   UNL     1       0.045  10.279  21.916  0.00  0.00    +0.000 NA
ATOM     12  C   UNL     1      -0.803  11.086  22.618  0.00  0.00    +0.000 A 
ENDROOT
BRANCH   8  13
ATOM     13  C   UNL     1       2.888   5.931  18.140  0.00  0.00    +0.000 A 
ATOM     14  C   UNL     1       1.921   4.914  18.228  0.00  0.00    +0.000 A 
ATOM     15  C   UNL     1       2.129   3.659  17.639  0.00  0.00    +0.000 A 
ATOM     16  C   UNL     1       3.313   3.383  16.961  0.00  0.00    +0.000 A 
ATOM     17  C   UNL     1       4.303   4.355  16.900  0.00  0.00    +0.000 A 
ATOM     18  C   UNL     1       4.119   5.619  17.496  0.00  0.00    +0.000 A 
ATOM     19  C   UNL     1       5.260   6.597  17.375  0.00  0.00    +0.000 C 
ENDBRANCH   8  13
BRANCH   1  21
ATOM     20  N   UNL     1      -2.559  14.194  22.648  0.00  0.00    +0.000 N 
ATOM     21  C   UNL     1      -2.548  12.828  22.917  0.00  0.00    +0.000 C 
ATOM     22  O   UNL     1      -3.200  12.255  23.779  0.00  0.00    +0.000 OA
ATOM     23  H   UNL     1      -2.046  14.511  21.838  0.00  0.00    +0.000 HD
BRANCH  20  28
ATOM     24  C   UNL     1      -5.234  18.263  25.718  0.00  0.00    +0.000 C 
ATOM     25  C   UNL     1      -4.539  17.216  24.894  0.00  0.00    +0.000 A 
ATOM     26  C   UNL     1      -5.224  16.533  23.885  0.00  0.00    +0.000 A 
ATOM     27  C   UNL     1      -4.587  15.540  23.126  0.00  0.00    +0.000 A 
ATOM     28  C   UNL     1      -3.253  15.208  23.357  0.00  0.00    +0.000 A 
ATOM     29  C   UNL     1      -2.563  15.902  24.365  0.00  0.00    +0.000 A 
ATOM     30  C   UNL     1      -3.201  16.892  25.125  0.00  0.00    +0.000 A 
ENDBRANCH  20  28
ENDBRANCH   1  21
TORSDOF 3
ENDMDL
MODEL 3
REMARK VINA RESULT:      -8.4      1.881     11.809
REMARK  Name = 
REMARK  5 active torsions:
REMARK  status: ('A' for Active; 'I' for Inactive)
REMARK    1  A    between atoms: C_1  and  C_2
REMARK    2  A    between atoms: C_5  and  N_6
REMARK    3  A    between atoms: C_7  and  C_9
REMARK    4  A    between atoms: C_16  and  C_17
REMARK    5  A    between atoms: C_22  and  C_23
REMARK                            x       y       z     vdW  Elec       q    Type
REMARK                         _______ _______ _______ _____ _____    ______ ____
ROOT
ATOM      1  C   UNL     1      -0.390  11.085  21.850  0.00  0.00    +0.000 A 
ATOM      2  C   UNL     1      -0.033   9.907  22.497  0.00  0.00    +0.000 A 
ATOM      3  C   UNL     1       0.630   8.884  21.786  0.00  0.00    +0.000 A 
ATOM      4  C   UNL     1       0.925   9.022  20.427  0.00  0.00    +0.000 A 
ATOM      5  N   UNL     1       1.563   8.034  19.678  0.00  0.00    +0.000 N 
ATOM      6  C   UNL     1       1.867   8.374  18.283  0.00  0.00    +0.000 C 
ATOM      7  C   UNL     1       3.270   7.898  17.917  0.00  0.00    +0.000 C 
ATOM      8  C   UNL     1       3.249   6.372  17.881  0.00  0.00    +0.000 C 
ATOM      9  C   UNL     1       2.704   5.826  19.231  0.00  0.00    +0.000 C 
ATOM     10  C   UNL     1       2.298   6.906  20.272  0.00  0.00    +0.000 C 
ATOM     11  N   UNL     1       0.535  10.162  19.804  0.00  0.00    +0.000 NA
ATOM     12  C   UNL     1      -0.099  11.150  20.501  0.00  0.00    +0.000 A 
ENDROOT
BRANCH   8  13
ATOM     13  C   UNL     1       4.568   5.813  17.337  0.00  0.00    +0.000 A 
ATOM     14  C   UNL     1       5.703   6.637  17.234  0.00  0.00    +0.000 A 
ATOM     15  C   UNL     1       6.919   6.142  16.744  0.00  0.00    +0.000 A 
ATOM     16  C   UNL     1       7.028   4.817  16.330  0.00  0.00    +0.000 A 
ATOM     17  C   UNL     1       5.909   3.997  16.378  0.00  0.00    +0.000 A 
ATOM     18  C   UNL     1       4.674   4.478  16.857  0.00  0.00    +0.000 A 
ATOM     19  C   UNL     1       3.522   3.504  16.859  0.00  0.00    +0.000 C 
ENDBRANCH   8  13
BRANCH   1  21
ATOM     20  N   UNL     1      -2.431  12.406  22.150  0.00  0.00    +0.000 N 
ATOM     21  C   UNL     1      -1.095  12.234  22.501  0.00  0.00    +0.000 C 
ATOM     22  O   UNL     1      -0.463  12.912  23.298  0.00  0.00    +0.000 OA
ATOM     23  H   UNL     1      -2.849  11.705  21.554  0.00  0.00    +0.000 HD
BRANCH  20  28
ATOM     24  C   UNL     1      -6.169  16.429  23.877  0.00  0.00    +0.000 C 
ATOM     25  C   UNL     1      -5.173  15.393  23.440  0.00  0.00    +0.000 A 
ATOM     26  C   UNL     1      -4.102  15.738  22.611  0.00  0.00    +0.000 A 
ATOM     27  C   UNL     1      -3.181  14.772  22.182  0.00  0.00    +0.000 A 
ATOM     28  C   UNL     1      -3.308  13.439  22.572  0.00  0.00    +0.000 A 
ATOM     29  C   UNL     1      -4.380  13.095  23.413  0.00  0.00    +0.000 A 
ATOM     30  C   UNL     1      -5.302  14.061  23.838  0.00  0.00    +0.000 A 
ENDBRANCH  20  28
ENDBRANCH   1  21
TORSDOF 3
ENDMDL
MODEL 4
REMARK VINA RESULT:      -8.1      1.990     11.778
REMARK  Name = 
REMARK  5 active torsions:
REMARK  status: ('A' for Active; 'I' for Inactive)
REMARK    1  A    between atoms: C_1  and  C_2
REMARK    2  A    between atoms: C_5  and  N_6
REMARK    3  A    between atoms: C_7  and  C_9
REMARK    4  A    between atoms: C_16  and  C_17
REMARK    5  A    between atoms: C_22  and  C_23
REMARK                            x       y       z     vdW  Elec       q    Type
REMARK                         _______ _______ _______ _____ _____    ______ ____
ROOT
ATOM      1  C   UNL     1      -0.569  11.904  20.828  0.00  0.00    +0.000 A 
ATOM      2  C   UNL     1      -0.236  10.857  21.681  0.00  0.00    +0.000 A 
ATOM      3  C   UNL     1       0.449   9.728  21.180  0.00  0.00    +0.000 A 
ATOM      4  C   UNL     1       0.789   9.631  19.829  0.00  0.00    +0.000 A 
ATOM      5  N   UNL     1       1.450   8.531  19.284  0.00  0.00    +0.000 N 
ATOM      6  C   UNL     1       1.801   8.625  17.862  0.00  0.00    +0.000 C 
ATOM      7  C   UNL     1       3.215   8.099  17.630  0.00  0.00    +0.000 C 
ATOM      8  C   UNL     1       3.192   6.589  17.858  0.00  0.00    +0.000 C 
ATOM      9  C   UNL     1       2.602   6.283  19.264  0.00  0.00    +0.000 C 
ATOM     10  C   UNL     1       2.163   7.525  20.087  0.00  0.00    +0.000 C 
ATOM     11  N   UNL     1       0.422  10.644  19.005  0.00  0.00    +0.000 NA
ATOM     12  C   UNL     1      -0.233  11.735  19.499  0.00  0.00    +0.000 A 
ENDROOT
BRANCH   8  13
ATOM     13  C   UNL     1       4.527   5.950  17.464  0.00  0.00    +0.000 A 
ATOM     14  C   UNL     1       5.698   6.727  17.398  0.00  0.00    +0.000 A 
ATOM     15  C   UNL     1       6.929   6.159  17.043  0.00  0.00    +0.000 A 
ATOM     16  C   UNL     1       7.019   4.805  16.732  0.00  0.00    +0.000 A 
ATOM     17  C   UNL     1       5.870   4.027  16.744  0.00  0.00    +0.000 A 
ATOM     18  C   UNL     1       4.620   4.581  17.086  0.00  0.00    +0.000 A 
ATOM     19  C   UNL     1       3.435   3.648  17.061  0.00  0.00    +0.000 C 
ENDBRANCH   8  13
BRANCH   1  21
ATOM     20  N   UNL     1      -1.825  13.136  22.534  0.00  0.00    +0.000 N 
ATOM     21  C   UNL     1      -1.294  13.144  21.247  0.00  0.00    +0.000 C 
ATOM     22  O   UNL     1      -1.347  14.069  20.449  0.00  0.00    +0.000 OA
ATOM     23  H   UNL     1      -1.614  12.338  23.117  0.00  0.00    +0.000 HD
BRANCH  20  28
ATOM     24  C   UNL     1      -4.790  17.270  25.226  0.00  0.00    +0.000 C 
ATOM     25  C   UNL     1      -4.026  16.200  24.499  0.00  0.00    +0.000 A 
ATOM     26  C   UNL     1      -4.698  15.206  23.782  0.00  0.00    +0.000 A 
ATOM     27  C   UNL     1      -3.992  14.193  23.119  0.00  0.00    +0.000 A 
ATOM     28  C   UNL     1      -2.599  14.149  23.155  0.00  0.00    +0.000 A 
ATOM     29  C   UNL     1      -1.924  15.153  23.869  0.00  0.00    +0.000 A 
ATOM     30  C   UNL     1      -2.631  16.164  24.534  0.00  0.00    +0.000 A 
ENDBRANCH  20  28
ENDBRANCH   1  21
TORSDOF 3
ENDMDL
MODEL 5
REMARK VINA RESULT:      -8.1      1.878     11.821
REMARK  Name = 
REMARK  5 active torsions:
REMARK  status: ('A' for Active; 'I' for Inactive)
REMARK    1  A    between atoms: C_1  and  C_2
REMARK    2  A    between atoms: C_5  and  N_6
REMARK    3  A    between atoms: C_7  and  C_9
REMARK    4  A    between atoms: C_16  and  C_17
REMARK    5  A    between atoms: C_22  and  C_23
REMARK                            x       y       z     vdW  Elec       q    Type
REMARK                         _______ _______ _______ _____ _____    ______ ____
ROOT
ATOM      1  C   UNL     1       0.017  10.945  21.332  0.00  0.00    +0.000 A 
ATOM      2  C   UNL     1       0.236   9.723  21.958  0.00  0.00    +0.000 A 
ATOM      3  C   UNL     1       0.873   8.675  21.257  0.00  0.00    +0.000 A 
ATOM      4  C   UNL     1       1.277   8.835  19.930  0.00  0.00    +0.000 A 
ATOM      5  N   UNL     1       1.895   7.826  19.192  0.00  0.00    +0.000 N 
ATOM      6  C   UNL     1       2.326   8.186  17.836  0.00  0.00    +0.000 C 
ATOM      7  C   UNL     1       3.714   7.616  17.555  0.00  0.00    +0.000 C 
ATOM      8  C   UNL     1       3.582   6.098  17.459  0.00  0.00    +0.000 C 
ATOM      9  C   UNL     1       2.899   5.552  18.744  0.00  0.00    +0.000 C 
ATOM     10  C   UNL     1       2.497   6.625  19.793  0.00  0.00    +0.000 C 
ATOM     11  N   UNL     1       1.021  10.021  19.325  0.00  0.00    +0.000 NA
ATOM     12  C   UNL     1       0.412  11.031  20.011  0.00  0.00    +0.000 A 
ENDROOT
BRANCH   8  13
ATOM     13  C   UNL     1       4.893   5.458  16.991  0.00  0.00    +0.000 A 
ATOM     14  C   UNL     1       5.065   5.088  15.645  0.00  0.00    +0.000 A 
ATOM     15  C   UNL     1       6.259   4.505  15.197  0.00  0.00    +0.000 A 
ATOM     16  C   UNL     1       7.304   4.264  16.085  0.00  0.00    +0.000 A 
ATOM     17  C   UNL     1       7.141   4.577  17.427  0.00  0.00    +0.000 A 
ATOM     18  C   UNL     1       5.944   5.153  17.900  0.00  0.00    +0.000 A 
ATOM     19  C   UNL     1       5.872   5.447  19.377  0.00  0.00    +0.000 C 
ENDBRANCH   8  13
BRANCH   1  21
ATOM     20  N   UNL     1      -2.019  12.009  22.184  0.00  0.00    +0.000 N 
ATOM     21  C   UNL     1      -0.648  12.123  21.973  0.00  0.00    +0.000 C 
ATOM     22  O   UNL     1       0.054  13.075  22.281  0.00  0.00    +0.000 OA
ATOM     23  H   UNL     1      -2.449  11.120  21.970  0.00  0.00    +0.000 HD
BRANCH  20  28
ATOM     24  C   UNL     1      -5.624  16.058  24.121  0.00  0.00    +0.000 C 
ATOM     25  C   UNL     1      -4.691  14.984  23.636  0.00  0.00    +0.000 A 
ATOM     26  C   UNL     1      -3.604  14.580  24.417  0.00  0.00    +0.000 A 
ATOM     27  C   UNL     1      -2.717  13.593  23.962  0.00  0.00    +0.000 A 
ATOM     28  C   UNL     1      -2.895  12.989  22.718  0.00  0.00    +0.000 A 
ATOM     29  C   UNL     1      -3.993  13.390  21.939  0.00  0.00    +0.000 A 
ATOM     30  C   UNL     1      -4.877  14.378  22.393  0.00  0.00    +0.000 A 
ENDBRANCH  20  28
ENDBRANCH   1  21
TORSDOF 3
ENDMDL
MODEL 6
REMARK VINA RESULT:      -8.0      1.487      1.806
REMARK  Name = 
REMARK  5 active torsions:
REMARK  status: ('A' for Active; 'I' for Inactive)
REMARK    1  A    between atoms: C_1  and  C_2
REMARK    2  A    between atoms: C_5  and  N_6
REMARK    3  A    between atoms: C_7  and  C_9
REMARK    4  A    between atoms: C_16  and  C_17
REMARK    5  A    between atoms: C_22  and  C_23
REMARK                            x       y       z     vdW  Elec       q    Type
REMARK                         _______ _______ _______ _____ _____    ______ ____
ROOT
ATOM      1  C   UNL     1       1.777   7.907  20.005  0.00  0.00    +0.000 A 
ATOM      2  C   UNL     1       1.483   7.982  21.362  0.00  0.00    +0.000 A 
ATOM      3  C   UNL     1       0.728   9.066  21.862  0.00  0.00    +0.000 A 
ATOM      4  C   UNL     1       0.279  10.084  21.017  0.00  0.00    +0.000 A 
ATOM      5  N   UNL     1      -0.455  11.181  21.465  0.00  0.00    +0.000 N 
ATOM      6  C   UNL     1      -0.915  12.118  20.433  0.00  0.00    +0.000 C 
ATOM      7  C   UNL     1      -2.357  12.537  20.703  0.00  0.00    +0.000 C 
ATOM      8  C   UNL     1      -2.361  13.409  21.956  0.00  0.00    +0.000 C 
ATOM      9  C   UNL     1      -1.669  12.649  23.123  0.00  0.00    +0.000 C 
ATOM     10  C   UNL     1      -1.131  11.235  22.771  0.00  0.00    +0.000 C 
ATOM     11  N   UNL     1       0.608  10.013  19.703  0.00  0.00    +0.000 NA
ATOM     12  C   UNL     1       1.332   8.958  19.227  0.00  0.00    +0.000 A 
ENDROOT
BRANCH   8  13
ATOM     13  C   UNL     1      -3.741  14.030  22.195  0.00  0.00    +0.000 A 
ATOM     14  C   UNL     1      -4.909  13.290  21.939  0.00  0.00    +0.000 A 
ATOM     15  C   UNL     1      -6.180  13.840  22.156  0.00  0.00    +0.000 A 
ATOM     16  C   UNL     1      -6.316  15.145  22.619  0.00  0.00    +0.000 A 
ATOM     17  C   UNL     1      -5.179  15.912  22.834  0.00  0.00    +0.000 A 
ATOM     18  C   UNL     1      -3.892  15.382  22.611  0.00  0.00    +0.000 A 
ATOM     19  C   UNL     1      -2.727  16.304  22.870  0.00  0.00    +0.000 C 
ENDBRANCH   8  13
BRANCH   1  21
ATOM     20  N   UNL     1       3.187   7.125  18.160  0.00  0.00    +0.000 N 
ATOM     21  C   UNL     1       2.569   6.809  19.366  0.00  0.00    +0.000 C 
ATOM     22  O   UNL     1       2.632   5.738  19.952  0.00  0.00    +0.000 OA
ATOM     23  H   UNL     1       3.129   8.084  17.846  0.00  0.00    +0.000 HD
BRANCH  20  28
ATOM     24  C   UNL     1       6.251   3.799  14.598  0.00  0.00    +0.000 C 
ATOM     25  C   UNL     1       5.465   4.656  15.549  0.00  0.00    +0.000 A 
ATOM     26  C   UNL     1       4.608   4.077  16.489  0.00  0.00    +0.000 A 
ATOM     27  C   UNL     1       3.855   4.872  17.365  0.00  0.00    +0.000 A 
ATOM     28  C   UNL     1       3.942   6.263  17.324  0.00  0.00    +0.000 A 
ATOM     29  C   UNL     1       4.811   6.844  16.386  0.00  0.00    +0.000 A 
ATOM     30  C   UNL     1       5.561   6.048  15.508  0.00  0.00    +0.000 A 
ENDBRANCH  20  28
ENDBRANCH   1  21
TORSDOF 3
ENDMDL
MODEL 7
REMARK VINA RESULT:      -8.0      2.707     11.736
REMARK  Name = 
REMARK  5 active torsions:
REMARK  status: ('A' for Active; 'I' for Inactive)
REMARK    1  A    between atoms: C_1  and  C_2
REMARK    2  A    between atoms: C_5  and  N_6
REMARK    3  A    between atoms: C_7  and  C_9
REMARK    4  A    between atoms: C_16  and  C_17
REMARK    5  A    between atoms: C_22  and  C_23
REMARK                            x       y       z     vdW  Elec       q    Type
REMARK                         _______ _______ _______ _____ _____    ______ ____
ROOT
ATOM      1  C   UNL     1      -0.590  11.605  21.218  0.00  0.00    +0.000 A 
ATOM      2  C   UNL     1      -0.224  10.512  21.996  0.00  0.00    +0.000 A 
ATOM      3  C   UNL     1       0.466   9.428  21.410  0.00  0.00    +0.000 A 
ATOM      4  C   UNL     1       0.779   9.422  20.049  0.00  0.00    +0.000 A 
ATOM      5  N   UNL     1       1.444   8.369  19.421  0.00  0.00    +0.000 N 
ATOM      6  C   UNL     1       1.763   8.558  18.002  0.00  0.00    +0.000 C 
ATOM      7  C   UNL     1       3.179   8.070  17.708  0.00  0.00    +0.000 C 
ATOM      8  C   UNL     1       3.183   6.549  17.840  0.00  0.00    +0.000 C 
ATOM      9  C   UNL     1       2.627   6.145  19.235  0.00  0.00    +0.000 C 
ATOM     10  C   UNL     1       2.188   7.325  20.145  0.00  0.00    +0.000 C 
ATOM     11  N   UNL     1       0.380  10.479  19.299  0.00  0.00    +0.000 NA
ATOM     12  C   UNL     1      -0.280  11.526  19.874  0.00  0.00    +0.000 A 
ENDROOT
BRANCH   8  13
ATOM     13  C   UNL     1       4.518   5.957  17.378  0.00  0.00    +0.000 A 
ATOM     14  C   UNL     1       5.665   6.766  17.293  0.00  0.00    +0.000 A 
ATOM     15  C   UNL     1       6.897   6.241  16.877  0.00  0.00    +0.000 A 
ATOM     16  C   UNL     1       7.010   4.900  16.523  0.00  0.00    +0.000 A 
ATOM     17  C   UNL     1       5.881   4.092  16.554  0.00  0.00    +0.000 A 
ATOM     18  C   UNL     1       4.631   4.603  16.958  0.00  0.00    +0.000 A 
ATOM     19  C   UNL     1       3.471   3.639  16.948  0.00  0.00    +0.000 C 
ENDBRANCH   8  13
BRANCH   1  21
ATOM     20  N   UNL     1      -0.737  13.465  22.806  0.00  0.00    +0.000 N 
ATOM     21  C   UNL     1      -1.324  12.805  21.730  0.00  0.00    +0.000 C 
ATOM     22  O   UNL     1      -2.356  13.127  21.160  0.00  0.00    +0.000 OA
ATOM     23  H   UNL     1       0.172  13.143  23.108  0.00  0.00    +0.000 HD
BRANCH  20  28
ATOM     24  C   UNL     1      -2.576  18.108  25.669  0.00  0.00    +0.000 C 
ATOM     25  C   UNL     1      -2.121  16.895  24.909  0.00  0.00    +0.000 A 
ATOM     26  C   UNL     1      -2.732  15.654  25.115  0.00  0.00    +0.000 A 
ATOM     27  C   UNL     1      -2.299  14.514  24.424  0.00  0.00    +0.000 A 
ATOM     28  C   UNL     1      -1.245  14.585  23.513  0.00  0.00    +0.000 A 
ATOM     29  C   UNL     1      -0.638  15.833  23.301  0.00  0.00    +0.000 A 
ATOM     30  C   UNL     1      -1.070  16.973  23.994  0.00  0.00    +0.000 A 
ENDBRANCH  20  28
ENDBRANCH   1  21
TORSDOF 3
ENDMDL
MODEL 8
REMARK VINA RESULT:      -7.9      1.357      1.762
REMARK  Name = 
REMARK  5 active torsions:
REMARK  status: ('A' for Active; 'I' for Inactive)
REMARK    1  A    between atoms: C_1  and  C_2
REMARK    2  A    between atoms: C_5  and  N_6
REMARK    3  A    between atoms: C_7  and  C_9
REMARK    4  A    between atoms: C_16  and  C_17
REMARK    5  A    between atoms: C_22  and  C_23
REMARK                            x       y       z     vdW  Elec       q    Type
REMARK                         _______ _______ _______ _____ _____    ______ ____
ROOT
ATOM      1  C   UNL     1       1.523   8.126  20.271  0.00  0.00    +0.000 A 
ATOM      2  C   UNL     1       1.198   8.196  21.622  0.00  0.00    +0.000 A 
ATOM      3  C   UNL     1       0.408   9.263  22.103  0.00  0.00    +0.000 A 
ATOM      4  C   UNL     1      -0.048  10.268  21.247  0.00  0.00    +0.000 A 
ATOM      5  N   UNL     1      -0.817  11.349  21.677  0.00  0.00    +0.000 N 
ATOM      6  C   UNL     1      -1.276  12.273  20.633  0.00  0.00    +0.000 C 
ATOM      7  C   UNL     1      -2.734  12.658  20.873  0.00  0.00    +0.000 C 
ATOM      8  C   UNL     1      -2.784  13.532  22.124  0.00  0.00    +0.000 C 
ATOM      9  C   UNL     1      -2.099  12.790  23.306  0.00  0.00    +0.000 C 
ATOM     10  C   UNL     1      -1.520  11.389  22.969  0.00  0.00    +0.000 C 
ATOM     11  N   UNL     1       0.311  10.203  19.941  0.00  0.00    +0.000 NA
ATOM     12  C   UNL     1       1.069   9.165  19.482  0.00  0.00    +0.000 A 
ENDROOT
BRANCH   8  13
ATOM     13  C   UNL     1      -4.183  14.120  22.332  0.00  0.00    +0.000 A 
ATOM     14  C   UNL     1      -5.326  13.319  22.162  0.00  0.00    +0.000 A 
ATOM     15  C   UNL     1      -6.614  13.838  22.353  0.00  0.00    +0.000 A 
ATOM     16  C   UNL     1      -6.793  15.173  22.703  0.00  0.00    +0.000 A 
ATOM     17  C   UNL     1      -5.682  15.997  22.831  0.00  0.00    +0.000 A 
ATOM     18  C   UNL     1      -4.379  15.497  22.632  0.00  0.00    +0.000 A 
ATOM     19  C   UNL     1      -3.246  16.480  22.789  0.00  0.00    +0.000 C 
ENDBRANCH   8  13
BRANCH   1  21
ATOM     20  N   UNL     1       2.917   7.344  18.415  0.00  0.00    +0.000 N 
ATOM     21  C   UNL     1       2.353   7.046  19.652  0.00  0.00    +0.000 C 
ATOM     22  O   UNL     1       2.492   6.004  20.277  0.00  0.00    +0.000 OA
ATOM     23  H   UNL     1       2.799   8.285  18.065  0.00  0.00    +0.000 HD
BRANCH  20  28
ATOM     24  C   UNL     1       6.031   3.695  15.233  0.00  0.00    +0.000 C 
ATOM     25  C   UNL     1       5.209   4.659  16.040  0.00  0.00    +0.000 A 
ATOM     26  C   UNL     1       5.479   6.031  16.003  0.00  0.00    +0.000 A 
ATOM     27  C   UNL     1       4.729   6.934  16.770  0.00  0.00    +0.000 A 
ATOM     28  C   UNL     1       3.693   6.489  17.590  0.00  0.00    +0.000 A 
ATOM     29  C   UNL     1       3.418   5.112  17.620  0.00  0.00    +0.000 A 
ATOM     30  C   UNL     1       4.170   4.210  16.855  0.00  0.00    +0.000 A 
ENDBRANCH  20  28
ENDBRANCH   1  21
TORSDOF 3
ENDMDL
MODEL 9
REMARK VINA RESULT:      -7.9      2.155     11.503
REMARK  Name = 
REMARK  5 active torsions:
REMARK  status: ('A' for Active; 'I' for Inactive)
REMARK    1  A    between atoms: C_1  and  C_2
REMARK    2  A    between atoms: C_5  and  N_6
REMARK    3  A    between atoms: C_7  and  C_9
REMARK    4  A    between atoms: C_16  and  C_17
REMARK    5  A    between atoms: C_22  and  C_23
REMARK                            x       y       z     vdW  Elec       q    Type
REMARK                         _______ _______ _______ _____ _____    ______ ____
ROOT
ATOM      1  C   UNL     1      -1.225  12.254  20.416  0.00  0.00    +0.000 A 
ATOM      2  C   UNL     1      -0.758  12.172  19.108  0.00  0.00    +0.000 A 
ATOM      3  C   UNL     1       0.122  11.132  18.738  0.00  0.00    +0.000 A 
ATOM      4  C   UNL     1       0.552  10.183  19.668  0.00  0.00    +0.000 A 
ATOM      5  N   UNL     1       1.431   9.147  19.354  0.00  0.00    +0.000 N 
ATOM      6  C   UNL     1       1.718   8.192  20.431  0.00  0.00    +0.000 C 
ATOM      7  C   UNL     1       1.710   6.766  19.887  0.00  0.00    +0.000 C 
ATOM      8  C   UNL     1       2.929   6.607  18.981  0.00  0.00    +0.000 C 
ATOM      9  C   UNL     1       2.921   7.721  17.897  0.00  0.00    +0.000 C 
ATOM     10  C   UNL     1       1.737   8.723  17.979  0.00  0.00    +0.000 C 
ATOM     11  N   UNL     1       0.115  10.301  20.946  0.00  0.00    +0.000 NA
ATOM     12  C   UNL     1      -0.741  11.305  21.295  0.00  0.00    +0.000 A 
ENDROOT
BRANCH   8  13
ATOM     13  C   UNL     1       3.105   5.150  18.542  0.00  0.00    +0.000 A 
ATOM     14  C   UNL     1       2.014   4.420  18.038  0.00  0.00    +0.000 A 
ATOM     15  C   UNL     1       2.158   3.088  17.626  0.00  0.00    +0.000 A 
ATOM     16  C   UNL     1       3.390   2.448  17.721  0.00  0.00    +0.000 A 
ATOM     17  C   UNL     1       4.471   3.132  18.260  0.00  0.00    +0.000 A 
ATOM     18  C   UNL     1       4.345   4.468  18.690  0.00  0.00    +0.000 A 
ATOM     19  C   UNL     1       5.581   5.113  19.265  0.00  0.00    +0.000 C 
ENDBRANCH   8  13
BRANCH   1  21
ATOM     20  N   UNL     1      -3.350  12.857  21.476  0.00  0.00    +0.000 N 
ATOM     21  C   UNL     1      -2.157  13.311  20.921  0.00  0.00    +0.000 C 
ATOM     22  O   UNL     1      -1.798  14.476  20.831  0.00  0.00    +0.000 OA
ATOM     23  H   UNL     1      -3.466  11.858  21.574  0.00  0.00    +0.000 HD
BRANCH  20  28
ATOM     24  C   UNL     1      -7.760  16.097  23.264  0.00  0.00    +0.000 C 
ATOM     25  C   UNL     1      -6.614  15.233  22.818  0.00  0.00    +0.000 A 
ATOM     26  C   UNL     1      -5.505  15.038  23.645  0.00  0.00    +0.000 A 
ATOM     27  C   UNL     1      -4.423  14.251  23.227  0.00  0.00    +0.000 A 
ATOM     28  C   UNL     1      -4.424  13.640  21.973  0.00  0.00    +0.000 A 
ATOM     29  C   UNL     1      -5.544  13.829  21.146  0.00  0.00    +0.000 A 
ATOM     30  C   UNL     1      -6.624  14.619  21.564  0.00  0.00    +0.000 A 
ENDBRANCH  20  28
ENDBRANCH   1  21
TORSDOF 3
ENDMDL
