MODEL 1
REMARK VINA RESULT:      -7.7      0.000      0.000
REMARK  Name = 
REMARK  7 active torsions:
REMARK  status: ('A' for Active; 'I' for Inactive)
REMARK    1  A    between atoms: C_1  and  N_2
REMARK    2  A    between atoms: N_2  and  S_3
REMARK    3  A    between atoms: S_3  and  N_6
REMARK    4  A    between atoms: N_6  and  N_7
REMARK    5  A    between atoms: N_7  and  C_8
REMARK    6  A    between atoms: N_7  and  S_9
REMARK    7  A    between atoms: S_9  and  C_12
REMARK                            x       y       z     vdW  Elec       q    Type
REMARK                         _______ _______ _______ _____ _____    ______ ____
ROOT
ATOM      1  S   UNL     1       3.448   3.822  18.644  0.00  0.00    +0.000 S 
ATOM      2  O   UNL     1       2.521   3.238  17.693  0.00  0.00    +0.000 OA
ATOM      3  O   UNL     1       3.846   3.118  19.845  0.00  0.00    +0.000 OA
ENDROOT
BRANCH   1   4
ATOM      4  C   UNL     1       2.779   5.402  19.131  0.00  0.00    +0.000 A 
ATOM      5  C   UNL     1       2.216   5.542  20.400  0.00  0.00    +0.000 A 
ATOM      6  C   UNL     1       1.650   6.760  20.772  0.00  0.00    +0.000 A 
ATOM      7  C   UNL     1       1.655   7.849  19.888  0.00  0.00    +0.000 A 
ATOM      8  C   UNL     1       1.071   9.075  20.247  0.00  0.00    +0.000 A 
ATOM      9  C   UNL     1       1.081  10.154  19.363  0.00  0.00    +0.000 A 
ATOM     10  C   UNL     1       1.676  10.022  18.111  0.00  0.00    +0.000 A 
ATOM     11  C   UNL     1       2.263   8.811  17.739  0.00  0.00    +0.000 A 
ATOM     12  C   UNL     1       2.258   7.714  18.614  0.00  0.00    +0.000 A 
ATOM     13  C   UNL     1       2.832   6.486  18.248  0.00  0.00    +0.000 A 
ENDBRANCH   1   4
BRANCH   1  14
ATOM     14  N   UNL     1       4.868   4.287  17.755  0.00  0.00    +0.000 NA
ATOM     15  C   UNL     1       4.800   4.009  16.299  0.00  0.00    +0.000 C 
BRANCH  14  16
ATOM     16  N   UNL     1       6.070   3.926  18.450  0.00  0.00    +0.000 NA
ATOM     17  H   UNL     1       5.916   3.965  19.469  0.00  0.00    +0.000 HD
BRANCH  16  18
ATOM     18  S   UNL     1       7.420   4.915  18.143  0.00  0.00    +0.000 S 
ATOM     19  O   UNL     1       8.026   4.503  16.906  0.00  0.00    +0.000 OA
ATOM     20  O   UNL     1       8.180   5.114  19.354  0.00  0.00    +0.000 OA
BRANCH  18  22
ATOM     21  C   UNL     1       7.486   7.508  17.487  0.00  0.00    +0.000 C 
ATOM     22  N   UNL     1       6.627   6.366  17.831  0.00  0.00    +0.000 NA
ATOM     23  H   UNL     1       5.934   6.180  17.102  0.00  0.00    +0.000 HD
ENDBRANCH  18  22
ENDBRANCH  16  18
ENDBRANCH  14  16
ENDBRANCH   1  14
TORSDOF 5
ENDMDL
MODEL 2
REMARK VINA RESULT:      -7.6      1.419      1.817
REMARK  Name = 
REMARK  7 active torsions:
REMARK  status: ('A' for Active; 'I' for Inactive)
REMARK    1  A    between atoms: C_1  and  N_2
REMARK    2  A    between atoms: N_2  and  S_3
REMARK    3  A    between atoms: S_3  and  N_6
REMARK    4  A    between atoms: N_6  and  N_7
REMARK    5  A    between atoms: N_7  and  C_8
REMARK    6  A    between atoms: N_7  and  S_9
REMARK    7  A    between atoms: S_9  and  C_12
REMARK                            x       y       z     vdW  Elec       q    Type
REMARK                         _______ _______ _______ _____ _____    ______ ____
ROOT
ATOM      1  S   UNL     1       3.726   4.006  18.354  0.00  0.00    +0.000 S 
ATOM      2  O   UNL     1       3.151   3.725  17.052  0.00  0.00    +0.000 OA
ATOM      3  O   UNL     1       3.703   3.028  19.421  0.00  0.00    +0.000 OA
ENDROOT
BRANCH   1   4
ATOM      4  C   UNL     1       2.958   5.497  18.959  0.00  0.00    +0.000 A 
ATOM      5  C   UNL     1       2.420   5.512  20.246  0.00  0.00    +0.000 A 
ATOM      6  C   UNL     1       1.777   6.658  20.711  0.00  0.00    +0.000 A 
ATOM      7  C   UNL     1       1.680   7.800  19.902  0.00  0.00    +0.000 A 
ATOM      8  C   UNL     1       1.019   8.954  20.355  0.00  0.00    +0.000 A 
ATOM      9  C   UNL     1       0.929  10.086  19.544  0.00  0.00    +0.000 A 
ATOM     10  C   UNL     1       1.500  10.080  18.275  0.00  0.00    +0.000 A 
ATOM     11  C   UNL     1       2.162   8.943  17.810  0.00  0.00    +0.000 A 
ATOM     12  C   UNL     1       2.259   7.793  18.609  0.00  0.00    +0.000 A 
ATOM     13  C   UNL     1       2.910   6.637  18.150  0.00  0.00    +0.000 A 
ENDBRANCH   1   4
BRANCH   1  14
ATOM     14  N   UNL     1       5.365   4.524  18.087  0.00  0.00    +0.000 NA
ATOM     15  C   UNL     1       5.987   5.212  19.245  0.00  0.00    +0.000 C 
BRANCH  14  16
ATOM     16  N   UNL     1       5.530   5.115  16.790  0.00  0.00    +0.000 NA
ATOM     17  H   UNL     1       5.093   4.519  16.071  0.00  0.00    +0.000 HD
BRANCH  16  18
ATOM     18  S   UNL     1       7.139   5.346  16.290  0.00  0.00    +0.000 S 
ATOM     19  O   UNL     1       7.916   4.199  16.676  0.00  0.00    +0.000 OA
ATOM     20  O   UNL     1       7.558   6.700  16.568  0.00  0.00    +0.000 OA
BRANCH  18  22
ATOM     21  C   UNL     1       6.315   4.001  14.130  0.00  0.00    +0.000 C 
ATOM     22  N   UNL     1       6.923   5.244  14.624  0.00  0.00    +0.000 NA
ATOM     23  H   UNL     1       6.388   6.068  14.338  0.00  0.00    +0.000 HD
ENDBRANCH  18  22
ENDBRANCH  16  18
ENDBRANCH  14  16
ENDBRANCH   1  14
TORSDOF 5
ENDMDL
MODEL 3
REMARK VINA RESULT:      -7.5      1.263      1.422
REMARK  Name = 
REMARK  7 active torsions:
REMARK  status: ('A' for Active; 'I' for Inactive)
REMARK    1  A    between atoms: C_1  and  N_2
REMARK    2  A    between atoms: N_2  and  S_3
REMARK    3  A    between atoms: S_3  and  N_6
REMARK    4  A    between atoms: N_6  and  N_7
REMARK    5  A    between atoms: N_7  and  C_8
REMARK    6  A    between atoms: N_7  and  S_9
REMARK    7  A    between atoms: S_9  and  C_12
REMARK                            x       y       z     vdW  Elec       q    Type
REMARK                         _______ _______ _______ _____ _____    ______ ____
ROOT
ATOM      1  S   UNL     1       2.835   3.715  19.273  0.00  0.00    +0.000 S 
ATOM      2  O   UNL     1       1.817   3.094  18.446  0.00  0.00    +0.000 OA
ATOM      3  O   UNL     1       3.215   3.158  20.554  0.00  0.00    +0.000 OA
ENDROOT
BRANCH   1   4
ATOM      4  C   UNL     1       2.341   5.408  19.536  0.00  0.00    +0.000 A 
ATOM      5  C   UNL     1       1.746   5.764  20.747  0.00  0.00    +0.000 A 
ATOM      6  C   UNL     1       1.315   7.074  20.944  0.00  0.00    +0.000 A 
ATOM      7  C   UNL     1       1.488   8.041  19.942  0.00  0.00    +0.000 A 
ATOM      8  C   UNL     1       1.041   9.360  20.124  0.00  0.00    +0.000 A 
ATOM      9  C   UNL     1       1.218  10.316  19.123  0.00  0.00    +0.000 A 
ATOM     10  C   UNL     1       1.846   9.966  17.931  0.00  0.00    +0.000 A 
ATOM     11  C   UNL     1       2.298   8.660  17.734  0.00  0.00    +0.000 A 
ATOM     12  C   UNL     1       2.124   7.685  18.728  0.00  0.00    +0.000 A 
ATOM     13  C   UNL     1       2.562   6.364  18.539  0.00  0.00    +0.000 A 
ENDBRANCH   1   4
BRANCH   1  14
ATOM     14  N   UNL     1       4.254   3.900  18.284  0.00  0.00    +0.000 NA
ATOM     15  C   UNL     1       4.214   3.147  17.006  0.00  0.00    +0.000 C 
BRANCH  14  16
ATOM     16  N   UNL     1       5.456   3.831  19.065  0.00  0.00    +0.000 NA
ATOM     17  H   UNL     1       5.227   3.845  20.070  0.00  0.00    +0.000 HD
BRANCH  16  18
ATOM     18  S   UNL     1       6.563   5.099  18.820  0.00  0.00    +0.000 S 
ATOM     19  O   UNL     1       7.289   5.325  20.040  0.00  0.00    +0.000 OA
ATOM     20  O   UNL     1       5.940   6.168  18.076  0.00  0.00    +0.000 OA
BRANCH  18  22
ATOM     21  C   UNL     1       7.404   4.592  16.331  0.00  0.00    +0.000 C 
ATOM     22  N   UNL     1       7.623   4.333  17.762  0.00  0.00    +0.000 NA
ATOM     23  H   UNL     1       8.572   4.584  18.051  0.00  0.00    +0.000 HD
ENDBRANCH  18  22
ENDBRANCH  16  18
ENDBRANCH  14  16
ENDBRANCH   1  14
TORSDOF 5
ENDMDL
MODEL 4
REMARK VINA RESULT:      -7.4      1.544      1.906
REMARK  Name = 
REMARK  7 active torsions:
REMARK  status: ('A' for Active; 'I' for Inactive)
REMARK    1  A    between atoms: C_1  and  N_2
REMARK    2  A    between atoms: N_2  and  S_3
REMARK    3  A    between atoms: S_3  and  N_6
REMARK    4  A    between atoms: N_6  and  N_7
REMARK    5  A    between atoms: N_7  and  C_8
REMARK    6  A    between atoms: N_7  and  S_9
REMARK    7  A    between atoms: S_9  and  C_12
REMARK                            x       y       z     vdW  Elec       q    Type
REMARK                         _______ _______ _______ _____ _____    ______ ____
ROOT
ATOM      1  S   UNL     1       4.294   3.860  19.025  0.00  0.00    +0.000 S 
ATOM      2  O   UNL     1       3.594   2.762  19.663  0.00  0.00    +0.000 OA
ATOM      3  O   UNL     1       5.686   4.138  19.308  0.00  0.00    +0.000 OA
ENDROOT
BRANCH   1   4
ATOM      4  C   UNL     1       3.361   5.344  19.356  0.00  0.00    +0.000 A 
ATOM      5  C   UNL     1       2.642   5.445  20.547  0.00  0.00    +0.000 A 
ATOM      6  C   UNL     1       1.873   6.582  20.793  0.00  0.00    +0.000 A 
ATOM      7  C   UNL     1       1.828   7.629  19.860  0.00  0.00    +0.000 A 
ATOM      8  C   UNL     1       1.042   8.770  20.091  0.00  0.00    +0.000 A 
ATOM      9  C   UNL     1       1.004   9.808  19.158  0.00  0.00    +0.000 A 
ATOM     10  C   UNL     1       1.752   9.718  17.988  0.00  0.00    +0.000 A 
ATOM     11  C   UNL     1       2.540   8.593  17.743  0.00  0.00    +0.000 A 
ATOM     12  C   UNL     1       2.586   7.537  18.667  0.00  0.00    +0.000 A 
ATOM     13  C   UNL     1       3.364   6.392  18.430  0.00  0.00    +0.000 A 
ENDBRANCH   1   4
BRANCH   1  14
ATOM     14  N   UNL     1       4.083   3.673  17.309  0.00  0.00    +0.000 NA
ATOM     15  C   UNL     1       2.836   2.971  16.916  0.00  0.00    +0.000 C 
BRANCH  14  16
ATOM     16  N   UNL     1       5.305   3.280  16.665  0.00  0.00    +0.000 NA
ATOM     17  H   UNL     1       6.017   3.044  17.372  0.00  0.00    +0.000 HD
BRANCH  16  18
ATOM     18  S   UNL     1       6.014   4.456  15.661  0.00  0.00    +0.000 S 
ATOM     19  O   UNL     1       5.131   5.589  15.577  0.00  0.00    +0.000 OA
ATOM     20  O   UNL     1       6.593   3.832  14.494  0.00  0.00    +0.000 OA
BRANCH  18  22
ATOM     21  C   UNL     1       7.264   6.299  17.142  0.00  0.00    +0.000 C 
ATOM     22  N   UNL     1       7.297   4.916  16.646  0.00  0.00    +0.000 NA
ATOM     23  H   UNL     1       7.348   4.240  17.412  0.00  0.00    +0.000 HD
ENDBRANCH  18  22
ENDBRANCH  16  18
ENDBRANCH  14  16
ENDBRANCH   1  14
TORSDOF 5
ENDMDL
MODEL 5
REMARK VINA RESULT:      -7.4      1.738      2.697
REMARK  Name = 
REMARK  7 active torsions:
REMARK  status: ('A' for Active; 'I' for Inactive)
REMARK    1  A    between atoms: C_1  and  N_2
REMARK    2  A    between atoms: N_2  and  S_3
REMARK    3  A    between atoms: S_3  and  N_6
REMARK    4  A    between atoms: N_6  and  N_7
REMARK    5  A    between atoms: N_7  and  C_8
REMARK    6  A    between atoms: N_7  and  S_9
REMARK    7  A    between atoms: S_9  and  C_12
REMARK                            x       y       z     vdW  Elec       q    Type
REMARK                         _______ _______ _______ _____ _____    ______ ____
ROOT
ATOM      1  S   UNL     1       4.230   4.982  19.224  0.00  0.00    +0.000 S 
ATOM      2  O   UNL     1       3.470   3.997  19.969  0.00  0.00    +0.000 OA
ATOM      3  O   UNL     1       5.546   5.407  19.652  0.00  0.00    +0.000 OA
ENDROOT
BRANCH   1   4
ATOM      4  C   UNL     1       3.206   6.436  19.075  0.00  0.00    +0.000 A 
ATOM      5  C   UNL     1       3.235   7.169  17.889  0.00  0.00    +0.000 A 
ATOM      6  C   UNL     1       2.473   8.332  17.780  0.00  0.00    +0.000 A 
ATOM      7  C   UNL     1       1.668   8.761  18.846  0.00  0.00    +0.000 A 
ATOM      8  C   UNL     1       0.911   9.940  18.752  0.00  0.00    +0.000 A 
ATOM      9  C   UNL     1       0.112  10.359  19.817  0.00  0.00    +0.000 A 
ATOM     10  C   UNL     1       0.058   9.604  20.985  0.00  0.00    +0.000 A 
ATOM     11  C   UNL     1       0.803   8.428  21.095  0.00  0.00    +0.000 A 
ATOM     12  C   UNL     1       1.615   7.994  20.036  0.00  0.00    +0.000 A 
ATOM     13  C   UNL     1       2.380   6.821  20.136  0.00  0.00    +0.000 A 
ENDBRANCH   1   4
BRANCH   1  14
ATOM     14  N   UNL     1       4.314   4.426  17.578  0.00  0.00    +0.000 NA
ATOM     15  C   UNL     1       3.180   3.563  17.164  0.00  0.00    +0.000 C 
BRANCH  14  16
ATOM     16  N   UNL     1       5.640   4.004  17.229  0.00  0.00    +0.000 NA
ATOM     17  H   UNL     1       6.263   4.082  18.046  0.00  0.00    +0.000 HD
BRANCH  16  18
ATOM     18  S   UNL     1       6.387   4.893  15.985  0.00  0.00    +0.000 S 
ATOM     19  O   UNL     1       7.779   4.535  15.929  0.00  0.00    +0.000 OA
ATOM     20  O   UNL     1       5.936   6.264  16.011  0.00  0.00    +0.000 OA
BRANCH  18  22
ATOM     21  C   UNL     1       6.494   4.003  13.465  0.00  0.00    +0.000 C 
ATOM     22  N   UNL     1       5.650   4.171  14.656  0.00  0.00    +0.000 NA
ATOM     23  H   UNL     1       5.261   3.280  14.974  0.00  0.00    +0.000 HD
ENDBRANCH  18  22
ENDBRANCH  16  18
ENDBRANCH  14  16
ENDBRANCH   1  14
TORSDOF 5
ENDMDL
MODEL 6
REMARK VINA RESULT:      -7.3      2.006      3.353
REMARK  Name = 
REMARK  7 active torsions:
REMARK  status: ('A' for Active; 'I' for Inactive)
REMARK    1  A    between atoms: C_1  and  N_2
REMARK    2  A    between atoms: N_2  and  S_3
REMARK    3  A    between atoms: S_3  and  N_6
REMARK    4  A    between atoms: N_6  and  N_7
REMARK    5  A    between atoms: N_7  and  C_8
REMARK    6  A    between atoms: N_7  and  S_9
REMARK    7  A    between atoms: S_9  and  C_12
REMARK                            x       y       z     vdW  Elec       q    Type
REMARK                         _______ _______ _______ _____ _____    ______ ____
ROOT
ATOM      1  S   UNL     1       4.015   5.302  17.582  0.00  0.00    +0.000 S 
ATOM      2  O   UNL     1       4.865   6.028  16.658  0.00  0.00    +0.000 OA
ATOM      3  O   UNL     1       3.112   4.265  17.128  0.00  0.00    +0.000 OA
ENDROOT
BRANCH   1   4
ATOM      4  C   UNL     1       3.056   6.510  18.478  0.00  0.00    +0.000 A 
ATOM      5  C   UNL     1       2.601   6.203  19.760  0.00  0.00    +0.000 A 
ATOM      6  C   UNL     1       1.813   7.123  20.450  0.00  0.00    +0.000 A 
ATOM      7  C   UNL     1       1.487   8.359  19.872  0.00  0.00    +0.000 A 
ATOM      8  C   UNL     1       0.679   9.285  20.552  0.00  0.00    +0.000 A 
ATOM      9  C   UNL     1       0.361  10.513  19.970  0.00  0.00    +0.000 A 
ATOM     10  C   UNL     1       0.848  10.831  18.706  0.00  0.00    +0.000 A 
ATOM     11  C   UNL     1       1.654   9.923  18.017  0.00  0.00    +0.000 A 
ATOM     12  C   UNL     1       1.980   8.681  18.584  0.00  0.00    +0.000 A 
ATOM     13  C   UNL     1       2.779   7.752  17.898  0.00  0.00    +0.000 A 
ENDBRANCH   1   4
BRANCH   1  14
ATOM     14  N   UNL     1       5.045   4.659  18.828  0.00  0.00    +0.000 NA
ATOM     15  C   UNL     1       6.268   5.459  19.087  0.00  0.00    +0.000 C 
BRANCH  14  16
ATOM     16  N   UNL     1       5.188   3.235  18.714  0.00  0.00    +0.000 NA
ATOM     17  H   UNL     1       4.891   2.923  17.778  0.00  0.00    +0.000 HD
BRANCH  16  18
ATOM     18  S   UNL     1       4.279   2.318  19.822  0.00  0.00    +0.000 S 
ATOM     19  O   UNL     1       3.464   3.209  20.604  0.00  0.00    +0.000 OA
ATOM     20  O   UNL     1       5.103   1.294  20.417  0.00  0.00    +0.000 OA
BRANCH  18  22
ATOM     21  C   UNL     1       1.810   1.779  18.945  0.00  0.00    +0.000 C 
ATOM     22  N   UNL     1       3.246   1.539  18.747  0.00  0.00    +0.000 NA
ATOM     23  H   UNL     1       3.546   1.793  17.802  0.00  0.00    +0.000 HD
ENDBRANCH  18  22
ENDBRANCH  16  18
ENDBRANCH  14  16
ENDBRANCH   1  14
TORSDOF 5
ENDMDL
MODEL 7
REMARK VINA RESULT:      -7.3      2.092      3.303
REMARK  Name = 
REMARK  7 active torsions:
REMARK  status: ('A' for Active; 'I' for Inactive)
REMARK    1  A    between atoms: C_1  and  N_2
REMARK    2  A    between atoms: N_2  and  S_3
REMARK    3  A    between atoms: S_3  and  N_6
REMARK    4  A    between atoms: N_6  and  N_7
REMARK    5  A    between atoms: N_7  and  C_8
REMARK    6  A    between atoms: N_7  and  S_9
REMARK    7  A    between atoms: S_9  and  C_12
REMARK                            x       y       z     vdW  Elec       q    Type
REMARK                         _______ _______ _______ _____ _____    ______ ____
ROOT
ATOM      1  S   UNL     1       3.883   5.232  17.638  0.00  0.00    +0.000 S 
ATOM      2  O   UNL     1       4.739   5.903  16.678  0.00  0.00    +0.000 OA
ATOM      3  O   UNL     1       2.939   4.213  17.231  0.00  0.00    +0.000 OA
ENDROOT
BRANCH   1   4
ATOM      4  C   UNL     1       2.981   6.497  18.514  0.00  0.00    +0.000 A 
ATOM      5  C   UNL     1       2.523   6.236  19.806  0.00  0.00    +0.000 A 
ATOM      6  C   UNL     1       1.778   7.202  20.480  0.00  0.00    +0.000 A 
ATOM      7  C   UNL     1       1.497   8.438  19.877  0.00  0.00    +0.000 A 
ATOM      8  C   UNL     1       0.732   9.410  20.542  0.00  0.00    +0.000 A 
ATOM      9  C   UNL     1       0.459  10.637  19.936  0.00  0.00    +0.000 A 
ATOM     10  C   UNL     1       0.949  10.907  18.662  0.00  0.00    +0.000 A 
ATOM     11  C   UNL     1       1.713   9.953  17.987  0.00  0.00    +0.000 A 
ATOM     12  C   UNL     1       1.993   8.712  18.579  0.00  0.00    +0.000 A 
ATOM     13  C   UNL     1       2.749   7.737  17.909  0.00  0.00    +0.000 A 
ENDBRANCH   1   4
BRANCH   1  14
ATOM     14  N   UNL     1       4.914   4.593  18.884  0.00  0.00    +0.000 NA
ATOM     15  C   UNL     1       6.025   5.492  19.283  0.00  0.00    +0.000 C 
BRANCH  14  16
ATOM     16  N   UNL     1       5.221   3.209  18.659  0.00  0.00    +0.000 NA
ATOM     17  H   UNL     1       5.028   2.958  17.678  0.00  0.00    +0.000 HD
BRANCH  16  18
ATOM     18  S   UNL     1       4.342   2.102  19.606  0.00  0.00    +0.000 S 
ATOM     19  O   UNL     1       5.157   1.689  20.716  0.00  0.00    +0.000 OA
ATOM     20  O   UNL     1       3.647   1.161  18.759  0.00  0.00    +0.000 OA
BRANCH  18  22
ATOM     21  C   UNL     1       2.530   2.714  21.476  0.00  0.00    +0.000 C 
ATOM     22  N   UNL     1       3.174   3.142  20.226  0.00  0.00    +0.000 NA
ATOM     23  H   UNL     1       3.609   4.063  20.320  0.00  0.00    +0.000 HD
ENDBRANCH  18  22
ENDBRANCH  16  18
ENDBRANCH  14  16
ENDBRANCH   1  14
TORSDOF 5
ENDMDL
MODEL 8
REMARK VINA RESULT:      -7.2      2.722      6.660
REMARK  Name = 
REMARK  7 active torsions:
REMARK  status: ('A' for Active; 'I' for Inactive)
REMARK    1  A    between atoms: C_1  and  N_2
REMARK    2  A    between atoms: N_2  and  S_3
REMARK    3  A    between atoms: S_3  and  N_6
REMARK    4  A    between atoms: N_6  and  N_7
REMARK    5  A    between atoms: N_7  and  C_8
REMARK    6  A    between atoms: N_7  and  S_9
REMARK    7  A    between atoms: S_9  and  C_12
REMARK                            x       y       z     vdW  Elec       q    Type
REMARK                         _______ _______ _______ _____ _____    ______ ____
ROOT
ATOM      1  S   UNL     1       5.239   4.529  18.765  0.00  0.00    +0.000 S 
ATOM      2  O   UNL     1       5.855   5.581  19.551  0.00  0.00    +0.000 OA
ATOM      3  O   UNL     1       5.264   3.147  19.195  0.00  0.00    +0.000 OA
ENDROOT
BRANCH   1   4
ATOM      4  C   UNL     1       5.948   4.607  17.130  0.00  0.00    +0.000 A 
ATOM      5  C   UNL     1       7.119   5.338  16.930  0.00  0.00    +0.000 A 
ATOM      6  C   UNL     1       7.655   5.443  15.647  0.00  0.00    +0.000 A 
ATOM      7  C   UNL     1       7.035   4.807  14.561  0.00  0.00    +0.000 A 
ATOM      8  C   UNL     1       7.557   4.921  13.261  0.00  0.00    +0.000 A 
ATOM      9  C   UNL     1       6.936   4.285  12.187  0.00  0.00    +0.000 A 
ATOM     10  C   UNL     1       5.788   3.525  12.397  0.00  0.00    +0.000 A 
ATOM     11  C   UNL     1       5.257   3.400  13.682  0.00  0.00    +0.000 A 
ATOM     12  C   UNL     1       5.866   4.037  14.774  0.00  0.00    +0.000 A 
ATOM     13  C   UNL     1       5.336   3.930  16.070  0.00  0.00    +0.000 A 
ENDBRANCH   1   4
BRANCH   1  14
ATOM     14  N   UNL     1       3.593   5.007  18.471  0.00  0.00    +0.000 NA
ATOM     15  C   UNL     1       3.408   6.462  18.241  0.00  0.00    +0.000 C 
BRANCH  14  16
ATOM     16  N   UNL     1       2.682   4.349  19.364  0.00  0.00    +0.000 NA
ATOM     17  H   UNL     1       3.206   3.835  20.087  0.00  0.00    +0.000 HD
BRANCH  16  18
ATOM     18  S   UNL     1       1.642   3.213  18.642  0.00  0.00    +0.000 S 
ATOM     19  O   UNL     1       2.361   1.982  18.449  0.00  0.00    +0.000 OA
ATOM     20  O   UNL     1       0.872   3.837  17.592  0.00  0.00    +0.000 OA
BRANCH  18  22
ATOM     21  C   UNL     1       1.200   2.868  21.257  0.00  0.00    +0.000 C 
ATOM     22  N   UNL     1       0.585   2.959  19.925  0.00  0.00    +0.000 NA
ATOM     23  H   UNL     1      -0.123   3.696  19.884  0.00  0.00    +0.000 HD
ENDBRANCH  18  22
ENDBRANCH  16  18
ENDBRANCH  14  16
ENDBRANCH   1  14
TORSDOF 5
ENDMDL
MODEL 9
REMARK VINA RESULT:      -7.2      1.464      1.857
REMARK  Name = 
REMARK  7 active torsions:
REMARK  status: ('A' for Active; 'I' for Inactive)
REMARK    1  A    between atoms: C_1  and  N_2
REMARK    2  A    between atoms: N_2  and  S_3
REMARK    3  A    between atoms: S_3  and  N_6
REMARK    4  A    between atoms: N_6  and  N_7
REMARK    5  A    between atoms: N_7  and  C_8
REMARK    6  A    between atoms: N_7  and  S_9
REMARK    7  A    between atoms: S_9  and  C_12
REMARK                            x       y       z     vdW  Elec       q    Type
REMARK                         _______ _______ _______ _____ _____    ______ ____
ROOT
ATOM      1  S   UNL     1       2.801   3.369  18.570  0.00  0.00    +0.000 S 
ATOM      2  O   UNL     1       2.828   3.359  17.120  0.00  0.00    +0.000 OA
ATOM      3  O   UNL     1       1.966   2.456  19.320  0.00  0.00    +0.000 OA
ENDROOT
BRANCH   1   4
ATOM      4  C   UNL     1       2.392   5.030  19.077  0.00  0.00    +0.000 A 
ATOM      5  C   UNL     1       1.963   5.255  20.385  0.00  0.00    +0.000 A 
ATOM      6  C   UNL     1       1.597   6.542  20.778  0.00  0.00    +0.000 A 
ATOM      7  C   UNL     1       1.671   7.612  19.874  0.00  0.00    +0.000 A 
ATOM      8  C   UNL     1       1.287   8.909  20.255  0.00  0.00    +0.000 A 
ATOM      9  C   UNL     1       1.365   9.968  19.350  0.00  0.00    +0.000 A 
ATOM     10  C   UNL     1       1.829   9.745  18.057  0.00  0.00    +0.000 A 
ATOM     11  C   UNL     1       2.216   8.464  17.662  0.00  0.00    +0.000 A 
ATOM     12  C   UNL     1       2.140   7.385  18.557  0.00  0.00    +0.000 A 
ATOM     13  C   UNL     1       2.513   6.088  18.171  0.00  0.00    +0.000 A 
ENDBRANCH   1   4
BRANCH   1  14
ATOM     14  N   UNL     1       4.447   3.219  19.113  0.00  0.00    +0.000 NA
ATOM     15  C   UNL     1       4.637   2.274  20.241  0.00  0.00    +0.000 C 
BRANCH  14  16
ATOM     16  N   UNL     1       5.097   4.496  19.191  0.00  0.00    +0.000 NA
ATOM     17  H   UNL     1       4.402   5.253  19.120  0.00  0.00    +0.000 HD
BRANCH  16  18
ATOM     18  S   UNL     1       6.251   4.805  17.980  0.00  0.00    +0.000 S 
ATOM     19  O   UNL     1       7.554   4.455  18.478  0.00  0.00    +0.000 OA
ATOM     20  O   UNL     1       5.977   6.070  17.340  0.00  0.00    +0.000 OA
BRANCH  18  22
ATOM     21  C   UNL     1       5.907   3.975  15.460  0.00  0.00    +0.000 C 
ATOM     22  N   UNL     1       5.818   3.607  16.880  0.00  0.00    +0.000 NA
ATOM     23  H   UNL     1       6.383   2.782  17.095  0.00  0.00    +0.000 HD
ENDBRANCH  18  22
ENDBRANCH  16  18
ENDBRANCH  14  16
ENDBRANCH   1  14
TORSDOF 5
ENDMDL
