MODEL 1
REMARK VINA RESULT:      -7.2      0.000      0.000
REMARK  Name = 
REMARK  10 active torsions:
REMARK  status: ('A' for Active; 'I' for Inactive)
REMARK    1  A    between atoms: C_1  and  C_2
REMARK    2  A    between atoms: C_2  and  C_3
REMARK    3  A    between atoms: C_3  and  S_4
REMARK    4  A    between atoms: S_4  and  C_7
REMARK    5  A    between atoms: C_11  and  C_12
REMARK    6  A    between atoms: C_13  and  C_14
REMARK    7  A    between atoms: C_20  and  O_21
REMARK    8  A    between atoms: O_21  and  C_22
REMARK    9  A    between atoms: C_22  and  C_23
REMARK   10  A    between atoms: C_23  and  O_25
REMARK                            x       y       z     vdW  Elec       q    Type
REMARK                         _______ _______ _______ _____ _____    ______ ____
ROOT
ATOM      1  C   UNL     1       1.964   7.635  19.373  0.00  0.00    +0.000 C 
ATOM      2  C   UNL     1       1.271   8.570  19.679  0.00  0.00    +0.000 C 
ENDROOT
BRANCH   2   3
ATOM      3  C   UNL     1       0.476   9.702  20.070  0.00  0.00    +0.000 A 
ATOM      4  C   UNL     1       0.528  10.155  21.404  0.00  0.00    +0.000 A 
ATOM      5 CL   UNL     1       1.383   9.288  22.638  0.00  0.00    +0.000 Cl
ATOM      6  C   UNL     1      -0.123  11.332  21.790  0.00  0.00    +0.000 A 
ATOM      7  C   UNL     1      -0.822  12.079  20.849  0.00  0.00    +0.000 A 
ATOM      8  C   UNL     1      -0.917  11.619  19.536  0.00  0.00    +0.000 A 
ATOM      9  C   UNL     1      -0.311  10.416  19.143  0.00  0.00    +0.000 A 
BRANCH   9  10
ATOM     10  O   UNL     1      -0.560  10.101  17.827  0.00  0.00    +0.000 OA
BRANCH  10  11
ATOM     11  C   UNL     1      -1.902   9.728  17.496  0.00  0.00    +0.000 C 
BRANCH  11  12
ATOM     12  C   UNL     1      -2.362  10.420  16.224  0.00  0.00    +0.000 C 
ATOM     13  O   UNL     1      -2.868   9.837  15.275  0.00  0.00    +0.000 OA
BRANCH  12  14
ATOM     14  O   UNL     1      -2.166  11.761  16.238  0.00  0.00    +0.000 OA
ATOM     15  H   UNL     1      -2.944  12.203  16.634  0.00  0.00    +0.000 HD
ENDBRANCH  12  14
ENDBRANCH  11  12
ENDBRANCH  10  11
ENDBRANCH   9  10
ENDBRANCH   2   3
BRANCH   1  20
ATOM     16  C   UNL     1       4.465   5.607  17.505  0.00  0.00    +0.000 A 
ATOM     17  C   UNL     1       4.508   4.438  18.268  0.00  0.00    +0.000 A 
ATOM     18  C   UNL     1       3.748   4.356  19.436  0.00  0.00    +0.000 A 
ATOM     19  C   UNL     1       2.926   5.422  19.817  0.00  0.00    +0.000 A 
ATOM     20  C   UNL     1       2.871   6.581  19.037  0.00  0.00    +0.000 A 
ATOM     21  C   UNL     1       3.659   6.683  17.887  0.00  0.00    +0.000 A 
BRANCH  16  22
ATOM     22  S   UNL     1       5.380   5.696  15.980  0.00  0.00    +0.000 S 
ATOM     23  O   UNL     1       5.080   6.979  15.375  0.00  0.00    +0.000 OA
ATOM     24  O   UNL     1       5.128   4.452  15.279  0.00  0.00    +0.000 OA
BRANCH  22  25
ATOM     25  C   UNL     1       7.088   5.724  16.491  0.00  0.00    +0.000 C 
BRANCH  25  27
ATOM     26  C   UNL     1       7.829   6.273  18.828  0.00  0.00    +0.000 C 
ATOM     27  C   UNL     1       7.347   6.837  17.501  0.00  0.00    +0.000 C 
ENDBRANCH  25  27
ENDBRANCH  22  25
ENDBRANCH  16  22
ENDBRANCH   1  20
TORSDOF 9
ENDMDL
MODEL 2
REMARK VINA RESULT:      -7.2      1.405      1.895
REMARK  Name = 
REMARK  10 active torsions:
REMARK  status: ('A' for Active; 'I' for Inactive)
REMARK    1  A    between atoms: C_1  and  C_2
REMARK    2  A    between atoms: C_2  and  C_3
REMARK    3  A    between atoms: C_3  and  S_4
REMARK    4  A    between atoms: S_4  and  C_7
REMARK    5  A    between atoms: C_11  and  C_12
REMARK    6  A    between atoms: C_13  and  C_14
REMARK    7  A    between atoms: C_20  and  O_21
REMARK    8  A    between atoms: O_21  and  C_22
REMARK    9  A    between atoms: C_22  and  C_23
REMARK   10  A    between atoms: C_23  and  O_25
REMARK                            x       y       z     vdW  Elec       q    Type
REMARK                         _______ _______ _______ _____ _____    ______ ____
ROOT
ATOM      1  C   UNL     1       2.079   7.623  18.924  0.00  0.00    +0.000 C 
ATOM      2  C   UNL     1       1.417   8.535  19.345  0.00  0.00    +0.000 C 
ENDROOT
BRANCH   2   3
ATOM      3  C   UNL     1       0.590   9.607  19.829  0.00  0.00    +0.000 A 
ATOM      4  C   UNL     1       0.701  10.012  21.175  0.00  0.00    +0.000 A 
ATOM      5 CL   UNL     1       1.675   9.147  22.319  0.00  0.00    +0.000 Cl
ATOM      6  C   UNL     1       0.015  11.136  21.646  0.00  0.00    +0.000 A 
ATOM      7  C   UNL     1      -0.780  11.879  20.780  0.00  0.00    +0.000 A 
ATOM      8  C   UNL     1      -0.932  11.463  19.457  0.00  0.00    +0.000 A 
ATOM      9  C   UNL     1      -0.289  10.310  18.980  0.00  0.00    +0.000 A 
BRANCH   9  10
ATOM     10  O   UNL     1      -0.602  10.031  17.670  0.00  0.00    +0.000 OA
BRANCH  10  11
ATOM     11  C   UNL     1      -1.968   9.708  17.388  0.00  0.00    +0.000 C 
BRANCH  11  12
ATOM     12  C   UNL     1      -2.449  10.418  16.133  0.00  0.00    +0.000 C 
ATOM     13  O   UNL     1      -2.976   9.849  15.187  0.00  0.00    +0.000 OA
BRANCH  12  14
ATOM     14  O   UNL     1      -2.246  11.757  16.161  0.00  0.00    +0.000 OA
ATOM     15  H   UNL     1      -1.527  11.994  15.540  0.00  0.00    +0.000 HD
ENDBRANCH  12  14
ENDBRANCH  11  12
ENDBRANCH  10  11
ENDBRANCH   9  10
ENDBRANCH   2   3
BRANCH   1  20
ATOM     16  C   UNL     1       4.796   5.504  17.514  0.00  0.00    +0.000 A 
ATOM     17  C   UNL     1       4.110   4.323  17.220  0.00  0.00    +0.000 A 
ATOM     18  C   UNL     1       2.757   4.219  17.549  0.00  0.00    +0.000 A 
ATOM     19  C   UNL     1       2.091   5.299  18.137  0.00  0.00    +0.000 A 
ATOM     20  C   UNL     1       2.777   6.485  18.409  0.00  0.00    +0.000 A 
ATOM     21  C   UNL     1       4.141   6.582  18.116  0.00  0.00    +0.000 A 
BRANCH  16  22
ATOM     22  S   UNL     1       6.503   5.670  17.038  0.00  0.00    +0.000 S 
ATOM     23  O   UNL     1       7.305   5.330  18.197  0.00  0.00    +0.000 OA
ATOM     24  O   UNL     1       6.623   6.960  16.388  0.00  0.00    +0.000 OA
BRANCH  22  25
ATOM     25  C   UNL     1       6.748   4.394  15.818  0.00  0.00    +0.000 C 
BRANCH  25  27
ATOM     26  C   UNL     1       6.171   3.755  13.457  0.00  0.00    +0.000 C 
ATOM     27  C   UNL     1       6.449   4.905  14.412  0.00  0.00    +0.000 C 
ENDBRANCH  25  27
ENDBRANCH  22  25
ENDBRANCH  16  22
ENDBRANCH   1  20
TORSDOF 9
ENDMDL
MODEL 3
REMARK VINA RESULT:      -7.1      3.158      4.607
REMARK  Name = 
REMARK  10 active torsions:
REMARK  status: ('A' for Active; 'I' for Inactive)
REMARK    1  A    between atoms: C_1  and  C_2
REMARK    2  A    between atoms: C_2  and  C_3
REMARK    3  A    between atoms: C_3  and  S_4
REMARK    4  A    between atoms: S_4  and  C_7
REMARK    5  A    between atoms: C_11  and  C_12
REMARK    6  A    between atoms: C_13  and  C_14
REMARK    7  A    between atoms: C_20  and  O_21
REMARK    8  A    between atoms: O_21  and  C_22
REMARK    9  A    between atoms: C_22  and  C_23
REMARK   10  A    between atoms: C_23  and  O_25
REMARK                            x       y       z     vdW  Elec       q    Type
REMARK                         _______ _______ _______ _____ _____    ______ ____
ROOT
ATOM      1  C   UNL     1       2.239   8.250  18.453  0.00  0.00    +0.000 C 
ATOM      2  C   UNL     1       1.655   9.226  18.846  0.00  0.00    +0.000 C 
ENDROOT
BRANCH   2   3
ATOM      3  C   UNL     1       0.920  10.377  19.295  0.00  0.00    +0.000 A 
ATOM      4  C   UNL     1       1.269  11.653  18.808  0.00  0.00    +0.000 A 
ATOM      5 CL   UNL     1       2.669  11.909  17.818  0.00  0.00    +0.000 Cl
ATOM      6  C   UNL     1       0.495  12.777  19.115  0.00  0.00    +0.000 A 
ATOM      7  C   UNL     1      -0.645  12.641  19.900  0.00  0.00    +0.000 A 
ATOM      8  C   UNL     1      -0.976  11.391  20.424  0.00  0.00    +0.000 A 
ATOM      9  C   UNL     1      -0.183  10.263  20.166  0.00  0.00    +0.000 A 
BRANCH   9  10
ATOM     10  O   UNL     1      -0.637   9.135  20.811  0.00  0.00    +0.000 OA
BRANCH  10  11
ATOM     11  C   UNL     1       0.307   8.436  21.628  0.00  0.00    +0.000 C 
BRANCH  11  12
ATOM     12  C   UNL     1       0.813   9.320  22.756  0.00  0.00    +0.000 C 
ATOM     13  O   UNL     1       0.085   9.877  23.565  0.00  0.00    +0.000 OA
BRANCH  12  14
ATOM     14  O   UNL     1       2.163   9.432  22.788  0.00  0.00    +0.000 OA
ATOM     15  H   UNL     1       2.412  10.333  23.079  0.00  0.00    +0.000 HD
ENDBRANCH  12  14
ENDBRANCH  11  12
ENDBRANCH  10  11
ENDBRANCH   9  10
ENDBRANCH   2   3
BRANCH   1  20
ATOM     16  C   UNL     1       2.855   4.632  17.831  0.00  0.00    +0.000 A 
ATOM     17  C   UNL     1       4.105   4.660  17.208  0.00  0.00    +0.000 A 
ATOM     18  C   UNL     1       4.709   5.891  16.945  0.00  0.00    +0.000 A 
ATOM     19  C   UNL     1       4.082   7.080  17.332  0.00  0.00    +0.000 A 
ATOM     20  C   UNL     1       2.841   7.044  17.974  0.00  0.00    +0.000 A 
ATOM     21  C   UNL     1       2.214   5.816  18.207  0.00  0.00    +0.000 A 
BRANCH  16  22
ATOM     22  S   UNL     1       2.107   3.066  18.231  0.00  0.00    +0.000 S 
ATOM     23  O   UNL     1       2.445   2.146  17.161  0.00  0.00    +0.000 OA
ATOM     24  O   UNL     1       0.729   3.348  18.578  0.00  0.00    +0.000 OA
BRANCH  22  25
ATOM     25  C   UNL     1       2.965   2.528  19.698  0.00  0.00    +0.000 C 
BRANCH  25  27
ATOM     26  C   UNL     1       1.585   2.602  21.797  0.00  0.00    +0.000 C 
ATOM     27  C   UNL     1       2.563   3.358  20.912  0.00  0.00    +0.000 C 
ENDBRANCH  25  27
ENDBRANCH  22  25
ENDBRANCH  16  22
ENDBRANCH   1  20
TORSDOF 9
ENDMDL
MODEL 4
REMARK VINA RESULT:      -7.0      1.908      3.070
REMARK  Name = 
REMARK  10 active torsions:
REMARK  status: ('A' for Active; 'I' for Inactive)
REMARK    1  A    between atoms: C_1  and  C_2
REMARK    2  A    between atoms: C_2  and  C_3
REMARK    3  A    between atoms: C_3  and  S_4
REMARK    4  A    between atoms: S_4  and  C_7
REMARK    5  A    between atoms: C_11  and  C_12
REMARK    6  A    between atoms: C_13  and  C_14
REMARK    7  A    between atoms: C_20  and  O_21
REMARK    8  A    between atoms: O_21  and  C_22
REMARK    9  A    between atoms: C_22  and  C_23
REMARK   10  A    between atoms: C_23  and  O_25
REMARK                            x       y       z     vdW  Elec       q    Type
REMARK                         _______ _______ _______ _____ _____    ______ ____
ROOT
ATOM      1  C   UNL     1       1.806   7.995  18.684  0.00  0.00    +0.000 C 
ATOM      2  C   UNL     1       1.117   8.842  19.190  0.00  0.00    +0.000 C 
ENDROOT
BRANCH   2   3
ATOM      3  C   UNL     1       0.326   9.860  19.825  0.00  0.00    +0.000 A 
ATOM      4  C   UNL     1       0.489  10.102  21.205  0.00  0.00    +0.000 A 
ATOM      5 CL   UNL     1       1.486   9.095  22.204  0.00  0.00    +0.000 Cl
ATOM      6  C   UNL     1      -0.162  11.171  21.829  0.00  0.00    +0.000 A 
ATOM      7  C   UNL     1      -0.972  12.022  21.085  0.00  0.00    +0.000 A 
ATOM      8  C   UNL     1      -1.176  11.767  19.729  0.00  0.00    +0.000 A 
ATOM      9  C   UNL     1      -0.569  10.670  19.097  0.00  0.00    +0.000 A 
BRANCH   9  10
ATOM     10  O   UNL     1      -0.931  10.553  17.775  0.00  0.00    +0.000 OA
BRANCH  10  11
ATOM     11  C   UNL     1      -2.268  10.114  17.509  0.00  0.00    +0.000 C 
BRANCH  11  12
ATOM     12  C   UNL     1      -2.927  10.983  16.451  0.00  0.00    +0.000 C 
ATOM     13  O   UNL     1      -2.732  10.861  15.249  0.00  0.00    +0.000 OA
BRANCH  12  14
ATOM     14  O   UNL     1      -3.768  11.913  16.965  0.00  0.00    +0.000 OA
ATOM     15  H   UNL     1      -3.284  12.752  17.105  0.00  0.00    +0.000 HD
ENDBRANCH  12  14
ENDBRANCH  11  12
ENDBRANCH  10  11
ENDBRANCH   9  10
ENDBRANCH   2   3
BRANCH   1  20
ATOM     16  C   UNL     1       3.334   4.723  17.782  0.00  0.00    +0.000 A 
ATOM     17  C   UNL     1       4.554   5.122  17.232  0.00  0.00    +0.000 A 
ATOM     18  C   UNL     1       4.835   6.484  17.109  0.00  0.00    +0.000 A 
ATOM     19  C   UNL     1       3.917   7.436  17.565  0.00  0.00    +0.000 A 
ATOM     20  C   UNL     1       2.707   7.029  18.134  0.00  0.00    +0.000 A 
ATOM     21  C   UNL     1       2.404   5.668  18.224  0.00  0.00    +0.000 A 
BRANCH  16  22
ATOM     22  S   UNL     1       2.994   2.989  18.002  0.00  0.00    +0.000 S 
ATOM     23  O   UNL     1       4.031   2.258  17.298  0.00  0.00    +0.000 OA
ATOM     24  O   UNL     1       1.591   2.804  17.687  0.00  0.00    +0.000 OA
BRANCH  22  25
ATOM     25  C   UNL     1       3.227   2.711  19.747  0.00  0.00    +0.000 C 
BRANCH  25  27
ATOM     26  C   UNL     1       1.441   3.809  21.133  0.00  0.00    +0.000 C 
ATOM     27  C   UNL     1       1.893   2.522  20.462  0.00  0.00    +0.000 C 
ENDBRANCH  25  27
ENDBRANCH  22  25
ENDBRANCH  16  22
ENDBRANCH   1  20
TORSDOF 9
ENDMDL
MODEL 5
REMARK VINA RESULT:      -7.0      3.039      4.552
REMARK  Name = 
REMARK  10 active torsions:
REMARK  status: ('A' for Active; 'I' for Inactive)
REMARK    1  A    between atoms: C_1  and  C_2
REMARK    2  A    between atoms: C_2  and  C_3
REMARK    3  A    between atoms: C_3  and  S_4
REMARK    4  A    between atoms: S_4  and  C_7
REMARK    5  A    between atoms: C_11  and  C_12
REMARK    6  A    between atoms: C_13  and  C_14
REMARK    7  A    between atoms: C_20  and  O_21
REMARK    8  A    between atoms: O_21  and  C_22
REMARK    9  A    between atoms: C_22  and  C_23
REMARK   10  A    between atoms: C_23  and  O_25
REMARK                            x       y       z     vdW  Elec       q    Type
REMARK                         _______ _______ _______ _____ _____    ______ ____
ROOT
ATOM      1  C   UNL     1       2.129   8.487  18.261  0.00  0.00    +0.000 C 
ATOM      2  C   UNL     1       1.538   9.446  18.683  0.00  0.00    +0.000 C 
ENDROOT
BRANCH   2   3
ATOM      3  C   UNL     1       0.847  10.583  19.229  0.00  0.00    +0.000 A 
ATOM      4  C   UNL     1       1.263  11.882  18.871  0.00  0.00    +0.000 A 
ATOM      5 CL   UNL     1       2.692  12.164  17.930  0.00  0.00    +0.000 Cl
ATOM      6  C   UNL     1       0.534  13.007  19.271  0.00  0.00    +0.000 A 
ATOM      7  C   UNL     1      -0.626  12.851  20.022  0.00  0.00    +0.000 A 
ATOM      8  C   UNL     1      -1.023  11.575  20.420  0.00  0.00    +0.000 A 
ATOM      9  C   UNL     1      -0.277  10.439  20.068  0.00  0.00    +0.000 A 
BRANCH   9  10
ATOM     10  O   UNL     1      -0.795   9.279  20.595  0.00  0.00    +0.000 OA
BRANCH  10  11
ATOM     11  C   UNL     1       0.069   8.516  21.445  0.00  0.00    +0.000 C 
BRANCH  11  12
ATOM     12  C   UNL     1       0.401   9.284  22.715  0.00  0.00    +0.000 C 
ATOM     13  O   UNL     1       1.532   9.628  23.027  0.00  0.00    +0.000 OA
BRANCH  12  14
ATOM     14  O   UNL     1      -0.685   9.563  23.475  0.00  0.00    +0.000 OA
ATOM     15  H   UNL     1      -1.482   9.602  22.908  0.00  0.00    +0.000 HD
ENDBRANCH  12  14
ENDBRANCH  11  12
ENDBRANCH  10  11
ENDBRANCH   9  10
ENDBRANCH   2   3
BRANCH   1  20
ATOM     16  C   UNL     1       3.221   4.957  17.812  0.00  0.00    +0.000 A 
ATOM     17  C   UNL     1       4.468   5.122  17.206  0.00  0.00    +0.000 A 
ATOM     18  C   UNL     1       4.913   6.408  16.895  0.00  0.00    +0.000 A 
ATOM     19  C   UNL     1       4.129   7.520  17.219  0.00  0.00    +0.000 A 
ATOM     20  C   UNL     1       2.891   7.350  17.845  0.00  0.00    +0.000 A 
ATOM     21  C   UNL     1       2.425   6.062  18.125  0.00  0.00    +0.000 A 
BRANCH  16  22
ATOM     22  S   UNL     1       2.675   3.326  18.272  0.00  0.00    +0.000 S 
ATOM     23  O   UNL     1       3.773   2.691  18.977  0.00  0.00    +0.000 OA
ATOM     24  O   UNL     1       2.100   2.736  17.079  0.00  0.00    +0.000 OA
BRANCH  22  25
ATOM     25  C   UNL     1       1.369   3.612  19.450  0.00  0.00    +0.000 C 
BRANCH  25  27
ATOM     26  C   UNL     1       2.024   3.242  21.848  0.00  0.00    +0.000 C 
ATOM     27  C   UNL     1       1.429   2.611  20.600  0.00  0.00    +0.000 C 
ENDBRANCH  25  27
ENDBRANCH  22  25
ENDBRANCH  16  22
ENDBRANCH   1  20
TORSDOF 9
ENDMDL
MODEL 6
REMARK VINA RESULT:      -7.0      1.433      1.874
REMARK  Name = 
REMARK  10 active torsions:
REMARK  status: ('A' for Active; 'I' for Inactive)
REMARK    1  A    between atoms: C_1  and  C_2
REMARK    2  A    between atoms: C_2  and  C_3
REMARK    3  A    between atoms: C_3  and  S_4
REMARK    4  A    between atoms: S_4  and  C_7
REMARK    5  A    between atoms: C_11  and  C_12
REMARK    6  A    between atoms: C_13  and  C_14
REMARK    7  A    between atoms: C_20  and  O_21
REMARK    8  A    between atoms: O_21  and  C_22
REMARK    9  A    between atoms: C_22  and  C_23
REMARK   10  A    between atoms: C_23  and  O_25
REMARK                            x       y       z     vdW  Elec       q    Type
REMARK                         _______ _______ _______ _____ _____    ______ ____
ROOT
ATOM      1  C   UNL     1       1.626   8.422  18.936  0.00  0.00    +0.000 C 
ATOM      2  C   UNL     1       0.782   9.264  19.097  0.00  0.00    +0.000 C 
ENDROOT
BRANCH   2   3
ATOM      3  C   UNL     1      -0.250  10.241  19.316  0.00  0.00    +0.000 A 
ATOM      4  C   UNL     1      -0.329  10.896  20.562  0.00  0.00    +0.000 A 
ATOM      5 CL   UNL     1       0.666  10.438  21.906  0.00  0.00    +0.000 Cl
ATOM      6  C   UNL     1      -1.230  11.946  20.767  0.00  0.00    +0.000 A 
ATOM      7  C   UNL     1      -2.054  12.367  19.729  0.00  0.00    +0.000 A 
ATOM      8  C   UNL     1      -2.016  11.699  18.505  0.00  0.00    +0.000 A 
ATOM      9  C   UNL     1      -1.152  10.612  18.298  0.00  0.00    +0.000 A 
BRANCH   9  10
ATOM     10  O   UNL     1      -1.295  10.050  17.050  0.00  0.00    +0.000 OA
BRANCH  10  11
ATOM     11  C   UNL     1      -2.634   9.831  16.592  0.00  0.00    +0.000 C 
BRANCH  11  12
ATOM     12  C   UNL     1      -2.865  10.496  15.244  0.00  0.00    +0.000 C 
ATOM     13  O   UNL     1      -2.623   9.963  14.171  0.00  0.00    +0.000 OA
BRANCH  12  14
ATOM     14  O   UNL     1      -3.377  11.747  15.342  0.00  0.00    +0.000 OA
ATOM     15  H   UNL     1      -3.407  12.159  14.455  0.00  0.00    +0.000 HD
ENDBRANCH  12  14
ENDBRANCH  11  12
ENDBRANCH  10  11
ENDBRANCH   9  10
ENDBRANCH   2   3
BRANCH   1  20
ATOM     16  C   UNL     1       4.426   6.336  17.645  0.00  0.00    +0.000 A 
ATOM     17  C   UNL     1       4.367   5.228  18.494  0.00  0.00    +0.000 A 
ATOM     18  C   UNL     1       3.433   5.210  19.531  0.00  0.00    +0.000 A 
ATOM     19  C   UNL     1       2.543   6.276  19.695  0.00  0.00    +0.000 A 
ATOM     20  C   UNL     1       2.593   7.373  18.829  0.00  0.00    +0.000 A 
ATOM     21  C   UNL     1       3.551   7.413  17.813  0.00  0.00    +0.000 A 
BRANCH  16  22
ATOM     22  S   UNL     1       5.569   6.339  16.281  0.00  0.00    +0.000 S 
ATOM     23  O   UNL     1       6.840   6.821  16.789  0.00  0.00    +0.000 OA
ATOM     24  O   UNL     1       4.894   7.001  15.182  0.00  0.00    +0.000 OA
BRANCH  22  25
ATOM     25  C   UNL     1       5.771   4.616  15.869  0.00  0.00    +0.000 C 
BRANCH  25  27
ATOM     26  C   UNL     1       7.094   4.729  13.736  0.00  0.00    +0.000 C 
ATOM     27  C   UNL     1       5.748   4.399  14.359  0.00  0.00    +0.000 C 
ENDBRANCH  25  27
ENDBRANCH  22  25
ENDBRANCH  16  22
ENDBRANCH   1  20
TORSDOF 9
ENDMDL
MODEL 7
REMARK VINA RESULT:      -7.0      1.887      3.072
REMARK  Name = 
REMARK  10 active torsions:
REMARK  status: ('A' for Active; 'I' for Inactive)
REMARK    1  A    between atoms: C_1  and  C_2
REMARK    2  A    between atoms: C_2  and  C_3
REMARK    3  A    between atoms: C_3  and  S_4
REMARK    4  A    between atoms: S_4  and  C_7
REMARK    5  A    between atoms: C_11  and  C_12
REMARK    6  A    between atoms: C_13  and  C_14
REMARK    7  A    between atoms: C_20  and  O_21
REMARK    8  A    between atoms: O_21  and  C_22
REMARK    9  A    between atoms: C_22  and  C_23
REMARK   10  A    between atoms: C_23  and  O_25
REMARK                            x       y       z     vdW  Elec       q    Type
REMARK                         _______ _______ _______ _____ _____    ______ ____
ROOT
ATOM      1  C   UNL     1       1.871   8.171  19.082  0.00  0.00    +0.000 C 
ATOM      2  C   UNL     1       1.105   8.949  19.588  0.00  0.00    +0.000 C 
ENDROOT
BRANCH   2   3
ATOM      3  C   UNL     1       0.208   9.910  20.168  0.00  0.00    +0.000 A 
ATOM      4  C   UNL     1       0.263  10.159  21.555  0.00  0.00    +0.000 A 
ATOM      5 CL   UNL     1       1.258   9.219  22.619  0.00  0.00    +0.000 Cl
ATOM      6  C   UNL     1      -0.497  11.182  22.133  0.00  0.00    +0.000 A 
ATOM      7  C   UNL     1      -1.311  11.978  21.335  0.00  0.00    +0.000 A 
ATOM      8  C   UNL     1      -1.408  11.713  19.969  0.00  0.00    +0.000 A 
ATOM      9  C   UNL     1      -0.690  10.661  19.381  0.00  0.00    +0.000 A 
BRANCH   9  10
ATOM     10  O   UNL     1      -0.956  10.522  18.038  0.00  0.00    +0.000 OA
BRANCH  10  11
ATOM     11  C   UNL     1      -2.016  11.323  17.505  0.00  0.00    +0.000 C 
BRANCH  11  12
ATOM     12  C   UNL     1      -2.592  10.696  16.245  0.00  0.00    +0.000 C 
ATOM     13  O   UNL     1      -2.571   9.496  16.010  0.00  0.00    +0.000 OA
BRANCH  12  14
ATOM     14  O   UNL     1      -3.145  11.599  15.400  0.00  0.00    +0.000 OA
ATOM     15  H   UNL     1      -3.858  12.087  15.860  0.00  0.00    +0.000 HD
ENDBRANCH  12  14
ENDBRANCH  11  12
ENDBRANCH  10  11
ENDBRANCH   9  10
ENDBRANCH   2   3
BRANCH   1  20
ATOM     16  C   UNL     1       3.961   5.205  18.250  0.00  0.00    +0.000 A 
ATOM     17  C   UNL     1       4.740   5.694  17.198  0.00  0.00    +0.000 A 
ATOM     18  C   UNL     1       4.522   6.991  16.732  0.00  0.00    +0.000 A 
ATOM     19  C   UNL     1       3.556   7.803  17.336  0.00  0.00    +0.000 A 
ATOM     20  C   UNL     1       2.794   7.315  18.402  0.00  0.00    +0.000 A 
ATOM     21  C   UNL     1       2.983   6.004  18.848  0.00  0.00    +0.000 A 
BRANCH  16  22
ATOM     22  S   UNL     1       4.276   3.576  18.894  0.00  0.00    +0.000 S 
ATOM     23  O   UNL     1       5.619   3.585  19.443  0.00  0.00    +0.000 OA
ATOM     24  O   UNL     1       3.892   2.643  17.853  0.00  0.00    +0.000 OA
BRANCH  22  25
ATOM     25  C   UNL     1       3.137   3.410  20.254  0.00  0.00    +0.000 C 
BRANCH  25  27
ATOM     26  C   UNL     1       0.624   3.413  20.230  0.00  0.00    +0.000 C 
ATOM     27  C   UNL     1       1.880   2.652  19.838  0.00  0.00    +0.000 C 
ENDBRANCH  25  27
ENDBRANCH  22  25
ENDBRANCH  16  22
ENDBRANCH   1  20
TORSDOF 9
ENDMDL
MODEL 8
REMARK VINA RESULT:      -7.0      3.642      8.192
REMARK  Name = 
REMARK  10 active torsions:
REMARK  status: ('A' for Active; 'I' for Inactive)
REMARK    1  A    between atoms: C_1  and  C_2
REMARK    2  A    between atoms: C_2  and  C_3
REMARK    3  A    between atoms: C_3  and  S_4
REMARK    4  A    between atoms: S_4  and  C_7
REMARK    5  A    between atoms: C_11  and  C_12
REMARK    6  A    between atoms: C_13  and  C_14
REMARK    7  A    between atoms: C_20  and  O_21
REMARK    8  A    between atoms: O_21  and  C_22
REMARK    9  A    between atoms: C_22  and  C_23
REMARK   10  A    between atoms: C_23  and  O_25
REMARK                            x       y       z     vdW  Elec       q    Type
REMARK                         _______ _______ _______ _____ _____    ______ ____
ROOT
ATOM      1  C   UNL     1       1.992   7.572  19.325  0.00  0.00    +0.000 C 
ATOM      2  C   UNL     1       2.467   6.634  18.740  0.00  0.00    +0.000 C 
ENDROOT
BRANCH   2   3
ATOM      3  C   UNL     1       3.016   5.486  18.072  0.00  0.00    +0.000 A 
ATOM      4  C   UNL     1       4.167   5.637  17.271  0.00  0.00    +0.000 A 
ATOM      5 CL   UNL     1       4.845   7.194  16.920  0.00  0.00    +0.000 Cl
ATOM      6  C   UNL     1       4.808   4.525  16.717  0.00  0.00    +0.000 A 
ATOM      7  C   UNL     1       4.319   3.247  16.964  0.00  0.00    +0.000 A 
ATOM      8  C   UNL     1       3.157   3.087  17.718  0.00  0.00    +0.000 A 
ATOM      9  C   UNL     1       2.474   4.196  18.241  0.00  0.00    +0.000 A 
BRANCH   9  10
ATOM     10  O   UNL     1       1.323   3.843  18.909  0.00  0.00    +0.000 OA
BRANCH  10  11
ATOM     11  C   UNL     1       1.432   2.781  19.863  0.00  0.00    +0.000 C 
BRANCH  11  12
ATOM     12  C   UNL     1       1.745   3.323  21.248  0.00  0.00    +0.000 C 
ATOM     13  O   UNL     1       2.184   4.446  21.458  0.00  0.00    +0.000 OA
BRANCH  12  14
ATOM     14  O   UNL     1       1.482   2.442  22.243  0.00  0.00    +0.000 OA
ATOM     15  H   UNL     1       1.016   1.663  21.878  0.00  0.00    +0.000 HD
ENDBRANCH  12  14
ENDBRANCH  11  12
ENDBRANCH  10  11
ENDBRANCH   9  10
ENDBRANCH   2   3
BRANCH   1  20
ATOM     16  C   UNL     1       0.521  10.883  20.180  0.00  0.00    +0.000 A 
ATOM     17  C   UNL     1       0.304  10.750  21.554  0.00  0.00    +0.000 A 
ATOM     18  C   UNL     1       0.594   9.535  22.177  0.00  0.00    +0.000 A 
ATOM     19  C   UNL     1       1.128   8.475  21.437  0.00  0.00    +0.000 A 
ATOM     20  C   UNL     1       1.362   8.621  20.067  0.00  0.00    +0.000 A 
ATOM     21  C   UNL     1       1.038   9.823  19.431  0.00  0.00    +0.000 A 
BRANCH  16  22
ATOM     22  S   UNL     1       0.216  12.449  19.390  0.00  0.00    +0.000 S 
ATOM     23  O   UNL     1       1.431  12.819  18.690  0.00  0.00    +0.000 OA
ATOM     24  O   UNL     1      -0.368  13.310  20.400  0.00  0.00    +0.000 OA
BRANCH  22  25
ATOM     25  C   UNL     1      -1.026  12.090  18.163  0.00  0.00    +0.000 C 
BRANCH  25  27
ATOM     26  C   UNL     1      -2.484  10.065  17.863  0.00  0.00    +0.000 C 
ATOM     27  C   UNL     1      -2.162  11.258  18.749  0.00  0.00    +0.000 C 
ENDBRANCH  25  27
ENDBRANCH  22  25
ENDBRANCH  16  22
ENDBRANCH   1  20
TORSDOF 9
ENDMDL
MODEL 9
REMARK VINA RESULT:      -7.0      2.129      3.200
REMARK  Name = 
REMARK  10 active torsions:
REMARK  status: ('A' for Active; 'I' for Inactive)
REMARK    1  A    between atoms: C_1  and  C_2
REMARK    2  A    between atoms: C_2  and  C_3
REMARK    3  A    between atoms: C_3  and  S_4
REMARK    4  A    between atoms: S_4  and  C_7
REMARK    5  A    between atoms: C_11  and  C_12
REMARK    6  A    between atoms: C_13  and  C_14
REMARK    7  A    between atoms: C_20  and  O_21
REMARK    8  A    between atoms: O_21  and  C_22
REMARK    9  A    between atoms: C_22  and  C_23
REMARK   10  A    between atoms: C_23  and  O_25
REMARK                            x       y       z     vdW  Elec       q    Type
REMARK                         _______ _______ _______ _____ _____    ______ ____
ROOT
ATOM      1  C   UNL     1       1.814   8.408  19.131  0.00  0.00    +0.000 C 
ATOM      2  C   UNL     1       1.049   9.175  19.655  0.00  0.00    +0.000 C 
ENDROOT
BRANCH   2   3
ATOM      3  C   UNL     1       0.112  10.056  20.297  0.00  0.00    +0.000 A 
ATOM      4  C   UNL     1       0.126  10.175  21.702  0.00  0.00    +0.000 A 
ATOM      5 CL   UNL     1       1.119   9.163  22.701  0.00  0.00    +0.000 Cl
ATOM      6  C   UNL     1      -0.675  11.119  22.353  0.00  0.00    +0.000 A 
ATOM      7  C   UNL     1      -1.490  11.967  21.611  0.00  0.00    +0.000 A 
ATOM      8  C   UNL     1      -1.546  11.829  20.224  0.00  0.00    +0.000 A 
ATOM      9  C   UNL     1      -0.786  10.854  19.560  0.00  0.00    +0.000 A 
BRANCH   9  10
ATOM     10  O   UNL     1      -1.014  10.836  18.203  0.00  0.00    +0.000 OA
BRANCH  10  11
ATOM     11  C   UNL     1      -2.098  11.638  17.722  0.00  0.00    +0.000 C 
BRANCH  11  12
ATOM     12  C   UNL     1      -2.742  11.007  16.497  0.00  0.00    +0.000 C 
ATOM     13  O   UNL     1      -2.337   9.982  15.966  0.00  0.00    +0.000 OA
BRANCH  12  14
ATOM     14  O   UNL     1      -3.823  11.687  16.046  0.00  0.00    +0.000 OA
ATOM     15  H   UNL     1      -3.572  12.613  15.854  0.00  0.00    +0.000 HD
ENDBRANCH  12  14
ENDBRANCH  11  12
ENDBRANCH  10  11
ENDBRANCH   9  10
ENDBRANCH   2   3
BRANCH   1  20
ATOM     16  C   UNL     1       3.720   5.241  18.692  0.00  0.00    +0.000 A 
ATOM     17  C   UNL     1       4.545   5.555  17.609  0.00  0.00    +0.000 A 
ATOM     18  C   UNL     1       4.419   6.801  16.993  0.00  0.00    +0.000 A 
ATOM     19  C   UNL     1       3.498   7.736  17.478  0.00  0.00    +0.000 A 
ATOM     20  C   UNL     1       2.691   7.424  18.575  0.00  0.00    +0.000 A 
ATOM     21  C   UNL     1       2.786   6.164  19.172  0.00  0.00    +0.000 A 
BRANCH  16  22
ATOM     22  S   UNL     1       3.919   3.680  19.525  0.00  0.00    +0.000 S 
ATOM     23  O   UNL     1       3.087   3.720  20.712  0.00  0.00    +0.000 OA
ATOM     24  O   UNL     1       5.347   3.441  19.609  0.00  0.00    +0.000 OA
BRANCH  22  25
ATOM     25  C   UNL     1       3.209   2.489  18.406  0.00  0.00    +0.000 C 
BRANCH  25  27
ATOM     26  C   UNL     1       0.718   2.429  18.734  0.00  0.00    +0.000 C 
ATOM     27  C   UNL     1       1.857   2.958  17.878  0.00  0.00    +0.000 C 
ENDBRANCH  25  27
ENDBRANCH  22  25
ENDBRANCH  16  22
ENDBRANCH   1  20
TORSDOF 9
ENDMDL
