MODEL 1
REMARK VINA RESULT:      -7.2      0.000      0.000
REMARK  Name = 
REMARK  7 active torsions:
REMARK  status: ('A' for Active; 'I' for Inactive)
REMARK    1  A    between atoms: C_1  and  O_2
REMARK    2  A    between atoms: O_2  and  C_3
REMARK    3  A    between atoms: C_5  and  C_6
REMARK    4  A    between atoms: C_6  and  O_8
REMARK    5  A    between atoms: O_8  and  C_9
REMARK    6  A    between atoms: C_9  and  C_10
REMARK    7  A    between atoms: C_9  and  C_11
REMARK                            x       y       z     vdW  Elec       q    Type
REMARK                         _______ _______ _______ _____ _____    ______ ____
ROOT
ATOM      1  C   UNL     1       2.319   4.643  20.458  0.00  0.00    +0.000 A 
ATOM      2  C   UNL     1       2.949   3.821  19.505  0.00  0.00    +0.000 A 
ATOM      3  C   UNL     1       3.289   4.320  18.242  0.00  0.00    +0.000 A 
ATOM      4  C   UNL     1       3.041   5.670  17.955  0.00  0.00    +0.000 A 
ATOM      5  C   UNL     1       2.448   6.498  18.904  0.00  0.00    +0.000 A 
ATOM      6  C   UNL     1       2.057   5.990  20.152  0.00  0.00    +0.000 A 
ATOM      7  O   UNL     1       1.460   6.797  21.087  0.00  0.00    +0.000 OA
ATOM      8  C   UNL     1       0.919   7.990  20.513  0.00  0.00    +0.000 C 
ATOM      9  C   UNL     1       1.955   8.653  19.626  0.00  0.00    +0.000 C 
ATOM     10  O   UNL     1       2.274   7.804  18.521  0.00  0.00    +0.000 OA
ENDROOT
BRANCH   1  12
ATOM     11  C   UNL     1       2.355   2.615  21.711  0.00  0.00    +0.000 C 
ATOM     12  O   UNL     1       2.056   4.005  21.643  0.00  0.00    +0.000 OA
ENDBRANCH   1  12
BRANCH   3  13
ATOM     13  C   UNL     1       3.905   3.503  17.161  0.00  0.00    +0.000 C 
ATOM     14  O   UNL     1       4.194   2.330  17.326  0.00  0.00    +0.000 OA
BRANCH  13  15
ATOM     15  O   UNL     1       4.098   4.197  16.005  0.00  0.00    +0.000 OA
BRANCH  15  16
ATOM     16  C   UNL     1       5.486   4.369  15.653  0.00  0.00    +0.000 C 
ATOM     17  C   UNL     1       5.675   4.068  14.163  0.00  0.00    +0.000 C 
BRANCH  16  18
ATOM     18  C   UNL     1       5.947   5.810  15.968  0.00  0.00    +0.000 C 
ATOM     19  O   UNL     1       5.546   6.778  15.316  0.00  0.00    +0.000 OA
ATOM     20  N   UNL     1       6.828   5.982  17.018  0.00  0.00    +0.000 N 
ATOM     21  C   UNL     1       7.434   4.967  17.856  0.00  0.00    +0.000 C 
ATOM     22  C   UNL     1       7.760   5.725  19.131  0.00  0.00    +0.000 C 
ATOM     23  C   UNL     1       8.151   7.113  18.631  0.00  0.00    +0.000 C 
ATOM     24  C   UNL     1       7.352   7.298  17.344  0.00  0.00    +0.000 C 
ENDBRANCH  16  18
ENDBRANCH  15  16
ENDBRANCH  13  15
ENDBRANCH   3  13
TORSDOF 5
ENDMDL
MODEL 2
REMARK VINA RESULT:      -6.8      1.960      5.903
REMARK  Name = 
REMARK  7 active torsions:
REMARK  status: ('A' for Active; 'I' for Inactive)
REMARK    1  A    between atoms: C_1  and  O_2
REMARK    2  A    between atoms: O_2  and  C_3
REMARK    3  A    between atoms: C_5  and  C_6
REMARK    4  A    between atoms: C_6  and  O_8
REMARK    5  A    between atoms: O_8  and  C_9
REMARK    6  A    between atoms: C_9  and  C_10
REMARK    7  A    between atoms: C_9  and  C_11
REMARK                            x       y       z     vdW  Elec       q    Type
REMARK                         _______ _______ _______ _____ _____    ______ ____
ROOT
ATOM      1  C   UNL     1       6.887   4.602  17.852  0.00  0.00    +0.000 A 
ATOM      2  C   UNL     1       5.917   4.036  18.701  0.00  0.00    +0.000 A 
ATOM      3  C   UNL     1       4.760   3.448  18.175  0.00  0.00    +0.000 A 
ATOM      4  C   UNL     1       4.604   3.383  16.783  0.00  0.00    +0.000 A 
ATOM      5  C   UNL     1       5.574   3.912  15.936  0.00  0.00    +0.000 A 
ATOM      6  C   UNL     1       6.709   4.548  16.458  0.00  0.00    +0.000 A 
ATOM      7  O   UNL     1       7.663   5.084  15.629  0.00  0.00    +0.000 OA
ATOM      8  C   UNL     1       7.174   5.298  14.302  0.00  0.00    +0.000 C 
ATOM      9  C   UNL     1       6.480   4.048  13.798  0.00  0.00    +0.000 C 
ATOM     10  O   UNL     1       5.325   3.771  14.594  0.00  0.00    +0.000 OA
ENDROOT
BRANCH   1  12
ATOM     11  C   UNL     1       7.951   6.540  18.744  0.00  0.00    +0.000 C 
ATOM     12  O   UNL     1       7.959   5.133  18.522  0.00  0.00    +0.000 OA
ENDBRANCH   1  12
BRANCH   3  13
ATOM     13  C   UNL     1       3.664   2.879  19.004  0.00  0.00    +0.000 C 
ATOM     14  O   UNL     1       3.197   1.774  18.783  0.00  0.00    +0.000 OA
BRANCH  13  15
ATOM     15  O   UNL     1       3.259   3.709  20.005  0.00  0.00    +0.000 OA
BRANCH  15  16
ATOM     16  C   UNL     1       1.902   4.177  19.862  0.00  0.00    +0.000 C 
ATOM     17  C   UNL     1       0.992   3.402  20.820  0.00  0.00    +0.000 C 
BRANCH  16  18
ATOM     18  C   UNL     1       1.821   5.691  20.157  0.00  0.00    +0.000 C 
ATOM     19  O   UNL     1       1.462   6.121  21.257  0.00  0.00    +0.000 OA
ATOM     20  N   UNL     1       2.171   6.559  19.141  0.00  0.00    +0.000 N 
ATOM     21  C   UNL     1       2.568   6.238  17.784  0.00  0.00    +0.000 C 
ATOM     22  C   UNL     1       3.388   7.448  17.372  0.00  0.00    +0.000 C 
ATOM     23  C   UNL     1       2.680   8.610  18.062  0.00  0.00    +0.000 C 
ATOM     24  C   UNL     1       2.069   7.998  19.320  0.00  0.00    +0.000 C 
ENDBRANCH  16  18
ENDBRANCH  15  16
ENDBRANCH  13  15
ENDBRANCH   3  13
TORSDOF 5
ENDMDL
MODEL 3
REMARK VINA RESULT:      -6.7      1.987      6.486
REMARK  Name = 
REMARK  7 active torsions:
REMARK  status: ('A' for Active; 'I' for Inactive)
REMARK    1  A    between atoms: C_1  and  O_2
REMARK    2  A    between atoms: O_2  and  C_3
REMARK    3  A    between atoms: C_5  and  C_6
REMARK    4  A    between atoms: C_6  and  O_8
REMARK    5  A    between atoms: O_8  and  C_9
REMARK    6  A    between atoms: C_9  and  C_10
REMARK    7  A    between atoms: C_9  and  C_11
REMARK                            x       y       z     vdW  Elec       q    Type
REMARK                         _______ _______ _______ _____ _____    ______ ____
ROOT
ATOM      1  C   UNL     1       6.852   5.520  15.972  0.00  0.00    +0.000 A 
ATOM      2  C   UNL     1       5.826   5.077  16.827  0.00  0.00    +0.000 A 
ATOM      3  C   UNL     1       4.837   4.201  16.364  0.00  0.00    +0.000 A 
ATOM      4  C   UNL     1       4.910   3.728  15.046  0.00  0.00    +0.000 A 
ATOM      5  C   UNL     1       5.940   4.137  14.204  0.00  0.00    +0.000 A 
ATOM      6  C   UNL     1       6.904   5.055  14.646  0.00  0.00    +0.000 A 
ATOM      7  O   UNL     1       7.914   5.473  13.816  0.00  0.00    +0.000 OA
ATOM      8  C   UNL     1       7.621   5.235  12.437  0.00  0.00    +0.000 C 
ATOM      9  C   UNL     1       7.153   3.806  12.247  0.00  0.00    +0.000 C 
ATOM     10  O   UNL     1       5.923   3.593  12.944  0.00  0.00    +0.000 OA
ENDROOT
BRANCH   1  12
ATOM     11  C   UNL     1       7.266   7.120  17.691  0.00  0.00    +0.000 C 
ATOM     12  O   UNL     1       7.741   6.370  16.578  0.00  0.00    +0.000 OA
ENDBRANCH   1  12
BRANCH   3  13
ATOM     13  C   UNL     1       3.689   3.729  17.187  0.00  0.00    +0.000 C 
ATOM     14  O   UNL     1       2.720   3.186  16.686  0.00  0.00    +0.000 OA
BRANCH  13  15
ATOM     15  O   UNL     1       3.848   3.967  18.518  0.00  0.00    +0.000 OA
BRANCH  15  16
ATOM     16  C   UNL     1       2.637   3.815  19.286  0.00  0.00    +0.000 C 
ATOM     17  C   UNL     1       2.750   2.573  20.175  0.00  0.00    +0.000 C 
BRANCH  16  18
ATOM     18  C   UNL     1       2.387   5.070  20.152  0.00  0.00    +0.000 C 
ATOM     19  O   UNL     1       2.353   5.013  21.384  0.00  0.00    +0.000 OA
ATOM     20  N   UNL     1       2.205   6.272  19.496  0.00  0.00    +0.000 N 
ATOM     21  C   UNL     1       2.167   6.517  18.068  0.00  0.00    +0.000 C 
ATOM     22  C   UNL     1       2.562   7.980  17.962  0.00  0.00    +0.000 C 
ATOM     23  C   UNL     1       1.933   8.610  19.201  0.00  0.00    +0.000 C 
ATOM     24  C   UNL     1       1.911   7.489  20.235  0.00  0.00    +0.000 C 
ENDBRANCH  16  18
ENDBRANCH  15  16
ENDBRANCH  13  15
ENDBRANCH   3  13
TORSDOF 5
ENDMDL
MODEL 4
REMARK VINA RESULT:      -6.7      2.039      6.274
REMARK  Name = 
REMARK  7 active torsions:
REMARK  status: ('A' for Active; 'I' for Inactive)
REMARK    1  A    between atoms: C_1  and  O_2
REMARK    2  A    between atoms: O_2  and  C_3
REMARK    3  A    between atoms: C_5  and  C_6
REMARK    4  A    between atoms: C_6  and  O_8
REMARK    5  A    between atoms: O_8  and  C_9
REMARK    6  A    between atoms: C_9  and  C_10
REMARK    7  A    between atoms: C_9  and  C_11
REMARK                            x       y       z     vdW  Elec       q    Type
REMARK                         _______ _______ _______ _____ _____    ______ ____
ROOT
ATOM      1  C   UNL     1       6.966   5.427  16.671  0.00  0.00    +0.000 A 
ATOM      2  C   UNL     1       6.051   4.875  17.586  0.00  0.00    +0.000 A 
ATOM      3  C   UNL     1       5.087   3.950  17.165  0.00  0.00    +0.000 A 
ATOM      4  C   UNL     1       5.079   3.540  15.824  0.00  0.00    +0.000 A 
ATOM      5  C   UNL     1       6.003   4.057  14.920  0.00  0.00    +0.000 A 
ATOM      6  C   UNL     1       6.936   5.022  15.324  0.00  0.00    +0.000 A 
ATOM      7  O   UNL     1       7.840   5.547  14.435  0.00  0.00    +0.000 OA
ATOM      8  C   UNL     1       7.446   5.346  13.074  0.00  0.00    +0.000 C 
ATOM      9  C   UNL     1       7.062   3.896  12.856  0.00  0.00    +0.000 C 
ATOM     10  O   UNL     1       5.913   3.566  13.641  0.00  0.00    +0.000 OA
ENDROOT
BRANCH   1  12
ATOM     11  C   UNL     1       7.861   6.384  18.662  0.00  0.00    +0.000 C 
ATOM     12  O   UNL     1       7.845   6.312  17.241  0.00  0.00    +0.000 OA
ENDBRANCH   1  12
BRANCH   3  13
ATOM     13  C   UNL     1       4.050   3.363  18.056  0.00  0.00    +0.000 C 
ATOM     14  O   UNL     1       3.701   2.199  17.957  0.00  0.00    +0.000 OA
BRANCH  13  15
ATOM     15  O   UNL     1       3.556   4.249  18.964  0.00  0.00    +0.000 OA
BRANCH  15  16
ATOM     16  C   UNL     1       2.668   5.233  18.396  0.00  0.00    +0.000 C 
ATOM     17  C   UNL     1       1.458   4.528  17.773  0.00  0.00    +0.000 C 
BRANCH  16  18
ATOM     18  C   UNL     1       2.204   6.230  19.481  0.00  0.00    +0.000 C 
ATOM     19  O   UNL     1       2.089   5.897  20.663  0.00  0.00    +0.000 OA
ATOM     20  N   UNL     1       1.922   7.522  19.082  0.00  0.00    +0.000 N 
ATOM     21  C   UNL     1       1.957   8.074  17.742  0.00  0.00    +0.000 C 
ATOM     22  C   UNL     1       2.175   9.557  17.988  0.00  0.00    +0.000 C 
ATOM     23  C   UNL     1       1.386   9.826  19.266  0.00  0.00    +0.000 C 
ATOM     24  C   UNL     1       1.428   8.506  20.030  0.00  0.00    +0.000 C 
ENDBRANCH  16  18
ENDBRANCH  15  16
ENDBRANCH  13  15
ENDBRANCH   3  13
TORSDOF 5
ENDMDL
MODEL 5
REMARK VINA RESULT:      -6.7      3.495      6.736
REMARK  Name = 
REMARK  7 active torsions:
REMARK  status: ('A' for Active; 'I' for Inactive)
REMARK    1  A    between atoms: C_1  and  O_2
REMARK    2  A    between atoms: O_2  and  C_3
REMARK    3  A    between atoms: C_5  and  C_6
REMARK    4  A    between atoms: C_6  and  O_8
REMARK    5  A    between atoms: O_8  and  C_9
REMARK    6  A    between atoms: C_9  and  C_10
REMARK    7  A    between atoms: C_9  and  C_11
REMARK                            x       y       z     vdW  Elec       q    Type
REMARK                         _______ _______ _______ _____ _____    ______ ____
ROOT
ATOM      1  C   UNL     1       2.842   5.691  19.813  0.00  0.00    +0.000 A 
ATOM      2  C   UNL     1       2.142   6.902  19.663  0.00  0.00    +0.000 A 
ATOM      3  C   UNL     1       2.427   7.766  18.598  0.00  0.00    +0.000 A 
ATOM      4  C   UNL     1       3.386   7.383  17.649  0.00  0.00    +0.000 A 
ATOM      5  C   UNL     1       4.058   6.170  17.773  0.00  0.00    +0.000 A 
ATOM      6  C   UNL     1       3.815   5.326  18.866  0.00  0.00    +0.000 A 
ATOM      7  O   UNL     1       4.485   4.135  19.002  0.00  0.00    +0.000 OA
ATOM      8  C   UNL     1       5.677   4.087  18.213  0.00  0.00    +0.000 C 
ATOM      9  C   UNL     1       5.376   4.523  16.793  0.00  0.00    +0.000 C 
ATOM     10  O   UNL     1       4.958   5.890  16.775  0.00  0.00    +0.000 OA
ENDROOT
BRANCH   1  12
ATOM     11  C   UNL     1       1.329   4.091  20.727  0.00  0.00    +0.000 C 
ATOM     12  O   UNL     1       2.443   4.959  20.902  0.00  0.00    +0.000 OA
ENDBRANCH   1  12
BRANCH   3  13
ATOM     13  C   UNL     1       1.774   9.089  18.399  0.00  0.00    +0.000 C 
ATOM     14  O   UNL     1       1.918   9.729  17.372  0.00  0.00    +0.000 OA
BRANCH  13  15
ATOM     15  O   UNL     1       1.021   9.483  19.464  0.00  0.00    +0.000 OA
BRANCH  15  16
ATOM     16  C   UNL     1       0.444  10.796  19.316  0.00  0.00    +0.000 C 
ATOM     17  C   UNL     1      -1.065  10.720  19.571  0.00  0.00    +0.000 C 
BRANCH  16  18
ATOM     18  C   UNL     1       1.102  11.788  20.300  0.00  0.00    +0.000 C 
ATOM     19  O   UNL     1       0.995  11.658  21.522  0.00  0.00    +0.000 OA
ATOM     20  N   UNL     1       1.827  12.834  19.762  0.00  0.00    +0.000 N 
ATOM     21  C   UNL     1       2.019  13.166  18.364  0.00  0.00    +0.000 C 
ATOM     22  C   UNL     1       3.320  13.949  18.375  0.00  0.00    +0.000 C 
ATOM     23  C   UNL     1       3.260  14.723  19.689  0.00  0.00    +0.000 C 
ATOM     24  C   UNL     1       2.431  13.842  20.618  0.00  0.00    +0.000 C 
ENDBRANCH  16  18
ENDBRANCH  15  16
ENDBRANCH  13  15
ENDBRANCH   3  13
TORSDOF 5
ENDMDL
MODEL 6
REMARK VINA RESULT:      -6.6      3.349      6.787
REMARK  Name = 
REMARK  7 active torsions:
REMARK  status: ('A' for Active; 'I' for Inactive)
REMARK    1  A    between atoms: C_1  and  O_2
REMARK    2  A    between atoms: O_2  and  C_3
REMARK    3  A    between atoms: C_5  and  C_6
REMARK    4  A    between atoms: C_6  and  O_8
REMARK    5  A    between atoms: O_8  and  C_9
REMARK    6  A    between atoms: C_9  and  C_10
REMARK    7  A    between atoms: C_9  and  C_11
REMARK                            x       y       z     vdW  Elec       q    Type
REMARK                         _______ _______ _______ _____ _____    ______ ____
ROOT
ATOM      1  C   UNL     1       3.996   5.496  18.112  0.00  0.00    +0.000 A 
ATOM      2  C   UNL     1       3.559   6.811  17.866  0.00  0.00    +0.000 A 
ATOM      3  C   UNL     1       2.522   7.374  18.621  0.00  0.00    +0.000 A 
ATOM      4  C   UNL     1       1.958   6.627  19.664  0.00  0.00    +0.000 A 
ATOM      5  C   UNL     1       2.408   5.337  19.935  0.00  0.00    +0.000 A 
ATOM      6  C   UNL     1       3.409   4.749  19.149  0.00  0.00    +0.000 A 
ATOM      7  O   UNL     1       3.848   3.473  19.401  0.00  0.00    +0.000 OA
ATOM      8  C   UNL     1       2.923   2.726  20.195  0.00  0.00    +0.000 C 
ATOM      9  C   UNL     1       2.505   3.537  21.405  0.00  0.00    +0.000 C 
ATOM     10  O   UNL     1       1.798   4.710  20.993  0.00  0.00    +0.000 OA
ENDROOT
BRANCH   1  12
ATOM     11  C   UNL     1       5.993   6.074  16.945  0.00  0.00    +0.000 C 
ATOM     12  O   UNL     1       5.018   5.096  17.290  0.00  0.00    +0.000 OA
ENDBRANCH   1  12
BRANCH   3  13
ATOM     13  C   UNL     1       1.965   8.734  18.388  0.00  0.00    +0.000 C 
ATOM     14  O   UNL     1       2.063   9.293  17.309  0.00  0.00    +0.000 OA
BRANCH  13  15
ATOM     15  O   UNL     1       1.352   9.260  19.484  0.00  0.00    +0.000 OA
BRANCH  15  16
ATOM     16  C   UNL     1       0.671  10.506  19.231  0.00  0.00    +0.000 C 
ATOM     17  C   UNL     1      -0.840  10.296  19.364  0.00  0.00    +0.000 C 
BRANCH  16  18
ATOM     18  C   UNL     1       1.148  11.591  20.221  0.00  0.00    +0.000 C 
ATOM     19  O   UNL     1       0.955  11.494  21.435  0.00  0.00    +0.000 OA
ATOM     20  N   UNL     1       1.810  12.685  19.698  0.00  0.00    +0.000 N 
ATOM     21  C   UNL     1       2.084  12.987  18.306  0.00  0.00    +0.000 C 
ATOM     22  C   UNL     1       3.298  13.896  18.386  0.00  0.00    +0.000 C 
ATOM     23  C   UNL     1       3.056  14.704  19.657  0.00  0.00    +0.000 C 
ATOM     24  C   UNL     1       2.243  13.777  20.555  0.00  0.00    +0.000 C 
ENDBRANCH  16  18
ENDBRANCH  15  16
ENDBRANCH  13  15
ENDBRANCH   3  13
TORSDOF 5
ENDMDL
MODEL 7
REMARK VINA RESULT:      -6.6      2.452      5.016
REMARK  Name = 
REMARK  7 active torsions:
REMARK  status: ('A' for Active; 'I' for Inactive)
REMARK    1  A    between atoms: C_1  and  O_2
REMARK    2  A    between atoms: O_2  and  C_3
REMARK    3  A    between atoms: C_5  and  C_6
REMARK    4  A    between atoms: C_6  and  O_8
REMARK    5  A    between atoms: O_8  and  C_9
REMARK    6  A    between atoms: C_9  and  C_10
REMARK    7  A    between atoms: C_9  and  C_11
REMARK                            x       y       z     vdW  Elec       q    Type
REMARK                         _______ _______ _______ _____ _____    ______ ____
ROOT
ATOM      1  C   UNL     1       0.102  10.369  19.053  0.00  0.00    +0.000 A 
ATOM      2  C   UNL     1       0.927   9.461  18.365  0.00  0.00    +0.000 A 
ATOM      3  C   UNL     1       1.641   8.475  19.057  0.00  0.00    +0.000 A 
ATOM      4  C   UNL     1       1.482   8.371  20.447  0.00  0.00    +0.000 A 
ATOM      5  C   UNL     1       0.642   9.245  21.131  0.00  0.00    +0.000 A 
ATOM      6  C   UNL     1      -0.034  10.268  20.449  0.00  0.00    +0.000 A 
ATOM      7  O   UNL     1      -0.853  11.142  21.119  0.00  0.00    +0.000 OA
ATOM      8  C   UNL     1      -0.592  11.165  22.525  0.00  0.00    +0.000 C 
ATOM      9  C   UNL     1      -0.546   9.750  23.066  0.00  0.00    +0.000 C 
ATOM     10  O   UNL     1       0.548   9.035  22.484  0.00  0.00    +0.000 OA
ENDROOT
BRANCH   1  12
ATOM     11  C   UNL     1      -1.845  10.940  17.801  0.00  0.00    +0.000 C 
ATOM     12  O   UNL     1      -0.528  11.269  18.232  0.00  0.00    +0.000 OA
ENDBRANCH   1  12
BRANCH   3  13
ATOM     13  C   UNL     1       2.576   7.514  18.412  0.00  0.00    +0.000 C 
ATOM     14  O   UNL     1       3.545   7.890  17.774  0.00  0.00    +0.000 OA
BRANCH  13  15
ATOM     15  O   UNL     1       2.233   6.212  18.613  0.00  0.00    +0.000 OA
BRANCH  15  16
ATOM     16  C   UNL     1       3.348   5.359  18.942  0.00  0.00    +0.000 C 
ATOM     17  C   UNL     1       2.954   4.423  20.089  0.00  0.00    +0.000 C 
BRANCH  16  18
ATOM     18  C   UNL     1       3.779   4.536  17.707  0.00  0.00    +0.000 C 
ATOM     19  O   UNL     1       3.004   3.763  17.138  0.00  0.00    +0.000 OA
ATOM     20  N   UNL     1       5.073   4.700  17.251  0.00  0.00    +0.000 N 
ATOM     21  C   UNL     1       6.126   5.522  17.816  0.00  0.00    +0.000 C 
ATOM     22  C   UNL     1       7.030   5.784  16.625  0.00  0.00    +0.000 C 
ATOM     23  C   UNL     1       6.961   4.484  15.830  0.00  0.00    +0.000 C 
ATOM     24  C   UNL     1       5.574   3.923  16.129  0.00  0.00    +0.000 C 
ENDBRANCH  16  18
ENDBRANCH  15  16
ENDBRANCH  13  15
ENDBRANCH   3  13
TORSDOF 5
ENDMDL
MODEL 8
REMARK VINA RESULT:      -6.6      2.072      4.361
REMARK  Name = 
REMARK  7 active torsions:
REMARK  status: ('A' for Active; 'I' for Inactive)
REMARK    1  A    between atoms: C_1  and  O_2
REMARK    2  A    between atoms: O_2  and  C_3
REMARK    3  A    between atoms: C_5  and  C_6
REMARK    4  A    between atoms: C_6  and  O_8
REMARK    5  A    between atoms: O_8  and  C_9
REMARK    6  A    between atoms: C_9  and  C_10
REMARK    7  A    between atoms: C_9  and  C_11
REMARK                            x       y       z     vdW  Elec       q    Type
REMARK                         _______ _______ _______ _____ _____    ______ ____
ROOT
ATOM      1  C   UNL     1       3.042   5.798  19.322  0.00  0.00    +0.000 A 
ATOM      2  C   UNL     1       4.344   5.975  18.819  0.00  0.00    +0.000 A 
ATOM      3  C   UNL     1       5.136   4.871  18.479  0.00  0.00    +0.000 A 
ATOM      4  C   UNL     1       4.594   3.583  18.596  0.00  0.00    +0.000 A 
ATOM      5  C   UNL     1       3.294   3.403  19.063  0.00  0.00    +0.000 A 
ATOM      6  C   UNL     1       2.516   4.501  19.455  0.00  0.00    +0.000 A 
ATOM      7  O   UNL     1       1.239   4.328  19.929  0.00  0.00    +0.000 OA
ATOM      8  C   UNL     1       0.995   2.988  20.364  0.00  0.00    +0.000 C 
ATOM      9  C   UNL     1       1.448   2.008  19.301  0.00  0.00    +0.000 C 
ATOM     10  O   UNL     1       2.863   2.100  19.115  0.00  0.00    +0.000 OA
ENDROOT
BRANCH   1  12
ATOM     11  C   UNL     1       2.354   7.953  18.570  0.00  0.00    +0.000 C 
ATOM     12  O   UNL     1       2.398   6.976  19.604  0.00  0.00    +0.000 OA
ENDBRANCH   1  12
BRANCH   3  13
ATOM     13  C   UNL     1       6.539   4.970  17.994  0.00  0.00    +0.000 C 
ATOM     14  O   UNL     1       7.440   4.320  18.495  0.00  0.00    +0.000 OA
BRANCH  13  15
ATOM     15  O   UNL     1       6.691   5.842  16.959  0.00  0.00    +0.000 OA
BRANCH  15  16
ATOM     16  C   UNL     1       5.985   5.456  15.762  0.00  0.00    +0.000 C 
ATOM     17  C   UNL     1       4.995   6.559  15.376  0.00  0.00    +0.000 C 
BRANCH  16  18
ATOM     18  C   UNL     1       6.980   5.205  14.607  0.00  0.00    +0.000 C 
ATOM     19  O   UNL     1       8.129   5.652  14.630  0.00  0.00    +0.000 OA
ATOM     20  N   UNL     1       6.538   4.450  13.537  0.00  0.00    +0.000 N 
ATOM     21  C   UNL     1       5.220   3.888  13.320  0.00  0.00    +0.000 C 
ATOM     22  C   UNL     1       5.495   2.721  12.387  0.00  0.00    +0.000 C 
ATOM     23  C   UNL     1       6.630   3.231  11.504  0.00  0.00    +0.000 C 
ATOM     24  C   UNL     1       7.394   4.214  12.386  0.00  0.00    +0.000 C 
ENDBRANCH  16  18
ENDBRANCH  15  16
ENDBRANCH  13  15
ENDBRANCH   3  13
TORSDOF 5
ENDMDL
MODEL 9
REMARK VINA RESULT:      -6.5      3.086      5.755
REMARK  Name = 
REMARK  7 active torsions:
REMARK  status: ('A' for Active; 'I' for Inactive)
REMARK    1  A    between atoms: C_1  and  O_2
REMARK    2  A    between atoms: O_2  and  C_3
REMARK    3  A    between atoms: C_5  and  C_6
REMARK    4  A    between atoms: C_6  and  O_8
REMARK    5  A    between atoms: O_8  and  C_9
REMARK    6  A    between atoms: C_9  and  C_10
REMARK    7  A    between atoms: C_9  and  C_11
REMARK                            x       y       z     vdW  Elec       q    Type
REMARK                         _______ _______ _______ _____ _____    ______ ____
ROOT
ATOM      1  C   UNL     1      -0.161   9.527  21.011  0.00  0.00    +0.000 A 
ATOM      2  C   UNL     1       0.770   8.693  20.365  0.00  0.00    +0.000 A 
ATOM      3  C   UNL     1       1.305   9.046  19.120  0.00  0.00    +0.000 A 
ATOM      4  C   UNL     1       0.940  10.273  18.547  0.00  0.00    +0.000 A 
ATOM      5  C   UNL     1       0.044  11.119  19.197  0.00  0.00    +0.000 A 
ATOM      6  C   UNL     1      -0.535  10.746  20.418  0.00  0.00    +0.000 A 
ATOM      7  O   UNL     1      -1.429  11.568  21.056  0.00  0.00    +0.000 OA
ATOM      8  C   UNL     1      -1.992  12.548  20.179  0.00  0.00    +0.000 C 
ATOM      9  C   UNL     1      -0.890  13.239  19.401  0.00  0.00    +0.000 C 
ATOM     10  O   UNL     1      -0.222  12.301  18.552  0.00  0.00    +0.000 OA
ENDROOT
BRANCH   1  12
ATOM     11  C   UNL     1       0.049   9.555  23.386  0.00  0.00    +0.000 C 
ATOM     12  O   UNL     1      -0.586   9.040  22.221  0.00  0.00    +0.000 OA
ENDBRANCH   1  12
BRANCH   3  13
ATOM     13  C   UNL     1       2.250   8.196  18.347  0.00  0.00    +0.000 C 
ATOM     14  O   UNL     1       2.754   8.578  17.305  0.00  0.00    +0.000 OA
BRANCH  13  15
ATOM     15  O   UNL     1       2.477   6.983  18.922  0.00  0.00    +0.000 OA
BRANCH  15  16
ATOM     16  C   UNL     1       2.780   5.936  17.978  0.00  0.00    +0.000 C 
ATOM     17  C   UNL     1       4.251   5.532  18.119  0.00  0.00    +0.000 C 
BRANCH  16  18
ATOM     18  C   UNL     1       1.866   4.714  18.217  0.00  0.00    +0.000 C 
ATOM     19  O   UNL     1       1.242   4.178  17.297  0.00  0.00    +0.000 OA
ATOM     20  N   UNL     1       1.772   4.230  19.508  0.00  0.00    +0.000 N 
ATOM     21  C   UNL     1       2.391   4.756  20.709  0.00  0.00    +0.000 C 
ATOM     22  C   UNL     1       2.454   3.542  21.620  0.00  0.00    +0.000 C 
ATOM     23  C   UNL     1       1.174   2.780  21.288  0.00  0.00    +0.000 C 
ATOM     24  C   UNL     1       0.892   3.118  19.827  0.00  0.00    +0.000 C 
ENDBRANCH  16  18
ENDBRANCH  15  16
ENDBRANCH  13  15
ENDBRANCH   3  13
TORSDOF 5
ENDMDL
