MODEL 1
REMARK VINA RESULT:      -8.2      0.000      0.000
REMARK  Name = 
REMARK  7 active torsions:
REMARK  status: ('A' for Active; 'I' for Inactive)
REMARK    1  A    between atoms: C_2  and  C_3
REMARK    2  A    between atoms: C_3  and  N_4
REMARK    3  A    between atoms: C_5  and  S_6
REMARK    4  A    between atoms: S_6  and  C_7
REMARK    5  A    between atoms: C_7  and  C_8
REMARK    6  A    between atoms: C_8  and  C_10
REMARK    7  A    between atoms: C_21  and  O_22
REMARK                            x       y       z     vdW  Elec       q    Type
REMARK                         _______ _______ _______ _____ _____    ______ ____
ROOT
ATOM      1  S   UNL     1       4.460   7.522  17.267  0.00  0.00    +0.000 S 
ENDROOT
BRANCH   1   3
ATOM      2  N   UNL     1       6.499   5.707  17.341  0.00  0.00    +0.000 N 
ATOM      3  C   UNL     1       5.404   6.176  16.621  0.00  0.00    +0.000 A 
ATOM      4  N   UNL     1       5.020   5.679  15.489  0.00  0.00    +0.000 NA
ATOM      5  C   UNL     1       5.740   4.641  14.984  0.00  0.00    +0.000 A 
ATOM      6  C   UNL     1       6.791   4.083  15.571  0.00  0.00    +0.000 A 
ATOM      7  C   UNL     1       7.227   4.633  16.854  0.00  0.00    +0.000 A 
ATOM      8  O   UNL     1       8.204   4.127  17.404  0.00  0.00    +0.000 OA
BRANCH   5   9
ATOM      9  O   UNL     1       5.321   4.167  13.770  0.00  0.00    +0.000 OA
ATOM     10  H   UNL     1       4.635   3.522  14.017  0.00  0.00    +0.000 HD
ENDBRANCH   5   9
BRANCH   2  11
ATOM     11  C   UNL     1       6.995   6.281  18.590  0.00  0.00    +0.000 C 
BRANCH  11  13
ATOM     12  C   UNL     1       7.981   8.476  17.848  0.00  0.00    +0.000 C 
ATOM     13  C   UNL     1       8.132   7.218  18.282  0.00  0.00    +0.000 C 
ENDBRANCH  11  13
ENDBRANCH   2  11
ENDBRANCH   1   3
BRANCH   1  14
ATOM     14  C   UNL     1       2.815   6.751  17.503  0.00  0.00    +0.000 C 
BRANCH  14  15
ATOM     15  C   UNL     1       2.505   6.387  18.963  0.00  0.00    +0.000 C 
ATOM     16  O   UNL     1       2.341   7.245  19.835  0.00  0.00    +0.000 OA
BRANCH  15  17
ATOM     17  C   UNL     1       2.328   4.877  19.324  0.00  0.00    +0.000 C 
ATOM     18  C   UNL     1       1.336   4.641  20.487  0.00  0.00    +0.000 C 
ATOM     19  C   UNL     1       1.194   3.138  20.801  0.00  0.00    +0.000 C 
ATOM     20  C   UNL     1       0.677   2.399  19.558  0.00  0.00    +0.000 C 
ATOM     21  C   UNL     1       1.661   2.589  18.394  0.00  0.00    +0.000 C 
ATOM     22  C   UNL     1       3.034   2.026  18.793  0.00  0.00    +0.000 C 
ATOM     23  C   UNL     1       3.564   2.765  20.032  0.00  0.00    +0.000 C 
ATOM     24  C   UNL     1       2.568   2.570  21.190  0.00  0.00    +0.000 C 
ATOM     25  C   UNL     1       3.697   4.271  19.719  0.00  0.00    +0.000 C 
ATOM     26  C   UNL     1       1.800   4.093  18.086  0.00  0.00    +0.000 C 
ENDBRANCH  15  17
ENDBRANCH  14  15
ENDBRANCH   1  14
TORSDOF 7
ENDMDL
MODEL 2
REMARK VINA RESULT:      -7.8      4.443      7.348
REMARK  Name = 
REMARK  7 active torsions:
REMARK  status: ('A' for Active; 'I' for Inactive)
REMARK    1  A    between atoms: C_2  and  C_3
REMARK    2  A    between atoms: C_3  and  N_4
REMARK    3  A    between atoms: C_5  and  S_6
REMARK    4  A    between atoms: S_6  and  C_7
REMARK    5  A    between atoms: C_7  and  C_8
REMARK    6  A    between atoms: C_8  and  C_10
REMARK    7  A    between atoms: C_21  and  O_22
REMARK                            x       y       z     vdW  Elec       q    Type
REMARK                         _______ _______ _______ _____ _____    ______ ____
ROOT
ATOM      1  S   UNL     1       1.315   9.156  19.087  0.00  0.00    +0.000 S 
ENDROOT
BRANCH   1   3
ATOM      2  N   UNL     1      -0.507  10.905  20.122  0.00  0.00    +0.000 N 
ATOM      3  C   UNL     1       0.430   9.919  20.411  0.00  0.00    +0.000 A 
ATOM      4  N   UNL     1       0.699   9.510  21.610  0.00  0.00    +0.000 NA
ATOM      5  C   UNL     1       0.022  10.091  22.637  0.00  0.00    +0.000 A 
ATOM      6  C   UNL     1      -0.910  11.027  22.505  0.00  0.00    +0.000 A 
ATOM      7  C   UNL     1      -1.226  11.488  21.154  0.00  0.00    +0.000 A 
ATOM      8  O   UNL     1      -2.084  12.360  21.021  0.00  0.00    +0.000 OA
BRANCH   5   9
ATOM      9  O   UNL     1       0.360   9.654  23.890  0.00  0.00    +0.000 OA
ATOM     10  H   UNL     1       0.459   8.694  23.763  0.00  0.00    +0.000 HD
ENDBRANCH   5   9
BRANCH   2  11
ATOM     11  C   UNL     1      -0.794  11.431  18.788  0.00  0.00    +0.000 C 
BRANCH  11  13
ATOM     12  C   UNL     1      -1.891   9.952  17.071  0.00  0.00    +0.000 C 
ATOM     13  C   UNL     1      -1.951  10.670  18.200  0.00  0.00    +0.000 C 
ENDBRANCH  11  13
ENDBRANCH   2  11
ENDBRANCH   1   3
BRANCH   1  14
ATOM     14  C   UNL     1       2.011   7.671  19.904  0.00  0.00    +0.000 C 
BRANCH  14  15
ATOM     15  C   UNL     1       2.649   6.669  18.930  0.00  0.00    +0.000 C 
ATOM     16  O   UNL     1       3.369   7.027  17.993  0.00  0.00    +0.000 OA
BRANCH  15  17
ATOM     17  C   UNL     1       2.423   5.144  19.189  0.00  0.00    +0.000 C 
ATOM     18  C   UNL     1       1.820   4.403  17.972  0.00  0.00    +0.000 C 
ATOM     19  C   UNL     1       1.621   2.904  18.277  0.00  0.00    +0.000 C 
ATOM     20  C   UNL     1       2.974   2.264  18.621  0.00  0.00    +0.000 C 
ATOM     21  C   UNL     1       3.582   2.960  19.847  0.00  0.00    +0.000 C 
ATOM     22  C   UNL     1       2.624   2.812  21.041  0.00  0.00    +0.000 C 
ATOM     23  C   UNL     1       1.269   3.457  20.710  0.00  0.00    +0.000 C 
ATOM     24  C   UNL     1       0.673   2.753  19.478  0.00  0.00    +0.000 C 
ATOM     25  C   UNL     1       1.472   4.955  20.396  0.00  0.00    +0.000 C 
ATOM     26  C   UNL     1       3.777   4.458  19.537  0.00  0.00    +0.000 C 
ENDBRANCH  15  17
ENDBRANCH  14  15
ENDBRANCH   1  14
TORSDOF 7
ENDMDL
MODEL 3
REMARK VINA RESULT:      -7.8      4.411      7.330
REMARK  Name = 
REMARK  7 active torsions:
REMARK  status: ('A' for Active; 'I' for Inactive)
REMARK    1  A    between atoms: C_2  and  C_3
REMARK    2  A    between atoms: C_3  and  N_4
REMARK    3  A    between atoms: C_5  and  S_6
REMARK    4  A    between atoms: S_6  and  C_7
REMARK    5  A    between atoms: C_7  and  C_8
REMARK    6  A    between atoms: C_8  and  C_10
REMARK    7  A    between atoms: C_21  and  O_22
REMARK                            x       y       z     vdW  Elec       q    Type
REMARK                         _______ _______ _______ _____ _____    ______ ____
ROOT
ATOM      1  S   UNL     1       1.256   9.041  18.973  0.00  0.00    +0.000 S 
ENDROOT
BRANCH   1   3
ATOM      2  N   UNL     1      -0.527  10.831  20.010  0.00  0.00    +0.000 N 
ATOM      3  C   UNL     1       0.412   9.846  20.300  0.00  0.00    +0.000 A 
ATOM      4  N   UNL     1       0.712   9.468  21.502  0.00  0.00    +0.000 NA
ATOM      5  C   UNL     1       0.066  10.081  22.530  0.00  0.00    +0.000 A 
ATOM      6  C   UNL     1      -0.863  11.019  22.399  0.00  0.00    +0.000 A 
ATOM      7  C   UNL     1      -1.214  11.446  21.044  0.00  0.00    +0.000 A 
ATOM      8  O   UNL     1      -2.070  12.320  20.911  0.00  0.00    +0.000 OA
BRANCH   5   9
ATOM      9  O   UNL     1       0.436   9.676  23.785  0.00  0.00    +0.000 OA
ATOM     10  H   UNL     1       0.984   8.892  23.605  0.00  0.00    +0.000 HD
ENDBRANCH   5   9
BRANCH   2  11
ATOM     11  C   UNL     1      -0.847  11.322  18.670  0.00  0.00    +0.000 C 
BRANCH  11  13
ATOM     12  C   UNL     1      -2.108  10.054  16.897  0.00  0.00    +0.000 C 
ATOM     13  C   UNL     1      -2.027  10.555  18.136  0.00  0.00    +0.000 C 
ENDBRANCH  11  13
ENDBRANCH   2  11
ENDBRANCH   1   3
BRANCH   1  14
ATOM     14  C   UNL     1       2.086   7.656  19.839  0.00  0.00    +0.000 C 
BRANCH  14  15
ATOM     15  C   UNL     1       2.721   6.626  18.892  0.00  0.00    +0.000 C 
ATOM     16  O   UNL     1       3.426   6.958  17.935  0.00  0.00    +0.000 OA
BRANCH  15  17
ATOM     17  C   UNL     1       2.513   5.109  19.208  0.00  0.00    +0.000 C 
ATOM     18  C   UNL     1       3.826   4.378  19.575  0.00  0.00    +0.000 C 
ATOM     19  C   UNL     1       3.567   2.889  19.881  0.00  0.00    +0.000 C 
ATOM     20  C   UNL     1       2.592   2.769  21.062  0.00  0.00    +0.000 C 
ATOM     21  C   UNL     1       1.265   3.459  20.713  0.00  0.00    +0.000 C 
ATOM     22  C   UNL     1       0.656   2.788  19.471  0.00  0.00    +0.000 C 
ATOM     23  C   UNL     1       1.621   2.911  18.281  0.00  0.00    +0.000 C 
ATOM     24  C   UNL     1       2.947   2.219  18.645  0.00  0.00    +0.000 C 
ATOM     25  C   UNL     1       1.887   4.402  17.982  0.00  0.00    +0.000 C 
ATOM     26  C   UNL     1       1.531   4.946  20.406  0.00  0.00    +0.000 C 
ENDBRANCH  15  17
ENDBRANCH  14  15
ENDBRANCH   1  14
TORSDOF 7
ENDMDL
MODEL 4
REMARK VINA RESULT:      -7.7      4.384      7.149
REMARK  Name = 
REMARK  7 active torsions:
REMARK  status: ('A' for Active; 'I' for Inactive)
REMARK    1  A    between atoms: C_2  and  C_3
REMARK    2  A    between atoms: C_3  and  N_4
REMARK    3  A    between atoms: C_5  and  S_6
REMARK    4  A    between atoms: S_6  and  C_7
REMARK    5  A    between atoms: C_7  and  C_8
REMARK    6  A    between atoms: C_8  and  C_10
REMARK    7  A    between atoms: C_21  and  O_22
REMARK                            x       y       z     vdW  Elec       q    Type
REMARK                         _______ _______ _______ _____ _____    ______ ____
ROOT
ATOM      1  S   UNL     1       1.415   9.076  18.901  0.00  0.00    +0.000 S 
ENDROOT
BRANCH   1   3
ATOM      2  N   UNL     1      -0.478  10.791  19.867  0.00  0.00    +0.000 N 
ATOM      3  C   UNL     1       0.497   9.854  20.194  0.00  0.00    +0.000 A 
ATOM      4  N   UNL     1       0.779   9.503  21.408  0.00  0.00    +0.000 NA
ATOM      5  C   UNL     1       0.078  10.096  22.411  0.00  0.00    +0.000 A 
ATOM      6  C   UNL     1      -0.890  10.989  22.243  0.00  0.00    +0.000 A 
ATOM      7  C   UNL     1      -1.221  11.385  20.875  0.00  0.00    +0.000 A 
ATOM      8  O   UNL     1      -2.112  12.217  20.707  0.00  0.00    +0.000 OA
BRANCH   5   9
ATOM      9  O   UNL     1       0.429   9.721  23.680  0.00  0.00    +0.000 OA
ATOM     10  H   UNL     1       1.375   9.949  23.716  0.00  0.00    +0.000 HD
ENDBRANCH   5   9
BRANCH   2  11
ATOM     11  C   UNL     1      -0.781  11.254  18.514  0.00  0.00    +0.000 C 
BRANCH  11  13
ATOM     12  C   UNL     1      -3.004  10.356  17.740  0.00  0.00    +0.000 C 
ATOM     13  C   UNL     1      -1.673  10.245  17.840  0.00  0.00    +0.000 C 
ENDBRANCH  11  13
ENDBRANCH   2  11
ENDBRANCH   1   3
BRANCH   1  14
ATOM     14  C   UNL     1       2.137   7.632  19.767  0.00  0.00    +0.000 C 
BRANCH  14  15
ATOM     15  C   UNL     1       2.686   6.553  18.821  0.00  0.00    +0.000 C 
ATOM     16  O   UNL     1       3.353   6.833  17.820  0.00  0.00    +0.000 OA
BRANCH  15  17
ATOM     17  C   UNL     1       2.440   5.055  19.190  0.00  0.00    +0.000 C 
ATOM     18  C   UNL     1       1.474   4.873  20.384  0.00  0.00    +0.000 C 
ATOM     19  C   UNL     1       1.261   3.380  20.706  0.00  0.00    +0.000 C 
ATOM     20  C   UNL     1       0.666   2.669  19.480  0.00  0.00    +0.000 C 
ATOM     21  C   UNL     1       1.621   2.806  18.285  0.00  0.00    +0.000 C 
ATOM     22  C   UNL     1       2.975   2.170  18.643  0.00  0.00    +0.000 C 
ATOM     23  C   UNL     1       3.582   2.879  19.863  0.00  0.00    +0.000 C 
ATOM     24  C   UNL     1       2.614   2.739  21.052  0.00  0.00    +0.000 C 
ATOM     25  C   UNL     1       3.786   4.376  19.543  0.00  0.00    +0.000 C 
ATOM     26  C   UNL     1       1.832   4.300  17.971  0.00  0.00    +0.000 C 
ENDBRANCH  15  17
ENDBRANCH  14  15
ENDBRANCH   1  14
TORSDOF 7
ENDMDL
MODEL 5
REMARK VINA RESULT:      -7.5      4.516      7.105
REMARK  Name = 
REMARK  7 active torsions:
REMARK  status: ('A' for Active; 'I' for Inactive)
REMARK    1  A    between atoms: C_2  and  C_3
REMARK    2  A    between atoms: C_3  and  N_4
REMARK    3  A    between atoms: C_5  and  S_6
REMARK    4  A    between atoms: S_6  and  C_7
REMARK    5  A    between atoms: C_7  and  C_8
REMARK    6  A    between atoms: C_8  and  C_10
REMARK    7  A    between atoms: C_21  and  O_22
REMARK                            x       y       z     vdW  Elec       q    Type
REMARK                         _______ _______ _______ _____ _____    ______ ____
ROOT
ATOM      1  S   UNL     1       1.504   9.256  19.195  0.00  0.00    +0.000 S 
ENDROOT
BRANCH   1   3
ATOM      2  N   UNL     1      -0.043  11.254  20.229  0.00  0.00    +0.000 N 
ATOM      3  C   UNL     1       0.594  10.044  20.487  0.00  0.00    +0.000 A 
ATOM      4  N   UNL     1       0.558   9.443  21.633  0.00  0.00    +0.000 NA
ATOM      5  C   UNL     1      -0.141  10.042  22.634  0.00  0.00    +0.000 A 
ATOM      6  C   UNL     1      -0.810  11.183  22.522  0.00  0.00    +0.000 A 
ATOM      7  C   UNL     1      -0.782  11.865  21.229  0.00  0.00    +0.000 A 
ATOM      8  O   UNL     1      -1.394  12.927  21.116  0.00  0.00    +0.000 OA
BRANCH   5   9
ATOM      9  O   UNL     1      -0.126   9.390  23.838  0.00  0.00    +0.000 OA
ATOM     10  H   UNL     1       0.794   9.508  24.134  0.00  0.00    +0.000 HD
ENDBRANCH   5   9
BRANCH   2  11
ATOM     11  C   UNL     1       0.025  11.989  18.966  0.00  0.00    +0.000 C 
BRANCH  11  13
ATOM     12  C   UNL     1       2.241  12.892  18.180  0.00  0.00    +0.000 C 
ATOM     13  C   UNL     1       1.193  12.938  19.013  0.00  0.00    +0.000 C 
ENDBRANCH  11  13
ENDBRANCH   2  11
ENDBRANCH   1   3
BRANCH   1  14
ATOM     14  C   UNL     1       1.970   7.666  19.979  0.00  0.00    +0.000 C 
BRANCH  14  15
ATOM     15  C   UNL     1       2.627   6.668  19.012  0.00  0.00    +0.000 C 
ATOM     16  O   UNL     1       3.360   7.032  18.088  0.00  0.00    +0.000 OA
BRANCH  15  17
ATOM     17  C   UNL     1       2.402   5.142  19.264  0.00  0.00    +0.000 C 
ATOM     18  C   UNL     1       1.822   4.401  18.037  0.00  0.00    +0.000 C 
ATOM     19  C   UNL     1       1.624   2.902  18.334  0.00  0.00    +0.000 C 
ATOM     20  C   UNL     1       2.974   2.266  18.699  0.00  0.00    +0.000 C 
ATOM     21  C   UNL     1       3.559   2.961  19.937  0.00  0.00    +0.000 C 
ATOM     22  C   UNL     1       2.582   2.807  21.114  0.00  0.00    +0.000 C 
ATOM     23  C   UNL     1       1.230   3.448  20.762  0.00  0.00    +0.000 C 
ATOM     24  C   UNL     1       0.657   2.744  19.519  0.00  0.00    +0.000 C 
ATOM     25  C   UNL     1       1.433   4.947  20.455  0.00  0.00    +0.000 C 
ATOM     26  C   UNL     1       3.753   4.460  19.633  0.00  0.00    +0.000 C 
ENDBRANCH  15  17
ENDBRANCH  14  15
ENDBRANCH   1  14
TORSDOF 7
ENDMDL
MODEL 6
REMARK VINA RESULT:      -7.5      4.752      7.250
REMARK  Name = 
REMARK  7 active torsions:
REMARK  status: ('A' for Active; 'I' for Inactive)
REMARK    1  A    between atoms: C_2  and  C_3
REMARK    2  A    between atoms: C_3  and  N_4
REMARK    3  A    between atoms: C_5  and  S_6
REMARK    4  A    between atoms: S_6  and  C_7
REMARK    5  A    between atoms: C_7  and  C_8
REMARK    6  A    between atoms: C_8  and  C_10
REMARK    7  A    between atoms: C_21  and  O_22
REMARK                            x       y       z     vdW  Elec       q    Type
REMARK                         _______ _______ _______ _____ _____    ______ ____
ROOT
ATOM      1  S   UNL     1       1.200   9.330  19.257  0.00  0.00    +0.000 S 
ENDROOT
BRANCH   1   3
ATOM      2  N   UNL     1      -0.517  11.141  20.364  0.00  0.00    +0.000 N 
ATOM      3  C   UNL     1       0.297  10.038  20.600  0.00  0.00    +0.000 A 
ATOM      4  N   UNL     1       0.436   9.481  21.761  0.00  0.00    +0.000 NA
ATOM      5  C   UNL     1      -0.256  10.019  22.801  0.00  0.00    +0.000 A 
ATOM      6  C   UNL     1      -1.082  11.055  22.715  0.00  0.00    +0.000 A 
ATOM      7  C   UNL     1      -1.251  11.685  21.406  0.00  0.00    +0.000 A 
ATOM      8  O   UNL     1      -2.009  12.650  21.317  0.00  0.00    +0.000 OA
BRANCH   5   9
ATOM      9  O   UNL     1      -0.056   9.421  24.016  0.00  0.00    +0.000 OA
ATOM     10  H   UNL     1       0.858   9.677  24.232  0.00  0.00    +0.000 HD
ENDBRANCH   5   9
BRANCH   2  11
ATOM     11  C   UNL     1      -0.652  11.830  19.081  0.00  0.00    +0.000 C 
BRANCH  11  13
ATOM     12  C   UNL     1       0.109  14.211  18.772  0.00  0.00    +0.000 C 
ATOM     13  C   UNL     1       0.383  12.920  18.998  0.00  0.00    +0.000 C 
ENDBRANCH  11  13
ENDBRANCH   2  11
ENDBRANCH   1   3
BRANCH   1  14
ATOM     14  C   UNL     1       1.875   7.806  20.019  0.00  0.00    +0.000 C 
BRANCH  14  15
ATOM     15  C   UNL     1       2.518   6.842  19.010  0.00  0.00    +0.000 C 
ATOM     16  O   UNL     1       3.177   7.241  18.046  0.00  0.00    +0.000 OA
BRANCH  15  17
ATOM     17  C   UNL     1       2.379   5.307  19.268  0.00  0.00    +0.000 C 
ATOM     18  C   UNL     1       1.449   4.971  20.457  0.00  0.00    +0.000 C 
ATOM     19  C   UNL     1       1.342   3.447  20.667  0.00  0.00    +0.000 C 
ATOM     20  C   UNL     1       0.774   2.791  19.399  0.00  0.00    +0.000 C 
ATOM     21  C   UNL     1       1.697   3.081  18.206  0.00  0.00    +0.000 C 
ATOM     22  C   UNL     1       3.096   2.514  18.497  0.00  0.00    +0.000 C 
ATOM     23  C   UNL     1       3.676   3.170  19.760  0.00  0.00    +0.000 C 
ATOM     24  C   UNL     1       2.741   2.875  20.947  0.00  0.00    +0.000 C 
ATOM     25  C   UNL     1       3.773   4.697  19.552  0.00  0.00    +0.000 C 
ATOM     26  C   UNL     1       1.801   4.606  18.003  0.00  0.00    +0.000 C 
ENDBRANCH  15  17
ENDBRANCH  14  15
ENDBRANCH   1  14
TORSDOF 7
ENDMDL
MODEL 7
REMARK VINA RESULT:      -7.5      4.535      7.171
REMARK  Name = 
REMARK  7 active torsions:
REMARK  status: ('A' for Active; 'I' for Inactive)
REMARK    1  A    between atoms: C_2  and  C_3
REMARK    2  A    between atoms: C_3  and  N_4
REMARK    3  A    between atoms: C_5  and  S_6
REMARK    4  A    between atoms: S_6  and  C_7
REMARK    5  A    between atoms: C_7  and  C_8
REMARK    6  A    between atoms: C_8  and  C_10
REMARK    7  A    between atoms: C_21  and  O_22
REMARK                            x       y       z     vdW  Elec       q    Type
REMARK                         _______ _______ _______ _____ _____    ______ ____
ROOT
ATOM      1  S   UNL     1       1.449   9.274  19.173  0.00  0.00    +0.000 S 
ENDROOT
BRANCH   1   3
ATOM      2  N   UNL     1      -0.255  11.150  20.190  0.00  0.00    +0.000 N 
ATOM      3  C   UNL     1       0.502  10.016  20.466  0.00  0.00    +0.000 A 
ATOM      4  N   UNL     1       0.557   9.453  21.631  0.00  0.00    +0.000 NA
ATOM      5  C   UNL     1      -0.169  10.016  22.634  0.00  0.00    +0.000 A 
ATOM      6  C   UNL     1      -0.948  11.084  22.507  0.00  0.00    +0.000 A 
ATOM      7  C   UNL     1      -1.022  11.721  21.193  0.00  0.00    +0.000 A 
ATOM      8  O   UNL     1      -1.736  12.714  21.065  0.00  0.00    +0.000 OA
BRANCH   5   9
ATOM      9  O   UNL     1      -0.058   9.411  23.857  0.00  0.00    +0.000 OA
ATOM     10  H   UNL     1       0.799   9.740  24.182  0.00  0.00    +0.000 HD
ENDBRANCH   5   9
BRANCH   2  11
ATOM     11  C   UNL     1      -0.294  11.844  18.904  0.00  0.00    +0.000 C 
BRANCH  11  13
ATOM     12  C   UNL     1       1.905  12.917  18.307  0.00  0.00    +0.000 C 
ATOM     13  C   UNL     1       0.715  12.961  18.919  0.00  0.00    +0.000 C 
ENDBRANCH  11  13
ENDBRANCH   2  11
ENDBRANCH   1   3
BRANCH   1  14
ATOM     14  C   UNL     1       1.957   7.689  19.938  0.00  0.00    +0.000 C 
BRANCH  14  15
ATOM     15  C   UNL     1       2.594   6.700  18.950  0.00  0.00    +0.000 C 
ATOM     16  O   UNL     1       3.255   7.074  17.978  0.00  0.00    +0.000 OA
BRANCH  15  17
ATOM     17  C   UNL     1       2.445   5.171  19.240  0.00  0.00    +0.000 C 
ATOM     18  C   UNL     1       3.787   4.483  19.587  0.00  0.00    +0.000 C 
ATOM     19  C   UNL     1       3.586   2.981  19.868  0.00  0.00    +0.000 C 
ATOM     20  C   UNL     1       2.623   2.802  21.051  0.00  0.00    +0.000 C 
ATOM     21  C   UNL     1       1.269   3.448  20.721  0.00  0.00    +0.000 C 
ATOM     22  C   UNL     1       0.678   2.777  19.471  0.00  0.00    +0.000 C 
ATOM     23  C   UNL     1       1.631   2.957  18.279  0.00  0.00    +0.000 C 
ATOM     24  C   UNL     1       2.984   2.309  18.623  0.00  0.00    +0.000 C 
ATOM     25  C   UNL     1       1.838   4.462  18.005  0.00  0.00    +0.000 C 
ATOM     26  C   UNL     1       1.477   4.949  20.439  0.00  0.00    +0.000 C 
ENDBRANCH  15  17
ENDBRANCH  14  15
ENDBRANCH   1  14
TORSDOF 7
ENDMDL
MODEL 8
REMARK VINA RESULT:      -7.4      0.662      1.697
REMARK  Name = 
REMARK  7 active torsions:
REMARK  status: ('A' for Active; 'I' for Inactive)
REMARK    1  A    between atoms: C_2  and  C_3
REMARK    2  A    between atoms: C_3  and  N_4
REMARK    3  A    between atoms: C_5  and  S_6
REMARK    4  A    between atoms: S_6  and  C_7
REMARK    5  A    between atoms: C_7  and  C_8
REMARK    6  A    between atoms: C_8  and  C_10
REMARK    7  A    between atoms: C_21  and  O_22
REMARK                            x       y       z     vdW  Elec       q    Type
REMARK                         _______ _______ _______ _____ _____    ______ ____
ROOT
ATOM      1  S   UNL     1       4.539   7.542  17.122  0.00  0.00    +0.000 S 
ENDROOT
BRANCH   1   3
ATOM      2  N   UNL     1       6.556   5.717  17.363  0.00  0.00    +0.000 N 
ATOM      3  C   UNL     1       5.500   6.165  16.575  0.00  0.00    +0.000 A 
ATOM      4  N   UNL     1       5.166   5.626  15.446  0.00  0.00    +0.000 NA
ATOM      5  C   UNL     1       5.899   4.565  15.016  0.00  0.00    +0.000 A 
ATOM      6  C   UNL     1       6.917   4.022  15.674  0.00  0.00    +0.000 A 
ATOM      7  C   UNL     1       7.296   4.619  16.954  0.00  0.00    +0.000 A 
ATOM      8  O   UNL     1       8.242   4.128  17.569  0.00  0.00    +0.000 OA
BRANCH   5   9
ATOM      9  O   UNL     1       5.534   4.046  13.803  0.00  0.00    +0.000 OA
ATOM     10  H   UNL     1       6.374   4.037  13.312  0.00  0.00    +0.000 HD
ENDBRANCH   5   9
BRANCH   2  11
ATOM     11  C   UNL     1       6.997   6.336  18.612  0.00  0.00    +0.000 C 
BRANCH  11  13
ATOM     12  C   UNL     1       7.990   8.494  17.775  0.00  0.00    +0.000 C 
ATOM     13  C   UNL     1       8.134   7.278  18.317  0.00  0.00    +0.000 C 
ENDBRANCH  11  13
ENDBRANCH   2  11
ENDBRANCH   1   3
BRANCH   1  14
ATOM     14  C   UNL     1       3.731   6.866  18.621  0.00  0.00    +0.000 C 
BRANCH  14  15
ATOM     15  C   UNL     1       2.447   6.075  18.329  0.00  0.00    +0.000 C 
ATOM     16  O   UNL     1       1.503   6.561  17.699  0.00  0.00    +0.000 OA
BRANCH  15  17
ATOM     17  C   UNL     1       2.378   4.584  18.795  0.00  0.00    +0.000 C 
ATOM     18  C   UNL     1       2.093   3.598  17.638  0.00  0.00    +0.000 C 
ATOM     19  C   UNL     1       2.039   2.144  18.148  0.00  0.00    +0.000 C 
ATOM     20  C   UNL     1       3.385   1.773  18.789  0.00  0.00    +0.000 C 
ATOM     21  C   UNL     1       3.679   2.717  19.964  0.00  0.00    +0.000 C 
ATOM     22  C   UNL     1       2.558   2.591  21.009  0.00  0.00    +0.000 C 
ATOM     23  C   UNL     1       1.208   2.968  20.379  0.00  0.00    +0.000 C 
ATOM     24  C   UNL     1       0.927   2.017  19.202  0.00  0.00    +0.000 C 
ATOM     25  C   UNL     1       1.267   4.422  19.861  0.00  0.00    +0.000 C 
ATOM     26  C   UNL     1       3.729   4.169  19.448  0.00  0.00    +0.000 C 
ENDBRANCH  15  17
ENDBRANCH  14  15
ENDBRANCH   1  14
TORSDOF 7
ENDMDL
MODEL 9
REMARK VINA RESULT:      -7.3      4.034      6.227
REMARK  Name = 
REMARK  7 active torsions:
REMARK  status: ('A' for Active; 'I' for Inactive)
REMARK    1  A    between atoms: C_2  and  C_3
REMARK    2  A    between atoms: C_3  and  N_4
REMARK    3  A    between atoms: C_5  and  S_6
REMARK    4  A    between atoms: S_6  and  C_7
REMARK    5  A    between atoms: C_7  and  C_8
REMARK    6  A    between atoms: C_8  and  C_10
REMARK    7  A    between atoms: C_21  and  O_22
REMARK                            x       y       z     vdW  Elec       q    Type
REMARK                         _______ _______ _______ _____ _____    ______ ____
ROOT
ATOM      1  S   UNL     1       1.299   8.741  17.907  0.00  0.00    +0.000 S 
ENDROOT
BRANCH   1   3
ATOM      2  N   UNL     1       0.697  10.791  19.607  0.00  0.00    +0.000 N 
ATOM      3  C   UNL     1       1.474  10.386  18.526  0.00  0.00    +0.000 A 
ATOM      4  N   UNL     1       2.338  11.147  17.935  0.00  0.00    +0.000 NA
ATOM      5  C   UNL     1       2.480  12.416  18.405  0.00  0.00    +0.000 A 
ATOM      6  C   UNL     1       1.820  12.927  19.437  0.00  0.00    +0.000 A 
ATOM      7  C   UNL     1       0.848  12.071  20.116  0.00  0.00    +0.000 A 
ATOM      8  O   UNL     1       0.227  12.537  21.070  0.00  0.00    +0.000 OA
BRANCH   5   9
ATOM      9  O   UNL     1       3.379  13.198  17.731  0.00  0.00    +0.000 OA
ATOM     10  H   UNL     1       3.467  12.738  16.878  0.00  0.00    +0.000 HD
ENDBRANCH   5   9
BRANCH   2  11
ATOM     11  C   UNL     1      -0.328   9.978  20.260  0.00  0.00    +0.000 C 
BRANCH  11  13
ATOM     12  C   UNL     1      -0.377   9.311  22.688  0.00  0.00    +0.000 C 
ATOM     13  C   UNL     1       0.252   9.367  21.507  0.00  0.00    +0.000 C 
ENDBRANCH  11  13
ENDBRANCH   2  11
ENDBRANCH   1   3
BRANCH   1  14
ATOM     14  C   UNL     1       2.406   7.798  19.023  0.00  0.00    +0.000 C 
BRANCH  14  15
ATOM     15  C   UNL     1       3.041   6.563  18.367  0.00  0.00    +0.000 C 
ATOM     16  O   UNL     1       3.881   6.653  17.468  0.00  0.00    +0.000 OA
BRANCH  15  17
ATOM     17  C   UNL     1       2.647   5.153  18.916  0.00  0.00    +0.000 C 
ATOM     18  C   UNL     1       1.809   5.218  20.215  0.00  0.00    +0.000 C 
ATOM     19  C   UNL     1       1.443   3.806  20.713  0.00  0.00    +0.000 C 
ATOM     20  C   UNL     1       0.625   3.077  19.637  0.00  0.00    +0.000 C 
ATOM     21  C   UNL     1       1.446   2.968  18.343  0.00  0.00    +0.000 C 
ATOM     22  C   UNL     1       2.738   2.184  18.627  0.00  0.00    +0.000 C 
ATOM     23  C   UNL     1       3.568   2.910  19.697  0.00  0.00    +0.000 C 
ATOM     24  C   UNL     1       2.733   3.015  20.986  0.00  0.00    +0.000 C 
ATOM     25  C   UNL     1       3.925   4.328  19.201  0.00  0.00    +0.000 C 
ATOM     26  C   UNL     1       1.810   4.383  17.852  0.00  0.00    +0.000 C 
ENDBRANCH  15  17
ENDBRANCH  14  15
ENDBRANCH   1  14
TORSDOF 7
ENDMDL
