MODEL 1
REMARK VINA RESULT:      -6.8      0.000      0.000
REMARK  Name = 
REMARK  6 active torsions:
REMARK  status: ('A' for Active; 'I' for Inactive)
REMARK    1  A    between atoms: C_1  and  S_2
REMARK    2  A    between atoms: S_2  and  C_5
REMARK    3  A    between atoms: C_8  and  S_9
REMARK    4  A    between atoms: S_9  and  C_12
REMARK    5  A    between atoms: C_15  and  C_16
REMARK    6  A    between atoms: C_16  and  N_17
REMARK                            x       y       z     vdW  Elec       q    Type
REMARK                         _______ _______ _______ _____ _____    ______ ____
ROOT
ATOM      1  S   UNL     1       7.218   5.423  16.455  0.00  0.00    +0.000 S 
ATOM      2  O   UNL     1       7.720   6.780  16.396  0.00  0.00    +0.000 OA
ATOM      3  O   UNL     1       7.899   4.363  17.172  0.00  0.00    +0.000 OA
ENDROOT
BRANCH   1   7
ATOM      4  C   UNL     1       3.552   4.889  18.416  0.00  0.00    +0.000 A 
ATOM      5  C   UNL     1       3.435   6.122  17.804  0.00  0.00    +0.000 A 
ATOM      6  C   UNL     1       4.596   6.466  17.057  0.00  0.00    +0.000 A 
ATOM      7  C   UNL     1       5.574   5.493  17.131  0.00  0.00    +0.000 A 
ATOM      8  S   UNL     1       5.070   4.169  18.091  0.00  0.00    +0.000 S 
BRANCH   4  10
ATOM      9  C   UNL     1       1.717   5.214  20.533  0.00  0.00    +0.000 C 
ATOM     10  S   UNL     1       2.435   3.989  19.472  0.00  0.00    +0.000 S 
ATOM     11  O   UNL     1       3.300   3.141  20.267  0.00  0.00    +0.000 OA
ATOM     12  O   UNL     1       1.418   3.442  18.599  0.00  0.00    +0.000 OA
ENDBRANCH   4  10
ENDBRANCH   1   7
BRANCH   1  13
ATOM     13  C   UNL     1       7.026   4.879  14.780  0.00  0.00    +0.000 A 
ATOM     14  C   UNL     1       7.690   5.213  13.617  0.00  0.00    +0.000 A 
ATOM     15  C   UNL     1       7.158   4.539  12.481  0.00  0.00    +0.000 A 
ATOM     16  C   UNL     1       6.109   3.702  12.806  0.00  0.00    +0.000 A 
ATOM     17  S   UNL     1       5.793   3.728  14.489  0.00  0.00    +0.000 S 
BRANCH  16  18
ATOM     18  C   UNL     1       5.297   2.835  11.892  0.00  0.00    +0.000 C 
BRANCH  18  19
ATOM     19  N   UNL     1       6.022   1.607  11.585  0.00  0.00    +0.000 NA
ATOM     20  H   UNL     1       6.386   1.669  10.635  0.00  0.00    +0.000 HD
ATOM     21  H   UNL     1       5.369   0.826  11.588  0.00  0.00    +0.000 HD
ENDBRANCH  18  19
ENDBRANCH  16  18
ENDBRANCH   1  13
TORSDOF 5
ENDMDL
MODEL 2
REMARK VINA RESULT:      -6.6      1.021      1.261
REMARK  Name = 
REMARK  6 active torsions:
REMARK  status: ('A' for Active; 'I' for Inactive)
REMARK    1  A    between atoms: C_1  and  S_2
REMARK    2  A    between atoms: S_2  and  C_5
REMARK    3  A    between atoms: C_8  and  S_9
REMARK    4  A    between atoms: S_9  and  C_12
REMARK    5  A    between atoms: C_15  and  C_16
REMARK    6  A    between atoms: C_16  and  N_17
REMARK                            x       y       z     vdW  Elec       q    Type
REMARK                         _______ _______ _______ _____ _____    ______ ____
ROOT
ATOM      1  S   UNL     1       7.180   5.468  16.525  0.00  0.00    +0.000 S 
ATOM      2  O   UNL     1       7.640   6.841  16.463  0.00  0.00    +0.000 OA
ATOM      3  O   UNL     1       7.883   4.436  17.261  0.00  0.00    +0.000 OA
ENDROOT
BRANCH   1   7
ATOM      4  C   UNL     1       3.541   4.909  18.527  0.00  0.00    +0.000 A 
ATOM      5  C   UNL     1       3.326   6.018  17.732  0.00  0.00    +0.000 A 
ATOM      6  C   UNL     1       4.466   6.349  16.947  0.00  0.00    +0.000 A 
ATOM      7  C   UNL     1       5.525   5.491  17.174  0.00  0.00    +0.000 A 
ATOM      8  S   UNL     1       5.123   4.288  18.323  0.00  0.00    +0.000 S 
BRANCH   4  10
ATOM      9  C   UNL     1       3.412   2.661  20.226  0.00  0.00    +0.000 C 
ATOM     10  S   UNL     1       2.489   4.083  19.703  0.00  0.00    +0.000 S 
ATOM     11  O   UNL     1       1.357   3.634  18.918  0.00  0.00    +0.000 OA
ATOM     12  O   UNL     1       2.337   5.001  20.813  0.00  0.00    +0.000 OA
ENDBRANCH   4  10
ENDBRANCH   1   7
BRANCH   1  13
ATOM     13  C   UNL     1       7.033   4.906  14.852  0.00  0.00    +0.000 A 
ATOM     14  C   UNL     1       7.680   5.278  13.690  0.00  0.00    +0.000 A 
ATOM     15  C   UNL     1       7.198   4.565  12.555  0.00  0.00    +0.000 A 
ATOM     16  C   UNL     1       6.205   3.663  12.879  0.00  0.00    +0.000 A 
ATOM     17  S   UNL     1       5.880   3.675  14.560  0.00  0.00    +0.000 S 
BRANCH  16  18
ATOM     18  C   UNL     1       5.456   2.741  11.965  0.00  0.00    +0.000 C 
BRANCH  18  19
ATOM     19  N   UNL     1       4.236   3.384  11.489  0.00  0.00    +0.000 NA
ATOM     20  H   UNL     1       4.009   4.160  12.110  0.00  0.00    +0.000 HD
ATOM     21  H   UNL     1       3.462   2.726  11.566  0.00  0.00    +0.000 HD
ENDBRANCH  18  19
ENDBRANCH  16  18
ENDBRANCH   1  13
TORSDOF 5
ENDMDL
MODEL 3
REMARK VINA RESULT:      -6.5      1.000      1.205
REMARK  Name = 
REMARK  6 active torsions:
REMARK  status: ('A' for Active; 'I' for Inactive)
REMARK    1  A    between atoms: C_1  and  S_2
REMARK    2  A    between atoms: S_2  and  C_5
REMARK    3  A    between atoms: C_8  and  S_9
REMARK    4  A    between atoms: S_9  and  C_12
REMARK    5  A    between atoms: C_15  and  C_16
REMARK    6  A    between atoms: C_16  and  N_17
REMARK                            x       y       z     vdW  Elec       q    Type
REMARK                         _______ _______ _______ _____ _____    ______ ____
ROOT
ATOM      1  S   UNL     1       6.982   5.413  16.957  0.00  0.00    +0.000 S 
ATOM      2  O   UNL     1       7.403   6.799  16.980  0.00  0.00    +0.000 OA
ATOM      3  O   UNL     1       7.686   4.365  17.670  0.00  0.00    +0.000 OA
ENDROOT
BRANCH   1   7
ATOM      4  C   UNL     1       3.282   4.645  18.770  0.00  0.00    +0.000 A 
ATOM      5  C   UNL     1       3.072   5.801  18.044  0.00  0.00    +0.000 A 
ATOM      6  C   UNL     1       4.233   6.207  17.329  0.00  0.00    +0.000 A 
ATOM      7  C   UNL     1       5.302   5.358  17.540  0.00  0.00    +0.000 A 
ATOM      8  S   UNL     1       4.884   4.072  18.589  0.00  0.00    +0.000 S 
BRANCH   4  10
ATOM      9  C   UNL     1       1.264   2.674  18.766  0.00  0.00    +0.000 C 
ATOM     10  S   UNL     1       2.205   3.719  19.846  0.00  0.00    +0.000 S 
ATOM     11  O   UNL     1       1.318   4.717  20.409  0.00  0.00    +0.000 OA
ATOM     12  O   UNL     1       3.073   2.909  20.674  0.00  0.00    +0.000 OA
ENDBRANCH   4  10
ENDBRANCH   1   7
BRANCH   1  13
ATOM     13  C   UNL     1       6.916   4.930  15.254  0.00  0.00    +0.000 A 
ATOM     14  C   UNL     1       7.662   5.307  14.155  0.00  0.00    +0.000 A 
ATOM     15  C   UNL     1       7.217   4.674  12.960  0.00  0.00    +0.000 A 
ATOM     16  C   UNL     1       6.151   3.823  13.177  0.00  0.00    +0.000 A 
ATOM     17  S   UNL     1       5.714   3.787  14.832  0.00  0.00    +0.000 S 
BRANCH  16  18
ATOM     18  C   UNL     1       5.413   2.989  12.175  0.00  0.00    +0.000 C 
BRANCH  18  19
ATOM     19  N   UNL     1       6.260   1.897  11.706  0.00  0.00    +0.000 NA
ATOM     20  H   UNL     1       5.840   1.490  10.871  0.00  0.00    +0.000 HD
ATOM     21  H   UNL     1       6.269   1.159  12.407  0.00  0.00    +0.000 HD
ENDBRANCH  18  19
ENDBRANCH  16  18
ENDBRANCH   1  13
TORSDOF 5
ENDMDL
MODEL 4
REMARK VINA RESULT:      -6.4      1.262      1.400
REMARK  Name = 
REMARK  6 active torsions:
REMARK  status: ('A' for Active; 'I' for Inactive)
REMARK    1  A    between atoms: C_1  and  S_2
REMARK    2  A    between atoms: S_2  and  C_5
REMARK    3  A    between atoms: C_8  and  S_9
REMARK    4  A    between atoms: S_9  and  C_12
REMARK    5  A    between atoms: C_15  and  C_16
REMARK    6  A    between atoms: C_16  and  N_17
REMARK                            x       y       z     vdW  Elec       q    Type
REMARK                         _______ _______ _______ _____ _____    ______ ____
ROOT
ATOM      1  S   UNL     1       6.602   5.400  17.540  0.00  0.00    +0.000 S 
ATOM      2  O   UNL     1       6.927   6.806  17.662  0.00  0.00    +0.000 OA
ATOM      3  O   UNL     1       7.307   4.364  18.268  0.00  0.00    +0.000 OA
ENDROOT
BRANCH   1   7
ATOM      4  C   UNL     1       2.815   4.322  18.975  0.00  0.00    +0.000 A 
ATOM      5  C   UNL     1       2.593   5.489  18.271  0.00  0.00    +0.000 A 
ATOM      6  C   UNL     1       3.783   5.998  17.681  0.00  0.00    +0.000 A 
ATOM      7  C   UNL     1       4.885   5.213  17.962  0.00  0.00    +0.000 A 
ATOM      8  S   UNL     1       4.463   3.862  18.924  0.00  0.00    +0.000 S 
BRANCH   4  10
ATOM      9  C   UNL     1       2.668   2.735  21.303  0.00  0.00    +0.000 C 
ATOM     10  S   UNL     1       1.711   3.286  19.915  0.00  0.00    +0.000 S 
ATOM     11  O   UNL     1       1.461   2.152  19.049  0.00  0.00    +0.000 OA
ATOM     12  O   UNL     1       0.645   4.153  20.370  0.00  0.00    +0.000 OA
ENDBRANCH   4  10
ENDBRANCH   1   7
BRANCH   1  13
ATOM     13  C   UNL     1       6.721   5.000  15.818  0.00  0.00    +0.000 A 
ATOM     14  C   UNL     1       7.583   5.422  14.826  0.00  0.00    +0.000 A 
ATOM     15  C   UNL     1       7.269   4.850  13.561  0.00  0.00    +0.000 A 
ATOM     16  C   UNL     1       6.183   4.000  13.619  0.00  0.00    +0.000 A 
ATOM     17  S   UNL     1       5.567   3.889  15.213  0.00  0.00    +0.000 S 
BRANCH  16  18
ATOM     18  C   UNL     1       5.555   3.220  12.504  0.00  0.00    +0.000 C 
BRANCH  18  19
ATOM     19  N   UNL     1       6.537   2.328  11.897  0.00  0.00    +0.000 NA
ATOM     20  H   UNL     1       6.333   2.242  10.902  0.00  0.00    +0.000 HD
ATOM     21  H   UNL     1       6.426   1.396  12.290  0.00  0.00    +0.000 HD
ENDBRANCH  18  19
ENDBRANCH  16  18
ENDBRANCH   1  13
TORSDOF 5
ENDMDL
MODEL 5
REMARK VINA RESULT:      -6.3      3.565      7.168
REMARK  Name = 
REMARK  6 active torsions:
REMARK  status: ('A' for Active; 'I' for Inactive)
REMARK    1  A    between atoms: C_1  and  S_2
REMARK    2  A    between atoms: S_2  and  C_5
REMARK    3  A    between atoms: C_8  and  S_9
REMARK    4  A    between atoms: S_9  and  C_12
REMARK    5  A    between atoms: C_15  and  C_16
REMARK    6  A    between atoms: C_16  and  N_17
REMARK                            x       y       z     vdW  Elec       q    Type
REMARK                         _______ _______ _______ _____ _____    ______ ____
ROOT
ATOM      1  S   UNL     1       2.259   4.590  19.794  0.00  0.00    +0.000 S 
ATOM      2  O   UNL     1       1.079   3.976  19.221  0.00  0.00    +0.000 OA
ATOM      3  O   UNL     1       2.871   4.122  21.021  0.00  0.00    +0.000 OA
ENDROOT
BRANCH   1   7
ATOM      4  C   UNL     1       5.735   4.813  17.462  0.00  0.00    +0.000 A 
ATOM      5  C   UNL     1       4.832   4.135  16.666  0.00  0.00    +0.000 A 
ATOM      6  C   UNL     1       3.565   3.984  17.294  0.00  0.00    +0.000 A 
ATOM      7  C   UNL     1       3.537   4.539  18.559  0.00  0.00    +0.000 A 
ATOM      8  S   UNL     1       5.041   5.248  18.965  0.00  0.00    +0.000 S 
BRANCH   4  10
ATOM      9  C   UNL     1       7.724   6.649  18.253  0.00  0.00    +0.000 C 
ATOM     10  S   UNL     1       7.440   5.254  17.196  0.00  0.00    +0.000 S 
ATOM     11  O   UNL     1       7.483   5.702  15.820  0.00  0.00    +0.000 OA
ATOM     12  O   UNL     1       8.218   4.125  17.660  0.00  0.00    +0.000 OA
ENDBRANCH   4  10
ENDBRANCH   1   7
BRANCH   1  13
ATOM     13  C   UNL     1       1.879   6.305  20.022  0.00  0.00    +0.000 A 
ATOM     14  C   UNL     1       1.392   7.009  21.105  0.00  0.00    +0.000 A 
ATOM     15  C   UNL     1       1.205   8.389  20.809  0.00  0.00    +0.000 A 
ATOM     16  C   UNL     1       1.562   8.706  19.513  0.00  0.00    +0.000 A 
ATOM     17  S   UNL     1       2.140   7.329  18.676  0.00  0.00    +0.000 S 
BRANCH  16  18
ATOM     18  C   UNL     1       1.506  10.041  18.836  0.00  0.00    +0.000 C 
BRANCH  18  19
ATOM     19  N   UNL     1       1.930   9.920  17.446  0.00  0.00    +0.000 NA
ATOM     20  H   UNL     1       2.522  10.716  17.212  0.00  0.00    +0.000 HD
ATOM     21  H   UNL     1       1.112   9.988  16.842  0.00  0.00    +0.000 HD
ENDBRANCH  18  19
ENDBRANCH  16  18
ENDBRANCH   1  13
TORSDOF 5
ENDMDL
MODEL 6
REMARK VINA RESULT:      -6.1      4.071      5.222
REMARK  Name = 
REMARK  6 active torsions:
REMARK  status: ('A' for Active; 'I' for Inactive)
REMARK    1  A    between atoms: C_1  and  S_2
REMARK    2  A    between atoms: S_2  and  C_5
REMARK    3  A    between atoms: C_8  and  S_9
REMARK    4  A    between atoms: S_9  and  C_12
REMARK    5  A    between atoms: C_15  and  C_16
REMARK    6  A    between atoms: C_16  and  N_17
REMARK                            x       y       z     vdW  Elec       q    Type
REMARK                         _______ _______ _______ _____ _____    ______ ____
ROOT
ATOM      1  S   UNL     1       2.984   5.652  18.702  0.00  0.00    +0.000 S 
ATOM      2  O   UNL     1       3.442   5.360  20.045  0.00  0.00    +0.000 OA
ATOM      3  O   UNL     1       2.008   4.835  18.009  0.00  0.00    +0.000 OA
ENDROOT
BRANCH   1   7
ATOM      4  C   UNL     1       1.325   9.410  19.532  0.00  0.00    +0.000 A 
ATOM      5  C   UNL     1       1.672   9.478  18.197  0.00  0.00    +0.000 A 
ATOM      6  C   UNL     1       2.238   8.262  17.724  0.00  0.00    +0.000 A 
ATOM      7  C   UNL     1       2.321   7.303  18.715  0.00  0.00    +0.000 A 
ATOM      8  S   UNL     1       1.700   7.880  20.201  0.00  0.00    +0.000 S 
BRANCH   4  10
ATOM      9  C   UNL     1       1.280  12.175  20.089  0.00  0.00    +0.000 C 
ATOM     10  S   UNL     1       0.614  10.623  20.627  0.00  0.00    +0.000 S 
ATOM     11  O   UNL     1       1.174  10.306  21.924  0.00  0.00    +0.000 OA
ATOM     12  O   UNL     1      -0.812  10.592  20.379  0.00  0.00    +0.000 OA
ENDBRANCH   4  10
ENDBRANCH   1   7
BRANCH   1  13
ATOM     13  C   UNL     1       4.427   5.721  17.678  0.00  0.00    +0.000 A 
ATOM     14  C   UNL     1       5.473   6.620  17.610  0.00  0.00    +0.000 A 
ATOM     15  C   UNL     1       6.406   6.285  16.588  0.00  0.00    +0.000 A 
ATOM     16  C   UNL     1       6.055   5.135  15.907  0.00  0.00    +0.000 A 
ATOM     17  S   UNL     1       4.607   4.464  16.530  0.00  0.00    +0.000 S 
BRANCH  16  18
ATOM     18  C   UNL     1       6.776   4.472  14.774  0.00  0.00    +0.000 C 
BRANCH  18  19
ATOM     19  N   UNL     1       7.740   5.393  14.182  0.00  0.00    +0.000 NA
ATOM     20  H   UNL     1       8.319   5.786  14.923  0.00  0.00    +0.000 HD
ATOM     21  H   UNL     1       7.239   6.177  13.768  0.00  0.00    +0.000 HD
ENDBRANCH  18  19
ENDBRANCH  16  18
ENDBRANCH   1  13
TORSDOF 5
ENDMDL
MODEL 7
REMARK VINA RESULT:      -6.0      4.148      5.686
REMARK  Name = 
REMARK  6 active torsions:
REMARK  status: ('A' for Active; 'I' for Inactive)
REMARK    1  A    between atoms: C_1  and  S_2
REMARK    2  A    between atoms: S_2  and  C_5
REMARK    3  A    between atoms: C_8  and  S_9
REMARK    4  A    between atoms: S_9  and  C_12
REMARK    5  A    between atoms: C_15  and  C_16
REMARK    6  A    between atoms: C_16  and  N_17
REMARK                            x       y       z     vdW  Elec       q    Type
REMARK                         _______ _______ _______ _____ _____    ______ ____
ROOT
ATOM      1  S   UNL     1       2.639   5.341  19.271  0.00  0.00    +0.000 S 
ATOM      2  O   UNL     1       2.686   5.137  20.705  0.00  0.00    +0.000 OA
ATOM      3  O   UNL     1       1.783   4.566  18.395  0.00  0.00    +0.000 OA
ENDROOT
BRANCH   1   7
ATOM      4  C   UNL     1       1.467   9.362  19.410  0.00  0.00    +0.000 A 
ATOM      5  C   UNL     1       1.911   9.181  18.114  0.00  0.00    +0.000 A 
ATOM      6  C   UNL     1       2.333   7.844  17.870  0.00  0.00    +0.000 A 
ATOM      7  C   UNL     1       2.214   7.044  18.990  0.00  0.00    +0.000 A 
ATOM      8  S   UNL     1       1.579   7.917  20.319  0.00  0.00    +0.000 S 
BRANCH   4  10
ATOM      9  C   UNL     1      -0.878  10.850  19.901  0.00  0.00    +0.000 C 
ATOM     10  S   UNL     1       0.859  10.808  20.254  0.00  0.00    +0.000 S 
ATOM     11  O   UNL     1       1.495  11.915  19.570  0.00  0.00    +0.000 OA
ATOM     12  O   UNL     1       1.065  10.559  21.665  0.00  0.00    +0.000 OA
ENDBRANCH   4  10
ENDBRANCH   1   7
BRANCH   1  13
ATOM     13  C   UNL     1       4.297   5.155  18.677  0.00  0.00    +0.000 A 
ATOM     14  C   UNL     1       5.524   5.344  19.282  0.00  0.00    +0.000 A 
ATOM     15  C   UNL     1       6.607   5.106  18.388  0.00  0.00    +0.000 A 
ATOM     16  C   UNL     1       6.181   4.732  17.129  0.00  0.00    +0.000 A 
ATOM     17  S   UNL     1       4.472   4.655  17.049  0.00  0.00    +0.000 S 
BRANCH  16  18
ATOM     18  C   UNL     1       7.015   4.403  15.928  0.00  0.00    +0.000 C 
BRANCH  18  19
ATOM     19  N   UNL     1       7.447   5.627  15.263  0.00  0.00    +0.000 NA
ATOM     20  H   UNL     1       8.457   5.718  15.364  0.00  0.00    +0.000 HD
ATOM     21  H   UNL     1       7.042   6.428  15.745  0.00  0.00    +0.000 HD
ENDBRANCH  18  19
ENDBRANCH  16  18
ENDBRANCH   1  13
TORSDOF 5
ENDMDL
MODEL 8
REMARK VINA RESULT:      -6.0      1.446      1.799
REMARK  Name = 
REMARK  6 active torsions:
REMARK  status: ('A' for Active; 'I' for Inactive)
REMARK    1  A    between atoms: C_1  and  S_2
REMARK    2  A    between atoms: S_2  and  C_5
REMARK    3  A    between atoms: C_8  and  S_9
REMARK    4  A    between atoms: S_9  and  C_12
REMARK    5  A    between atoms: C_15  and  C_16
REMARK    6  A    between atoms: C_16  and  N_17
REMARK                            x       y       z     vdW  Elec       q    Type
REMARK                         _______ _______ _______ _____ _____    ______ ____
ROOT
ATOM      1  S   UNL     1       6.721   5.598  16.932  0.00  0.00    +0.000 S 
ATOM      2  O   UNL     1       6.896   7.013  16.675  0.00  0.00    +0.000 OA
ATOM      3  O   UNL     1       7.757   4.771  17.516  0.00  0.00    +0.000 OA
ENDROOT
BRANCH   1   7
ATOM      4  C   UNL     1       3.665   4.433  19.553  0.00  0.00    +0.000 A 
ATOM      5  C   UNL     1       3.400   5.763  19.289  0.00  0.00    +0.000 A 
ATOM      6  C   UNL     1       4.336   6.330  18.381  0.00  0.00    +0.000 A 
ATOM      7  C   UNL     1       5.300   5.423  17.987  0.00  0.00    +0.000 A 
ATOM      8  S   UNL     1       5.052   3.891  18.709  0.00  0.00    +0.000 S 
BRANCH   4  10
ATOM      9  C   UNL     1       1.687   2.423  19.568  0.00  0.00    +0.000 C 
ATOM     10  S   UNL     1       2.849   3.258  20.615  0.00  0.00    +0.000 S 
ATOM     11  O   UNL     1       2.115   4.076  21.557  0.00  0.00    +0.000 OA
ATOM     12  O   UNL     1       3.875   2.330  21.042  0.00  0.00    +0.000 OA
ENDBRANCH   4  10
ENDBRANCH   1   7
BRANCH   1  13
ATOM     13  C   UNL     1       6.269   4.854  15.389  0.00  0.00    +0.000 A 
ATOM     14  C   UNL     1       5.094   4.280  14.947  0.00  0.00    +0.000 A 
ATOM     15  C   UNL     1       5.210   3.771  13.622  0.00  0.00    +0.000 A 
ATOM     16  C   UNL     1       6.464   3.978  13.083  0.00  0.00    +0.000 A 
ATOM     17  S   UNL     1       7.483   4.805  14.183  0.00  0.00    +0.000 S 
BRANCH  16  18
ATOM     18  C   UNL     1       6.966   3.585  11.727  0.00  0.00    +0.000 C 
BRANCH  18  19
ATOM     19  N   UNL     1       6.979   2.133  11.594  0.00  0.00    +0.000 NA
ATOM     20  H   UNL     1       7.672   1.749  12.236  0.00  0.00    +0.000 HD
ATOM     21  H   UNL     1       7.294   1.887  10.658  0.00  0.00    +0.000 HD
ENDBRANCH  18  19
ENDBRANCH  16  18
ENDBRANCH   1  13
TORSDOF 5
ENDMDL
MODEL 9
REMARK VINA RESULT:      -6.0      3.309      4.588
REMARK  Name = 
REMARK  6 active torsions:
REMARK  status: ('A' for Active; 'I' for Inactive)
REMARK    1  A    between atoms: C_1  and  S_2
REMARK    2  A    between atoms: S_2  and  C_5
REMARK    3  A    between atoms: C_8  and  S_9
REMARK    4  A    between atoms: S_9  and  C_12
REMARK    5  A    between atoms: C_15  and  C_16
REMARK    6  A    between atoms: C_16  and  N_17
REMARK                            x       y       z     vdW  Elec       q    Type
REMARK                         _______ _______ _______ _____ _____    ______ ____
ROOT
ATOM      1  S   UNL     1       3.300   4.810  18.599  0.00  0.00    +0.000 S 
ATOM      2  O   UNL     1       3.755   4.251  19.856  0.00  0.00    +0.000 OA
ATOM      3  O   UNL     1       2.357   4.132  17.733  0.00  0.00    +0.000 OA
ENDROOT
BRANCH   1   7
ATOM      4  C   UNL     1       1.499   8.248  20.182  0.00  0.00    +0.000 A 
ATOM      5  C   UNL     1       1.884   8.620  18.909  0.00  0.00    +0.000 A 
ATOM      6  C   UNL     1       2.502   7.553  18.198  0.00  0.00    +0.000 A 
ATOM      7  C   UNL     1       2.586   6.400  18.953  0.00  0.00    +0.000 A 
ATOM      8  S   UNL     1       1.902   6.616  20.508  0.00  0.00    +0.000 S 
BRANCH   4  10
ATOM      9  C   UNL     1       0.339  10.748  20.781  0.00  0.00    +0.000 C 
ATOM     10  S   UNL     1       0.717   9.168  21.491  0.00  0.00    +0.000 S 
ATOM     11  O   UNL     1       1.763   9.345  22.478  0.00  0.00    +0.000 OA
ATOM     12  O   UNL     1      -0.510   8.463  21.794  0.00  0.00    +0.000 OA
ENDBRANCH   4  10
ENDBRANCH   1   7
BRANCH   1  13
ATOM     13  C   UNL     1       4.750   5.138  17.636  0.00  0.00    +0.000 A 
ATOM     14  C   UNL     1       5.826   5.979  17.839  0.00  0.00    +0.000 A 
ATOM     15  C   UNL     1       6.751   5.939  16.757  0.00  0.00    +0.000 A 
ATOM     16  C   UNL     1       6.365   5.063  15.762  0.00  0.00    +0.000 A 
ATOM     17  S   UNL     1       4.893   4.284  16.159  0.00  0.00    +0.000 S 
BRANCH  16  18
ATOM     18  C   UNL     1       7.069   4.751  14.477  0.00  0.00    +0.000 C 
BRANCH  18  19
ATOM     19  N   UNL     1       6.421   3.629  13.806  0.00  0.00    +0.000 NA
ATOM     20  H   UNL     1       5.809   3.157  14.471  0.00  0.00    +0.000 HD
ATOM     21  H   UNL     1       7.130   2.947  13.541  0.00  0.00    +0.000 HD
ENDBRANCH  18  19
ENDBRANCH  16  18
ENDBRANCH   1  13
TORSDOF 5
ENDMDL
