MODEL 1
REMARK VINA RESULT:      -8.7      0.000      0.000
REMARK  Name = 
REMARK  6 active torsions:
REMARK  status: ('A' for Active; 'I' for Inactive)
REMARK    1  A    between atoms: C_1  and  O_2
REMARK    2  A    between atoms: O_2  and  C_3
REMARK    3  A    between atoms: C_7  and  C_8
REMARK    4  A    between atoms: N_11  and  C_12
REMARK    5  A    between atoms: C_12  and  C_13
REMARK    6  A    between atoms: C_23  and  O_24
REMARK                            x       y       z     vdW  Elec       q    Type
REMARK                         _______ _______ _______ _____ _____    ______ ____
ROOT
ATOM      1  C   UNL     1       5.772   5.329  15.608  0.00  0.00    +0.000 C 
ATOM      2  C   UNL     1       4.525   4.571  16.066  0.00  0.00    +0.000 C 
ATOM      3  C   UNL     1       3.967   5.132  17.370  0.00  0.00    +0.000 C 
ATOM      4  N   UNL     1       4.970   5.706  18.292  0.00  0.00    +0.000 NA
ATOM      5  C   UNL     1       6.290   5.072  18.127  0.00  0.00    +0.000 C 
ATOM      6  C   UNL     1       6.869   5.250  16.697  0.00  0.00    +0.000 C 
ENDROOT
BRANCH   1  11
ATOM      7  C   UNL     1       5.853   3.411  12.282  0.00  0.00    +0.000 A 
ATOM      8  C   UNL     1       7.043   3.886  11.728  0.00  0.00    +0.000 A 
ATOM      9  C   UNL     1       7.828   4.801  12.424  0.00  0.00    +0.000 A 
ATOM     10  C   UNL     1       7.430   5.257  13.683  0.00  0.00    +0.000 A 
ATOM     11  C   UNL     1       6.238   4.794  14.257  0.00  0.00    +0.000 A 
ATOM     12  C   UNL     1       5.465   3.863  13.542  0.00  0.00    +0.000 A 
BRANCH   7  14
ATOM     13  C   UNL     1       3.891   2.959  11.029  0.00  0.00    +0.000 C 
ATOM     14  O   UNL     1       5.158   2.523  11.507  0.00  0.00    +0.000 OA
ENDBRANCH   7  14
ENDBRANCH   1  11
BRANCH   6  15
ATOM     15  O   UNL     1       7.676   6.434  16.635  0.00  0.00    +0.000 OA
ATOM     16  H   UNL     1       7.412   6.907  15.828  0.00  0.00    +0.000 HD
ENDBRANCH   6  15
BRANCH   4  17
ATOM     17  C   UNL     1       4.456   5.561  19.674  0.00  0.00    +0.000 C 
BRANCH  17  18
ATOM     18  C   UNL     1       3.235   4.680  19.836  0.00  0.00    +0.000 A 
ATOM     19  C   UNL     1       2.026   5.253  20.286  0.00  0.00    +0.000 A 
ATOM     20  C   UNL     1       0.849   4.511  20.372  0.00  0.00    +0.000 A 
ATOM     21  C   UNL     1       0.820   3.171  19.993  0.00  0.00    +0.000 A 
ATOM     22  C   UNL     1       2.012   2.598  19.542  0.00  0.00    +0.000 A 
ATOM     23  N   UNL     1       2.256   1.322  19.085  0.00  0.00    +0.000 N 
ATOM     24  C   UNL     1       3.576   1.181  18.752  0.00  0.00    +0.000 A 
ATOM     25  C   UNL     1       4.197   2.385  18.990  0.00  0.00    +0.000 A 
ATOM     26  C   UNL     1       3.215   3.307  19.469  0.00  0.00    +0.000 A 
ATOM     27  H   UNL     1       1.553   0.602  19.002  0.00  0.00    +0.000 HD
ENDBRANCH  17  18
ENDBRANCH   4  17
TORSDOF 5
ENDMDL
MODEL 2
REMARK VINA RESULT:      -8.3      5.008      9.010
REMARK  Name = 
REMARK  6 active torsions:
REMARK  status: ('A' for Active; 'I' for Inactive)
REMARK    1  A    between atoms: C_1  and  O_2
REMARK    2  A    between atoms: O_2  and  C_3
REMARK    3  A    between atoms: C_7  and  C_8
REMARK    4  A    between atoms: N_11  and  C_12
REMARK    5  A    between atoms: C_12  and  C_13
REMARK    6  A    between atoms: C_23  and  O_24
REMARK                            x       y       z     vdW  Elec       q    Type
REMARK                         _______ _______ _______ _____ _____    ______ ____
ROOT
ATOM      1  C   UNL     1       1.424   9.275  19.559  0.00  0.00    +0.000 C 
ATOM      2  C   UNL     1       1.258   7.910  20.228  0.00  0.00    +0.000 C 
ATOM      3  C   UNL     1       2.367   6.942  19.827  0.00  0.00    +0.000 C 
ATOM      4  N   UNL     1       2.913   7.134  18.467  0.00  0.00    +0.000 NA
ATOM      5  C   UNL     1       1.914   7.718  17.554  0.00  0.00    +0.000 C 
ATOM      6  C   UNL     1       1.417   9.113  18.019  0.00  0.00    +0.000 C 
ENDROOT
BRANCH   1  11
ATOM      7  C   UNL     1      -0.585  11.623  21.838  0.00  0.00    +0.000 A 
ATOM      8  C   UNL     1      -1.568  12.076  20.956  0.00  0.00    +0.000 A 
ATOM      9  C   UNL     1      -1.601  11.615  19.642  0.00  0.00    +0.000 A 
ATOM     10  C   UNL     1      -0.648  10.700  19.192  0.00  0.00    +0.000 A 
ATOM     11  C   UNL     1       0.350  10.234  20.060  0.00  0.00    +0.000 A 
ATOM     12  C   UNL     1       0.359  10.702  21.385  0.00  0.00    +0.000 A 
BRANCH   7  14
ATOM     13  C   UNL     1      -1.194  13.454  23.216  0.00  0.00    +0.000 C 
ATOM     14  O   UNL     1      -0.642  12.148  23.100  0.00  0.00    +0.000 OA
ENDBRANCH   7  14
ENDBRANCH   1  11
BRANCH   6  15
ATOM     15  O   UNL     1       2.227  10.144  17.436  0.00  0.00    +0.000 OA
ATOM     16  H   UNL     1       2.722   9.729  16.710  0.00  0.00    +0.000 HD
ENDBRANCH   6  15
BRANCH   4  17
ATOM     17  C   UNL     1       3.404   5.822  17.983  0.00  0.00    +0.000 C 
BRANCH  17  18
ATOM     18  C   UNL     1       4.907   5.639  17.982  0.00  0.00    +0.000 A 
ATOM     19  C   UNL     1       5.602   5.633  19.210  0.00  0.00    +0.000 A 
ATOM     20  C   UNL     1       6.972   5.382  19.278  0.00  0.00    +0.000 A 
ATOM     21  C   UNL     1       7.706   5.106  18.126  0.00  0.00    +0.000 A 
ATOM     22  C   UNL     1       7.022   5.106  16.906  0.00  0.00    +0.000 A 
ATOM     23  N   UNL     1       7.489   4.841  15.638  0.00  0.00    +0.000 N 
ATOM     24  C   UNL     1       6.479   4.965  14.724  0.00  0.00    +0.000 A 
ATOM     25  C   UNL     1       5.337   5.309  15.410  0.00  0.00    +0.000 A 
ATOM     26  C   UNL     1       5.656   5.379  16.801  0.00  0.00    +0.000 A 
ATOM     27  H   UNL     1       8.442   4.583  15.424  0.00  0.00    +0.000 HD
ENDBRANCH  17  18
ENDBRANCH   4  17
TORSDOF 5
ENDMDL
MODEL 3
REMARK VINA RESULT:      -8.2      1.501      1.794
REMARK  Name = 
REMARK  6 active torsions:
REMARK  status: ('A' for Active; 'I' for Inactive)
REMARK    1  A    between atoms: C_1  and  O_2
REMARK    2  A    between atoms: O_2  and  C_3
REMARK    3  A    between atoms: C_7  and  C_8
REMARK    4  A    between atoms: N_11  and  C_12
REMARK    5  A    between atoms: C_12  and  C_13
REMARK    6  A    between atoms: C_23  and  O_24
REMARK                            x       y       z     vdW  Elec       q    Type
REMARK                         _______ _______ _______ _____ _____    ______ ____
ROOT
ATOM      1  C   UNL     1       6.386   5.278  15.672  0.00  0.00    +0.000 C 
ATOM      2  C   UNL     1       4.948   5.798  15.680  0.00  0.00    +0.000 C 
ATOM      3  C   UNL     1       4.533   6.297  17.061  0.00  0.00    +0.000 C 
ATOM      4  N   UNL     1       5.167   5.602  18.201  0.00  0.00    +0.000 NA
ATOM      5  C   UNL     1       5.526   4.212  17.864  0.00  0.00    +0.000 C 
ATOM      6  C   UNL     1       6.536   4.121  16.689  0.00  0.00    +0.000 C 
ENDROOT
BRANCH   1  11
ATOM      7  C   UNL     1       6.477   3.464  12.289  0.00  0.00    +0.000 A 
ATOM      8  C   UNL     1       7.450   4.205  11.614  0.00  0.00    +0.000 A 
ATOM      9  C   UNL     1       8.090   5.267  12.246  0.00  0.00    +0.000 A 
ATOM     10  C   UNL     1       7.761   5.606  13.560  0.00  0.00    +0.000 A 
ATOM     11  C   UNL     1       6.786   4.878  14.255  0.00  0.00    +0.000 A 
ATOM     12  C   UNL     1       6.159   3.802  13.603  0.00  0.00    +0.000 A 
BRANCH   7  14
ATOM     13  C   UNL     1       6.789   1.435  11.102  0.00  0.00    +0.000 C 
ATOM     14  O   UNL     1       5.908   2.449  11.569  0.00  0.00    +0.000 OA
ENDBRANCH   7  14
ENDBRANCH   1  11
BRANCH   6  15
ATOM     15  O   UNL     1       7.879   4.111  17.193  0.00  0.00    +0.000 OA
ATOM     16  H   UNL     1       7.862   4.596  18.036  0.00  0.00    +0.000 HD
ENDBRANCH   6  15
BRANCH   4  17
ATOM     17  C   UNL     1       4.235   5.668  19.352  0.00  0.00    +0.000 C 
BRANCH  17  18
ATOM     18  C   UNL     1       2.943   4.893  19.201  0.00  0.00    +0.000 A 
ATOM     19  C   UNL     1       2.291   4.875  17.950  0.00  0.00    +0.000 A 
ATOM     20  C   UNL     1       1.147   4.110  17.729  0.00  0.00    +0.000 A 
ATOM     21  C   UNL     1       0.614   3.313  18.740  0.00  0.00    +0.000 A 
ATOM     22  C   UNL     1       1.257   3.323  19.981  0.00  0.00    +0.000 A 
ATOM     23  N   UNL     1       0.964   2.619  21.128  0.00  0.00    +0.000 N 
ATOM     24  C   UNL     1       1.848   2.940  22.121  0.00  0.00    +0.000 A 
ATOM     25  C   UNL     1       2.734   3.861  21.610  0.00  0.00    +0.000 A 
ATOM     26  C   UNL     1       2.389   4.099  20.243  0.00  0.00    +0.000 A 
ATOM     27  H   UNL     1       0.207   1.955  21.212  0.00  0.00    +0.000 HD
ENDBRANCH  17  18
ENDBRANCH   4  17
TORSDOF 5
ENDMDL
MODEL 4
REMARK VINA RESULT:      -8.1      1.240      1.539
REMARK  Name = 
REMARK  6 active torsions:
REMARK  status: ('A' for Active; 'I' for Inactive)
REMARK    1  A    between atoms: C_1  and  O_2
REMARK    2  A    between atoms: O_2  and  C_3
REMARK    3  A    between atoms: C_7  and  C_8
REMARK    4  A    between atoms: N_11  and  C_12
REMARK    5  A    between atoms: C_12  and  C_13
REMARK    6  A    between atoms: C_23  and  O_24
REMARK                            x       y       z     vdW  Elec       q    Type
REMARK                         _______ _______ _______ _____ _____    ______ ____
ROOT
ATOM      1  C   UNL     1       5.929   5.001  15.402  0.00  0.00    +0.000 C 
ATOM      2  C   UNL     1       4.913   4.029  16.003  0.00  0.00    +0.000 C 
ATOM      3  C   UNL     1       4.404   4.506  17.359  0.00  0.00    +0.000 C 
ATOM      4  N   UNL     1       5.371   5.288  18.158  0.00  0.00    +0.000 NA
ATOM      5  C   UNL     1       6.764   4.919  17.846  0.00  0.00    +0.000 C 
ATOM      6  C   UNL     1       7.133   5.167  16.359  0.00  0.00    +0.000 C 
ENDROOT
BRANCH   1  11
ATOM      7  C   UNL     1       6.004   3.058  12.091  0.00  0.00    +0.000 A 
ATOM      8  C   UNL     1       7.020   3.731  11.408  0.00  0.00    +0.000 A 
ATOM      9  C   UNL     1       7.694   4.788  12.013  0.00  0.00    +0.000 A 
ATOM     10  C   UNL     1       7.356   5.191  13.307  0.00  0.00    +0.000 A 
ATOM     11  C   UNL     1       6.337   4.532  14.009  0.00  0.00    +0.000 A 
ATOM     12  C   UNL     1       5.677   3.459  13.385  0.00  0.00    +0.000 A 
BRANCH   7  14
ATOM     13  C   UNL     1       6.222   0.916  11.096  0.00  0.00    +0.000 C 
ATOM     14  O   UNL     1       5.405   2.041  11.398  0.00  0.00    +0.000 OA
ENDBRANCH   7  14
ENDBRANCH   1  11
BRANCH   6  15
ATOM     15  O   UNL     1       7.681   6.483  16.200  0.00  0.00    +0.000 OA
ATOM     16  H   UNL     1       6.990   7.021  15.777  0.00  0.00    +0.000 HD
ENDBRANCH   6  15
BRANCH   4  17
ATOM     17  C   UNL     1       5.052   5.083  19.590  0.00  0.00    +0.000 C 
BRANCH  17  18
ATOM     18  C   UNL     1       3.599   5.266  19.977  0.00  0.00    +0.000 A 
ATOM     19  C   UNL     1       3.002   6.537  19.833  0.00  0.00    +0.000 A 
ATOM     20  C   UNL     1       1.649   6.746  20.090  0.00  0.00    +0.000 A 
ATOM     21  C   UNL     1       0.825   5.692  20.482  0.00  0.00    +0.000 A 
ATOM     22  C   UNL     1       1.408   4.430  20.622  0.00  0.00    +0.000 A 
ATOM     23  N   UNL     1       0.830   3.228  20.963  0.00  0.00    +0.000 N 
ATOM     24  C   UNL     1       1.774   2.238  20.995  0.00  0.00    +0.000 A 
ATOM     25  C   UNL     1       2.983   2.805  20.662  0.00  0.00    +0.000 A 
ATOM     26  C   UNL     1       2.767   4.193  20.398  0.00  0.00    +0.000 A 
ATOM     27  H   UNL     1      -0.155   3.102  21.152  0.00  0.00    +0.000 HD
ENDBRANCH  17  18
ENDBRANCH   4  17
TORSDOF 5
ENDMDL
MODEL 5
REMARK VINA RESULT:      -8.1      5.952      8.620
REMARK  Name = 
REMARK  6 active torsions:
REMARK  status: ('A' for Active; 'I' for Inactive)
REMARK    1  A    between atoms: C_1  and  O_2
REMARK    2  A    between atoms: O_2  and  C_3
REMARK    3  A    between atoms: C_7  and  C_8
REMARK    4  A    between atoms: N_11  and  C_12
REMARK    5  A    between atoms: C_12  and  C_13
REMARK    6  A    between atoms: C_23  and  O_24
REMARK                            x       y       z     vdW  Elec       q    Type
REMARK                         _______ _______ _______ _____ _____    ______ ____
ROOT
ATOM      1  C   UNL     1       2.218   7.718  19.755  0.00  0.00    +0.000 C 
ATOM      2  C   UNL     1       1.821   8.057  18.317  0.00  0.00    +0.000 C 
ATOM      3  C   UNL     1       1.631   9.557  18.119  0.00  0.00    +0.000 C 
ATOM      4  N   UNL     1       1.147  10.295  19.305  0.00  0.00    +0.000 NA
ATOM      5  C   UNL     1       0.338   9.438  20.190  0.00  0.00    +0.000 C 
ATOM      6  C   UNL     1       1.130   8.219  20.736  0.00  0.00    +0.000 C 
ENDROOT
BRANCH   1  11
ATOM      7  C   UNL     1       3.978   4.309  19.598  0.00  0.00    +0.000 A 
ATOM      8  C   UNL     1       3.026   3.488  20.204  0.00  0.00    +0.000 A 
ATOM      9  C   UNL     1       1.816   4.018  20.643  0.00  0.00    +0.000 A 
ATOM     10  C   UNL     1       1.545   5.379  20.486  0.00  0.00    +0.000 A 
ATOM     11  C   UNL     1       2.487   6.222  19.882  0.00  0.00    +0.000 A 
ATOM     12  C   UNL     1       3.698   5.665  19.436  0.00  0.00    +0.000 A 
BRANCH   7  14
ATOM     13  C   UNL     1       5.934   4.368  18.256  0.00  0.00    +0.000 C 
ATOM     14  O   UNL     1       5.133   3.684  19.214  0.00  0.00    +0.000 OA
ENDBRANCH   7  14
ENDBRANCH   1  11
BRANCH   6  15
ATOM     15  O   UNL     1       1.746   8.552  21.988  0.00  0.00    +0.000 OA
ATOM     16  H   UNL     1       1.753   7.736  22.518  0.00  0.00    +0.000 HD
ENDBRANCH   6  15
BRANCH   4  17
ATOM     17  C   UNL     1       0.385  11.474  18.830  0.00  0.00    +0.000 C 
BRANCH  17  18
ATOM     18  C   UNL     1      -1.053  11.215  18.432  0.00  0.00    +0.000 A 
ATOM     19  C   UNL     1      -1.332  10.240  17.451  0.00  0.00    +0.000 A 
ATOM     20  C   UNL     1      -2.639   9.898  17.107  0.00  0.00    +0.000 A 
ATOM     21  C   UNL     1      -3.725  10.498  17.740  0.00  0.00    +0.000 A 
ATOM     22  C   UNL     1      -3.456  11.462  18.716  0.00  0.00    +0.000 A 
ATOM     23  N   UNL     1      -4.326  12.179  19.505  0.00  0.00    +0.000 N 
ATOM     24  C   UNL     1      -3.635  13.030  20.324  0.00  0.00    +0.000 A 
ATOM     25  C   UNL     1      -2.294  12.857  20.067  0.00  0.00    +0.000 A 
ATOM     26  C   UNL     1      -2.159  11.846  19.065  0.00  0.00    +0.000 A 
ATOM     27  H   UNL     1      -5.331  12.079  19.483  0.00  0.00    +0.000 HD
ENDBRANCH  17  18
ENDBRANCH   4  17
TORSDOF 5
ENDMDL
MODEL 6
REMARK VINA RESULT:      -8.1      5.826      8.234
REMARK  Name = 
REMARK  6 active torsions:
REMARK  status: ('A' for Active; 'I' for Inactive)
REMARK    1  A    between atoms: C_1  and  O_2
REMARK    2  A    between atoms: O_2  and  C_3
REMARK    3  A    between atoms: C_7  and  C_8
REMARK    4  A    between atoms: N_11  and  C_12
REMARK    5  A    between atoms: C_12  and  C_13
REMARK    6  A    between atoms: C_23  and  O_24
REMARK                            x       y       z     vdW  Elec       q    Type
REMARK                         _______ _______ _______ _____ _____    ______ ____
ROOT
ATOM      1  C   UNL     1       2.196   7.692  19.615  0.00  0.00    +0.000 C 
ATOM      2  C   UNL     1       1.822   8.087  18.185  0.00  0.00    +0.000 C 
ATOM      3  C   UNL     1       1.777   9.602  18.008  0.00  0.00    +0.000 C 
ATOM      4  N   UNL     1       1.378  10.367  19.208  0.00  0.00    +0.000 NA
ATOM      5  C   UNL     1       0.497   9.581  20.091  0.00  0.00    +0.000 C 
ATOM      6  C   UNL     1       1.171   8.284  20.612  0.00  0.00    +0.000 C 
ENDROOT
BRANCH   1  11
ATOM      7  C   UNL     1       3.287   4.073  18.943  0.00  0.00    +0.000 A 
ATOM      8  C   UNL     1       2.626   3.398  19.972  0.00  0.00    +0.000 A 
ATOM      9  C   UNL     1       1.816   4.096  20.864  0.00  0.00    +0.000 A 
ATOM     10  C   UNL     1       1.662   5.479  20.743  0.00  0.00    +0.000 A 
ATOM     11  C   UNL     1       2.319   6.176  19.719  0.00  0.00    +0.000 A 
ATOM     12  C   UNL     1       3.123   5.452  18.822  0.00  0.00    +0.000 A 
BRANCH   7  14
ATOM     13  C   UNL     1       4.799   3.964  17.119  0.00  0.00    +0.000 C 
ATOM     14  O   UNL     1       4.062   3.289  18.132  0.00  0.00    +0.000 OA
ENDBRANCH   7  14
ENDBRANCH   1  11
BRANCH   6  15
ATOM     15  O   UNL     1       1.827   8.538  21.863  0.00  0.00    +0.000 OA
ATOM     16  H   UNL     1       1.268   8.141  22.554  0.00  0.00    +0.000 HD
ENDBRANCH   6  15
BRANCH   4  17
ATOM     17  C   UNL     1       0.731  11.621  18.755  0.00  0.00    +0.000 C 
BRANCH  17  18
ATOM     18  C   UNL     1      -0.756  11.729  19.017  0.00  0.00    +0.000 A 
ATOM     19  C   UNL     1      -1.217  12.597  20.029  0.00  0.00    +0.000 A 
ATOM     20  C   UNL     1      -2.577  12.803  20.257  0.00  0.00    +0.000 A 
ATOM     21  C   UNL     1      -3.537  12.169  19.471  0.00  0.00    +0.000 A 
ATOM     22  C   UNL     1      -3.087  11.312  18.463  0.00  0.00    +0.000 A 
ATOM     23  N   UNL     1      -3.808  10.591  17.537  0.00  0.00    +0.000 N 
ATOM     24  C   UNL     1      -2.965   9.868  16.738  0.00  0.00    +0.000 A 
ATOM     25  C   UNL     1      -1.677  10.128  17.147  0.00  0.00    +0.000 A 
ATOM     26  C   UNL     1      -1.733  11.063  18.227  0.00  0.00    +0.000 A 
ATOM     27  H   UNL     1      -4.815  10.607  17.460  0.00  0.00    +0.000 HD
ENDBRANCH  17  18
ENDBRANCH   4  17
TORSDOF 5
ENDMDL
MODEL 7
REMARK VINA RESULT:      -8.1      4.952      8.632
REMARK  Name = 
REMARK  6 active torsions:
REMARK  status: ('A' for Active; 'I' for Inactive)
REMARK    1  A    between atoms: C_1  and  O_2
REMARK    2  A    between atoms: O_2  and  C_3
REMARK    3  A    between atoms: C_7  and  C_8
REMARK    4  A    between atoms: N_11  and  C_12
REMARK    5  A    between atoms: C_12  and  C_13
REMARK    6  A    between atoms: C_23  and  O_24
REMARK                            x       y       z     vdW  Elec       q    Type
REMARK                         _______ _______ _______ _____ _____    ______ ____
ROOT
ATOM      1  C   UNL     1       1.486   9.345  19.595  0.00  0.00    +0.000 C 
ATOM      2  C   UNL     1       1.326   7.976  20.257  0.00  0.00    +0.000 C 
ATOM      3  C   UNL     1       2.410   6.999  19.811  0.00  0.00    +0.000 C 
ATOM      4  N   UNL     1       2.913   7.197  18.436  0.00  0.00    +0.000 NA
ATOM      5  C   UNL     1       1.891   7.801  17.561  0.00  0.00    +0.000 C 
ATOM      6  C   UNL     1       1.426   9.198  18.055  0.00  0.00    +0.000 C 
ENDROOT
BRANCH   1  11
ATOM      7  C   UNL     1      -1.594  11.626  19.825  0.00  0.00    +0.000 A 
ATOM      8  C   UNL     1      -1.543  12.010  21.167  0.00  0.00    +0.000 A 
ATOM      9  C   UNL     1      -0.515  11.557  21.991  0.00  0.00    +0.000 A 
ATOM     10  C   UNL     1       0.472  10.711  21.483  0.00  0.00    +0.000 A 
ATOM     11  C   UNL     1       0.440  10.311  20.140  0.00  0.00    +0.000 A 
ATOM     12  C   UNL     1      -0.600  10.788  19.323  0.00  0.00    +0.000 A 
BRANCH   7  14
ATOM     13  C   UNL     1      -2.923  11.495  17.866  0.00  0.00    +0.000 C 
ATOM     14  O   UNL     1      -2.651  12.123  19.113  0.00  0.00    +0.000 OA
ENDBRANCH   7  14
ENDBRANCH   1  11
BRANCH   6  15
ATOM     15  O   UNL     1       2.228  10.225  17.455  0.00  0.00    +0.000 OA
ATOM     16  H   UNL     1       2.455   9.912  16.562  0.00  0.00    +0.000 HD
ENDBRANCH   6  15
BRANCH   4  17
ATOM     17  C   UNL     1       3.373   5.885  17.924  0.00  0.00    +0.000 C 
BRANCH  17  18
ATOM     18  C   UNL     1       4.871   5.665  17.919  0.00  0.00    +0.000 A 
ATOM     19  C   UNL     1       5.568   5.644  19.145  0.00  0.00    +0.000 A 
ATOM     20  C   UNL     1       6.931   5.360  19.210  0.00  0.00    +0.000 A 
ATOM     21  C   UNL     1       7.656   5.065  18.057  0.00  0.00    +0.000 A 
ATOM     22  C   UNL     1       6.970   5.080  16.839  0.00  0.00    +0.000 A 
ATOM     23  N   UNL     1       7.427   4.801  15.571  0.00  0.00    +0.000 N 
ATOM     24  C   UNL     1       6.418   4.949  14.659  0.00  0.00    +0.000 A 
ATOM     25  C   UNL     1       5.286   5.321  15.347  0.00  0.00    +0.000 A 
ATOM     26  C   UNL     1       5.610   5.386  16.737  0.00  0.00    +0.000 A 
ATOM     27  H   UNL     1       8.373   4.520  15.354  0.00  0.00    +0.000 HD
ENDBRANCH  17  18
ENDBRANCH   4  17
TORSDOF 5
ENDMDL
MODEL 8
REMARK VINA RESULT:      -8.0      4.190      8.376
REMARK  Name = 
REMARK  6 active torsions:
REMARK  status: ('A' for Active; 'I' for Inactive)
REMARK    1  A    between atoms: C_1  and  O_2
REMARK    2  A    between atoms: O_2  and  C_3
REMARK    3  A    between atoms: C_7  and  C_8
REMARK    4  A    between atoms: N_11  and  C_12
REMARK    5  A    between atoms: C_12  and  C_13
REMARK    6  A    between atoms: C_23  and  O_24
REMARK                            x       y       z     vdW  Elec       q    Type
REMARK                         _______ _______ _______ _____ _____    ______ ____
ROOT
ATOM      1  C   UNL     1       1.873   7.982  20.218  0.00  0.00    +0.000 C 
ATOM      2  C   UNL     1       1.507   6.575  20.693  0.00  0.00    +0.000 C 
ATOM      3  C   UNL     1       2.459   5.522  20.136  0.00  0.00    +0.000 C 
ATOM      4  N   UNL     1       3.025   5.823  18.804  0.00  0.00    +0.000 NA
ATOM      5  C   UNL     1       2.122   6.670  18.005  0.00  0.00    +0.000 C 
ATOM      6  C   UNL     1       1.839   8.043  18.671  0.00  0.00    +0.000 C 
ENDROOT
BRANCH   1  11
ATOM      7  C   UNL     1      -0.664  10.827  20.680  0.00  0.00    +0.000 A 
ATOM      8  C   UNL     1      -0.815  10.829  22.068  0.00  0.00    +0.000 A 
ATOM      9  C   UNL     1      -0.092   9.937  22.856  0.00  0.00    +0.000 A 
ATOM     10  C   UNL     1       0.788   9.028  22.264  0.00  0.00    +0.000 A 
ATOM     11  C   UNL     1       0.953   9.008  20.872  0.00  0.00    +0.000 A 
ATOM     12  C   UNL     1       0.222   9.923  20.096  0.00  0.00    +0.000 A 
BRANCH   7  14
ATOM     13  C   UNL     1      -1.065  11.994  18.654  0.00  0.00    +0.000 C 
ATOM     14  O   UNL     1      -1.430  11.739  20.006  0.00  0.00    +0.000 OA
ENDBRANCH   7  14
ENDBRANCH   1  11
BRANCH   6  15
ATOM     15  O   UNL     1       2.791   9.016  18.219  0.00  0.00    +0.000 OA
ATOM     16  H   UNL     1       3.577   8.521  17.932  0.00  0.00    +0.000 HD
ENDBRANCH   6  15
BRANCH   4  17
ATOM     17  C   UNL     1       3.316   4.535  18.131  0.00  0.00    +0.000 C 
BRANCH  17  18
ATOM     18  C   UNL     1       4.642   4.453  17.405  0.00  0.00    +0.000 A 
ATOM     19  C   UNL     1       4.667   4.031  16.059  0.00  0.00    +0.000 A 
ATOM     20  C   UNL     1       5.845   4.018  15.314  0.00  0.00    +0.000 A 
ATOM     21  C   UNL     1       7.048   4.446  15.873  0.00  0.00    +0.000 A 
ATOM     22  C   UNL     1       7.029   4.870  17.204  0.00  0.00    +0.000 A 
ATOM     23  N   UNL     1       8.053   5.363  17.983  0.00  0.00    +0.000 N 
ATOM     24  C   UNL     1       7.598   5.648  19.241  0.00  0.00    +0.000 A 
ATOM     25  C   UNL     1       6.257   5.342  19.278  0.00  0.00    +0.000 A 
ATOM     26  C   UNL     1       5.871   4.870  17.986  0.00  0.00    +0.000 A 
ATOM     27  H   UNL     1       9.000   5.500  17.660  0.00  0.00    +0.000 HD
ENDBRANCH  17  18
ENDBRANCH   4  17
TORSDOF 5
ENDMDL
MODEL 9
REMARK VINA RESULT:      -8.0      3.883      8.166
REMARK  Name = 
REMARK  6 active torsions:
REMARK  status: ('A' for Active; 'I' for Inactive)
REMARK    1  A    between atoms: C_1  and  O_2
REMARK    2  A    between atoms: O_2  and  C_3
REMARK    3  A    between atoms: C_7  and  C_8
REMARK    4  A    between atoms: N_11  and  C_12
REMARK    5  A    between atoms: C_12  and  C_13
REMARK    6  A    between atoms: C_23  and  O_24
REMARK                            x       y       z     vdW  Elec       q    Type
REMARK                         _______ _______ _______ _____ _____    ______ ____
ROOT
ATOM      1  C   UNL     1       1.904   6.929  19.244  0.00  0.00    +0.000 C 
ATOM      2  C   UNL     1       3.012   7.126  18.208  0.00  0.00    +0.000 C 
ATOM      3  C   UNL     1       3.445   5.804  17.582  0.00  0.00    +0.000 C 
ATOM      4  N   UNL     1       3.340   4.622  18.463  0.00  0.00    +0.000 NA
ATOM      5  C   UNL     1       3.483   4.985  19.884  0.00  0.00    +0.000 C 
ATOM      6  C   UNL     1       2.391   5.979  20.365  0.00  0.00    +0.000 C 
ENDROOT
BRANCH   1  11
ATOM      7  C   UNL     1       0.783   9.712  21.640  0.00  0.00    +0.000 A 
ATOM      8  C   UNL     1       0.684  10.795  20.764  0.00  0.00    +0.000 A 
ATOM      9  C   UNL     1       0.954  10.631  19.408  0.00  0.00    +0.000 A 
ATOM     10  C   UNL     1       1.332   9.382  18.911  0.00  0.00    +0.000 A 
ATOM     11  C   UNL     1       1.440   8.282  19.773  0.00  0.00    +0.000 A 
ATOM     12  C   UNL     1       1.153   8.466  21.136  0.00  0.00    +0.000 A 
BRANCH   7  14
ATOM     13  C   UNL     1      -0.822  10.419  23.236  0.00  0.00    +0.000 C 
ATOM     14  O   UNL     1       0.504   9.989  22.951  0.00  0.00    +0.000 OA
ENDBRANCH   7  14
ENDBRANCH   1  11
BRANCH   6  15
ATOM     15  O   UNL     1       1.267   5.259  20.891  0.00  0.00    +0.000 OA
ATOM     16  H   UNL     1       1.384   5.232  21.856  0.00  0.00    +0.000 HD
ENDBRANCH   6  15
BRANCH   4  17
ATOM     17  C   UNL     1       4.365   3.641  18.036  0.00  0.00    +0.000 C 
BRANCH  17  18
ATOM     18  C   UNL     1       5.326   4.113  16.966  0.00  0.00    +0.000 A 
ATOM     19  C   UNL     1       5.232   3.570  15.667  0.00  0.00    +0.000 A 
ATOM     20  C   UNL     1       6.031   4.026  14.620  0.00  0.00    +0.000 A 
ATOM     21  C   UNL     1       6.945   5.060  14.816  0.00  0.00    +0.000 A 
ATOM     22  C   UNL     1       7.039   5.606  16.099  0.00  0.00    +0.000 A 
ATOM     23  N   UNL     1       7.826   6.640  16.558  0.00  0.00    +0.000 N 
ATOM     24  C   UNL     1       7.612   6.843  17.894  0.00  0.00    +0.000 A 
ATOM     25  C   UNL     1       6.667   5.932  18.308  0.00  0.00    +0.000 A 
ATOM     26  C   UNL     1       6.273   5.153  17.176  0.00  0.00    +0.000 A 
ATOM     27  H   UNL     1       8.461   7.173  15.981  0.00  0.00    +0.000 HD
ENDBRANCH  17  18
ENDBRANCH   4  17
TORSDOF 5
ENDMDL
