MODEL 1
REMARK VINA RESULT:      -9.1      0.000      0.000
REMARK  Name = 
REMARK  2 active torsions:
REMARK  status: ('A' for Active; 'I' for Inactive)
REMARK    1  A    between atoms: C_3  and  C_4
REMARK    2  A    between atoms: C_6  and  C_7
REMARK                            x       y       z     vdW  Elec       q    Type
REMARK                         _______ _______ _______ _____ _____    ______ ____
ROOT
ATOM      1  C   UNL     1      -0.899  11.995  19.094  0.00  0.00    +0.000 A 
ATOM      2  C   UNL     1      -0.376  10.704  19.053  0.00  0.00    +0.000 A 
ATOM      3  C   UNL     1       0.985  10.513  18.832  0.00  0.00    +0.000 A 
ATOM      4  N   UNL     1       1.830  11.565  18.672  0.00  0.00    +0.000 NA
ATOM      5  C   UNL     1       1.310  12.827  18.702  0.00  0.00    +0.000 A 
ATOM      6  C   UNL     1      -0.039  13.082  18.919  0.00  0.00    +0.000 A 
ATOM      7  C   UNL     1      -0.540  14.498  18.935  0.00  0.00    +0.000 C 
ATOM      8  O   UNL     1       0.408  15.567  18.862  0.00  0.00    +0.000 OA
ATOM      9  C   UNL     1       1.707  15.267  18.579  0.00  0.00    +0.000 A 
ATOM     10  C   UNL     1       2.531  16.381  18.388  0.00  0.00    +0.000 A 
ATOM     11  C   UNL     1       3.882  16.212  18.113  0.00  0.00    +0.000 A 
ATOM     12  C   UNL     1       4.406  14.925  18.037  0.00  0.00    +0.000 A 
ATOM     13 CL   UNL     1       6.082  14.714  17.710  0.00  0.00    +0.000 Cl
ATOM     14  C   UNL     1       3.585  13.808  18.225  0.00  0.00    +0.000 A 
ATOM     15  C   UNL     1       2.215  13.961  18.500  0.00  0.00    +0.000 A 
ENDROOT
BRANCH   1  18
ATOM     16  O   UNL     1      -3.032  11.474  17.180  0.00  0.00    +0.000 OA
ATOM     17  C   UNL     1      -3.346  11.821  18.312  0.00  0.00    +0.000 A 
ATOM     18  C   UNL     1      -2.334  12.143  19.351  0.00  0.00    +0.000 A 
ATOM     19  C   UNL     1      -2.771  12.529  20.558  0.00  0.00    +0.000 A 
ATOM     20  O   UNL     1      -4.082  12.663  20.942  0.00  0.00    +0.000 OA
ATOM     21  C   UNL     1      -5.050  12.349  20.021  0.00  0.00    +0.000 A 
ATOM     22  C   UNL     1      -6.378  12.453  20.435  0.00  0.00    +0.000 A 
ATOM     23  C   UNL     1      -7.409  12.156  19.542  0.00  0.00    +0.000 A 
ATOM     24  C   UNL     1      -7.113  11.754  18.237  0.00  0.00    +0.000 A 
ATOM     25  C   UNL     1      -5.786  11.642  17.823  0.00  0.00    +0.000 A 
ATOM     26  C   UNL     1      -4.756  11.939  18.721  0.00  0.00    +0.000 A 
ENDBRANCH   1  18
BRANCH   3  27
ATOM     27  C   UNL     1       1.557   9.148  18.844  0.00  0.00    +0.000 A 
ATOM     28  C   UNL     1       1.468   8.328  19.990  0.00  0.00    +0.000 A 
ATOM     29  C   UNL     1       2.145   7.109  20.076  0.00  0.00    +0.000 A 
ATOM     30  C   UNL     1       2.904   6.664  19.002  0.00  0.00    +0.000 A 
ATOM     31  C   UNL     1       2.959   7.422  17.834  0.00  0.00    +0.000 A 
ATOM     32  C   UNL     1       2.286   8.648  17.753  0.00  0.00    +0.000 A 
ENDBRANCH   3  27
TORSDOF 2
ENDMDL
MODEL 2
REMARK VINA RESULT:      -8.7      0.776      1.642
REMARK  Name = 
REMARK  2 active torsions:
REMARK  status: ('A' for Active; 'I' for Inactive)
REMARK    1  A    between atoms: C_3  and  C_4
REMARK    2  A    between atoms: C_6  and  C_7
REMARK                            x       y       z     vdW  Elec       q    Type
REMARK                         _______ _______ _______ _____ _____    ______ ____
ROOT
ATOM      1  C   UNL     1      -0.978  11.919  19.106  0.00  0.00    +0.000 A 
ATOM      2  C   UNL     1      -0.432  10.638  19.061  0.00  0.00    +0.000 A 
ATOM      3  C   UNL     1       0.931  10.470  18.841  0.00  0.00    +0.000 A 
ATOM      4  N   UNL     1       1.758  11.538  18.685  0.00  0.00    +0.000 NA
ATOM      5  C   UNL     1       1.216  12.790  18.719  0.00  0.00    +0.000 A 
ATOM      6  C   UNL     1      -0.137  13.022  18.936  0.00  0.00    +0.000 A 
ATOM      7  C   UNL     1      -0.663  14.428  18.955  0.00  0.00    +0.000 C 
ATOM      8  O   UNL     1       0.266  15.514  18.887  0.00  0.00    +0.000 OA
ATOM      9  C   UNL     1       1.571  15.238  18.605  0.00  0.00    +0.000 A 
ATOM     10  C   UNL     1       2.375  16.367  18.419  0.00  0.00    +0.000 A 
ATOM     11  C   UNL     1       3.730  16.222  18.145  0.00  0.00    +0.000 A 
ATOM     12  C   UNL     1       4.276  14.944  18.065  0.00  0.00    +0.000 A 
ATOM     13 CL   UNL     1       5.956  14.764  17.739  0.00  0.00    +0.000 Cl
ATOM     14  C   UNL     1       3.475  13.812  18.249  0.00  0.00    +0.000 A 
ATOM     15  C   UNL     1       2.102  13.941  18.522  0.00  0.00    +0.000 A 
ENDROOT
BRANCH   1  18
ATOM     16  O   UNL     1      -2.198  12.692  21.636  0.00  0.00    +0.000 OA
ATOM     17  C   UNL     1      -2.936  12.473  20.684  0.00  0.00    +0.000 A 
ATOM     18  C   UNL     1      -2.416  12.041  19.361  0.00  0.00    +0.000 A 
ATOM     19  C   UNL     1      -3.300  11.810  18.381  0.00  0.00    +0.000 A 
ATOM     20  O   UNL     1      -4.665  11.932  18.473  0.00  0.00    +0.000 OA
ATOM     21  C   UNL     1      -5.186  12.356  19.670  0.00  0.00    +0.000 A 
ATOM     22  C   UNL     1      -6.570  12.511  19.740  0.00  0.00    +0.000 A 
ATOM     23  C   UNL     1      -7.162  12.931  20.933  0.00  0.00    +0.000 A 
ATOM     24  C   UNL     1      -6.372  13.196  22.053  0.00  0.00    +0.000 A 
ATOM     25  C   UNL     1      -4.986  13.049  21.983  0.00  0.00    +0.000 A 
ATOM     26  C   UNL     1      -4.397  12.629  20.787  0.00  0.00    +0.000 A 
ENDBRANCH   1  18
BRANCH   3  27
ATOM     27  C   UNL     1       1.527   9.116  18.849  0.00  0.00    +0.000 A 
ATOM     28  C   UNL     1       1.470   8.299  19.999  0.00  0.00    +0.000 A 
ATOM     29  C   UNL     1       2.169   7.093  20.079  0.00  0.00    +0.000 A 
ATOM     30  C   UNL     1       2.920   6.656  18.995  0.00  0.00    +0.000 A 
ATOM     31  C   UNL     1       2.944   7.411  17.824  0.00  0.00    +0.000 A 
ATOM     32  C   UNL     1       2.249   8.625  17.749  0.00  0.00    +0.000 A 
ENDBRANCH   3  27
TORSDOF 2
ENDMDL
MODEL 3
REMARK VINA RESULT:      -8.5      2.424      6.682
REMARK  Name = 
REMARK  2 active torsions:
REMARK  status: ('A' for Active; 'I' for Inactive)
REMARK    1  A    between atoms: C_3  and  C_4
REMARK    2  A    between atoms: C_6  and  C_7
REMARK                            x       y       z     vdW  Elec       q    Type
REMARK                         _______ _______ _______ _____ _____    ______ ____
ROOT
ATOM      1  C   UNL     1       0.095  10.828  19.196  0.00  0.00    +0.000 A 
ATOM      2  C   UNL     1      -1.296  10.777  19.120  0.00  0.00    +0.000 A 
ATOM      3  C   UNL     1      -2.026  11.949  18.951  0.00  0.00    +0.000 A 
ATOM      4  N   UNL     1      -1.410  13.155  18.837  0.00  0.00    +0.000 NA
ATOM      5  C   UNL     1      -0.048  13.200  18.923  0.00  0.00    +0.000 A 
ATOM      6  C   UNL     1       0.736  12.065  19.091  0.00  0.00    +0.000 A 
ATOM      7  C   UNL     1       2.229  12.193  19.181  0.00  0.00    +0.000 C 
ATOM      8  O   UNL     1       2.828  13.472  18.954  0.00  0.00    +0.000 OA
ATOM      9  C   UNL     1       2.017  14.565  18.864  0.00  0.00    +0.000 A 
ATOM     10  C   UNL     1       2.695  15.785  18.784  0.00  0.00    +0.000 A 
ATOM     11  C   UNL     1       1.983  16.973  18.668  0.00  0.00    +0.000 A 
ATOM     12  C   UNL     1       0.593  16.933  18.626  0.00  0.00    +0.000 A 
ATOM     13 CL   UNL     1      -0.289  18.402  18.470  0.00  0.00    +0.000 Cl
ATOM     14  C   UNL     1      -0.089  15.714  18.708  0.00  0.00    +0.000 A 
ATOM     15  C   UNL     1       0.614  14.504  18.830  0.00  0.00    +0.000 A 
ENDROOT
BRANCH   1  18
ATOM     16  O   UNL     1       1.800   9.581  17.190  0.00  0.00    +0.000 OA
ATOM     17  C   UNL     1       1.689   9.027  18.276  0.00  0.00    +0.000 A 
ATOM     18  C   UNL     1       0.818   9.563  19.353  0.00  0.00    +0.000 A 
ATOM     19  C   UNL     1       0.747   8.881  20.505  0.00  0.00    +0.000 A 
ATOM     20  O   UNL     1       1.407   7.713  20.798  0.00  0.00    +0.000 OA
ATOM     21  C   UNL     1       2.244   7.197  19.840  0.00  0.00    +0.000 A 
ATOM     22  C   UNL     1       2.937   6.031  20.164  0.00  0.00    +0.000 A 
ATOM     23  C   UNL     1       3.797   5.452  19.229  0.00  0.00    +0.000 A 
ATOM     24  C   UNL     1       3.965   6.039  17.973  0.00  0.00    +0.000 A 
ATOM     25  C   UNL     1       3.279   7.210  17.650  0.00  0.00    +0.000 A 
ATOM     26  C   UNL     1       2.420   7.787  18.589  0.00  0.00    +0.000 A 
ENDBRANCH   1  18
BRANCH   3  27
ATOM     27  C   UNL     1      -3.498  11.896  18.813  0.00  0.00    +0.000 A 
ATOM     28  C   UNL     1      -4.345  12.420  19.814  0.00  0.00    +0.000 A 
ATOM     29  C   UNL     1      -5.728  12.230  19.780  0.00  0.00    +0.000 A 
ATOM     30  C   UNL     1      -6.304  11.536  18.724  0.00  0.00    +0.000 A 
ATOM     31  C   UNL     1      -5.500  11.062  17.689  0.00  0.00    +0.000 A 
ATOM     32  C   UNL     1      -4.112  11.247  17.730  0.00  0.00    +0.000 A 
ENDBRANCH   3  27
TORSDOF 2
ENDMDL
MODEL 4
REMARK VINA RESULT:      -8.5      1.326      2.340
REMARK  Name = 
REMARK  2 active torsions:
REMARK  status: ('A' for Active; 'I' for Inactive)
REMARK    1  A    between atoms: C_3  and  C_4
REMARK    2  A    between atoms: C_6  and  C_7
REMARK                            x       y       z     vdW  Elec       q    Type
REMARK                         _______ _______ _______ _____ _____    ______ ____
ROOT
ATOM      1  C   UNL     1      -1.032  12.153  19.941  0.00  0.00    +0.000 A 
ATOM      2  C   UNL     1      -0.495  10.870  19.853  0.00  0.00    +0.000 A 
ATOM      3  C   UNL     1       0.825  10.696  19.450  0.00  0.00    +0.000 A 
ATOM      4  N   UNL     1       1.619  11.758  19.153  0.00  0.00    +0.000 NA
ATOM      5  C   UNL     1       1.084  13.012  19.231  0.00  0.00    +0.000 A 
ATOM      6  C   UNL     1      -0.226  13.250  19.628  0.00  0.00    +0.000 A 
ATOM      7  C   UNL     1      -0.747  14.657  19.685  0.00  0.00    +0.000 C 
ATOM      8  O   UNL     1       0.161  15.739  19.461  0.00  0.00    +0.000 OA
ATOM      9  C   UNL     1       1.414  15.455  19.006  0.00  0.00    +0.000 A 
ATOM     10  C   UNL     1       2.182  16.578  18.681  0.00  0.00    +0.000 A 
ATOM     11  C   UNL     1       3.485  16.425  18.225  0.00  0.00    +0.000 A 
ATOM     12  C   UNL     1       4.018  15.145  18.102  0.00  0.00    +0.000 A 
ATOM     13 CL   UNL     1       5.636  14.955  17.549  0.00  0.00    +0.000 Cl
ATOM     14  C   UNL     1       3.253  14.019  18.423  0.00  0.00    +0.000 A 
ATOM     15  C   UNL     1       1.931  14.156  18.883  0.00  0.00    +0.000 A 
ENDROOT
BRANCH   1  18
ATOM     16  O   UNL     1      -1.898  12.571  22.692  0.00  0.00    +0.000 OA
ATOM     17  C   UNL     1      -2.755  12.525  21.819  0.00  0.00    +0.000 A 
ATOM     18  C   UNL     1      -2.421  12.283  20.392  0.00  0.00    +0.000 A 
ATOM     19  C   UNL     1      -3.427  12.235  19.508  0.00  0.00    +0.000 A 
ATOM     20  O   UNL     1      -4.763  12.388  19.789  0.00  0.00    +0.000 OA
ATOM     21  C   UNL     1      -5.113  12.640  21.092  0.00  0.00    +0.000 A 
ATOM     22  C   UNL     1      -6.469  12.830  21.359  0.00  0.00    +0.000 A 
ATOM     23  C   UNL     1      -6.891  13.082  22.665  0.00  0.00    +0.000 A 
ATOM     24  C   UNL     1      -5.959  13.146  23.704  0.00  0.00    +0.000 A 
ATOM     25  C   UNL     1      -4.601  12.964  23.438  0.00  0.00    +0.000 A 
ATOM     26  C   UNL     1      -4.183  12.713  22.128  0.00  0.00    +0.000 A 
ENDBRANCH   1  18
BRANCH   3  27
ATOM     27  C   UNL     1       1.419   9.342  19.408  0.00  0.00    +0.000 A 
ATOM     28  C   UNL     1       1.998   8.833  18.225  0.00  0.00    +0.000 A 
ATOM     29  C   UNL     1       2.410   7.503  18.121  0.00  0.00    +0.000 A 
ATOM     30  C   UNL     1       2.283   6.653  19.212  0.00  0.00    +0.000 A 
ATOM     31  C   UNL     1       1.773   7.143  20.413  0.00  0.00    +0.000 A 
ATOM     32  C   UNL     1       1.353   8.476  20.512  0.00  0.00    +0.000 A 
ENDBRANCH   3  27
TORSDOF 2
ENDMDL
MODEL 5
REMARK VINA RESULT:      -8.3      2.404      6.708
REMARK  Name = 
REMARK  2 active torsions:
REMARK  status: ('A' for Active; 'I' for Inactive)
REMARK    1  A    between atoms: C_3  and  C_4
REMARK    2  A    between atoms: C_6  and  C_7
REMARK                            x       y       z     vdW  Elec       q    Type
REMARK                         _______ _______ _______ _____ _____    ______ ____
ROOT
ATOM      1  C   UNL     1       0.330  11.047  18.786  0.00  0.00    +0.000 A 
ATOM      2  C   UNL     1      -1.056  10.920  18.859  0.00  0.00    +0.000 A 
ATOM      3  C   UNL     1      -1.855  12.058  18.918  0.00  0.00    +0.000 A 
ATOM      4  N   UNL     1      -1.314  13.304  18.887  0.00  0.00    +0.000 NA
ATOM      5  C   UNL     1       0.045  13.422  18.826  0.00  0.00    +0.000 A 
ATOM      6  C   UNL     1       0.895  12.324  18.764  0.00  0.00    +0.000 A 
ATOM      7  C   UNL     1       2.381  12.531  18.703  0.00  0.00    +0.000 C 
ATOM      8  O   UNL     1       2.888  13.863  18.571  0.00  0.00    +0.000 OA
ATOM      9  C   UNL     1       2.022  14.907  18.708  0.00  0.00    +0.000 A 
ATOM     10  C   UNL     1       2.628  16.167  18.704  0.00  0.00    +0.000 A 
ATOM     11  C   UNL     1       1.853  17.315  18.816  0.00  0.00    +0.000 A 
ATOM     12  C   UNL     1       0.470  17.195  18.924  0.00  0.00    +0.000 A 
ATOM     13 CL   UNL     1      -0.491  18.617  19.049  0.00  0.00    +0.000 Cl
ATOM     14  C   UNL     1      -0.140  15.937  18.929  0.00  0.00    +0.000 A 
ATOM     15  C   UNL     1       0.630  14.765  18.822  0.00  0.00    +0.000 A 
ENDROOT
BRANCH   1  18
ATOM     16  O   UNL     1       0.570   9.034  20.878  0.00  0.00    +0.000 OA
ATOM     17  C   UNL     1       1.156   8.838  19.821  0.00  0.00    +0.000 A 
ATOM     18  C   UNL     1       1.125   9.819  18.705  0.00  0.00    +0.000 A 
ATOM     19  C   UNL     1       1.810   9.527  17.590  0.00  0.00    +0.000 A 
ATOM     20  O   UNL     1       2.554   8.394  17.368  0.00  0.00    +0.000 OA
ATOM     21  C   UNL     1       2.587   7.449  18.363  0.00  0.00    +0.000 A 
ATOM     22  C   UNL     1       3.316   6.287  18.110  0.00  0.00    +0.000 A 
ATOM     23  C   UNL     1       3.396   5.292  19.086  0.00  0.00    +0.000 A 
ATOM     24  C   UNL     1       2.747   5.458  20.312  0.00  0.00    +0.000 A 
ATOM     25  C   UNL     1       2.012   6.616  20.564  0.00  0.00    +0.000 A 
ATOM     26  C   UNL     1       1.933   7.610  19.584  0.00  0.00    +0.000 A 
ENDBRANCH   1  18
BRANCH   3  27
ATOM     27  C   UNL     1      -3.329  11.932  18.939  0.00  0.00    +0.000 A 
ATOM     28  C   UNL     1      -4.099  12.528  19.962  0.00  0.00    +0.000 A 
ATOM     29  C   UNL     1      -5.467  12.280  20.091  0.00  0.00    +0.000 A 
ATOM     30  C   UNL     1      -6.109  11.454  19.178  0.00  0.00    +0.000 A 
ATOM     31  C   UNL     1      -5.388  10.903  18.121  0.00  0.00    +0.000 A 
ATOM     32  C   UNL     1      -4.013  11.145  17.998  0.00  0.00    +0.000 A 
ENDBRANCH   3  27
TORSDOF 2
ENDMDL
MODEL 6
REMARK VINA RESULT:      -8.2      1.740      2.210
REMARK  Name = 
REMARK  2 active torsions:
REMARK  status: ('A' for Active; 'I' for Inactive)
REMARK    1  A    between atoms: C_3  and  C_4
REMARK    2  A    between atoms: C_6  and  C_7
REMARK                            x       y       z     vdW  Elec       q    Type
REMARK                         _______ _______ _______ _____ _____    ______ ____
ROOT
ATOM      1  C   UNL     1      -1.016  12.388  21.025  0.00  0.00    +0.000 A 
ATOM      2  C   UNL     1      -0.595  11.093  20.731  0.00  0.00    +0.000 A 
ATOM      3  C   UNL     1       0.608  10.889  20.063  0.00  0.00    +0.000 A 
ATOM      4  N   UNL     1       1.401  11.932  19.700  0.00  0.00    +0.000 NA
ATOM      5  C   UNL     1       0.977  13.199  19.980  0.00  0.00    +0.000 A 
ATOM      6  C   UNL     1      -0.214  13.467  20.646  0.00  0.00    +0.000 A 
ATOM      7  C   UNL     1      -0.618  14.887  20.916  0.00  0.00    +0.000 C 
ATOM      8  O   UNL     1       0.302  15.938  20.603  0.00  0.00    +0.000 OA
ATOM      9  C   UNL     1       1.421  15.633  19.888  0.00  0.00    +0.000 A 
ATOM     10  C   UNL     1       2.186  16.740  19.508  0.00  0.00    +0.000 A 
ATOM     11  C   UNL     1       3.365  16.563  18.793  0.00  0.00    +0.000 A 
ATOM     12  C   UNL     1       3.776  15.274  18.466  0.00  0.00    +0.000 A 
ATOM     13 CL   UNL     1       5.241  15.052  17.591  0.00  0.00    +0.000 Cl
ATOM     14  C   UNL     1       3.013  14.164  18.843  0.00  0.00    +0.000 A 
ATOM     15  C   UNL     1       1.816  14.325  19.563  0.00  0.00    +0.000 A 
ENDROOT
BRANCH   1  18
ATOM     16  O   UNL     1      -3.651  12.661  19.811  0.00  0.00    +0.000 OA
ATOM     17  C   UNL     1      -3.579  12.648  21.033  0.00  0.00    +0.000 A 
ATOM     18  C   UNL     1      -2.281  12.548  21.749  0.00  0.00    +0.000 A 
ATOM     19  C   UNL     1      -2.298  12.556  23.089  0.00  0.00    +0.000 A 
ATOM     20  O   UNL     1      -3.411  12.652  23.886  0.00  0.00    +0.000 OA
ATOM     21  C   UNL     1      -4.634  12.720  23.266  0.00  0.00    +0.000 A 
ATOM     22  C   UNL     1      -5.760  12.780  24.087  0.00  0.00    +0.000 A 
ATOM     23  C   UNL     1      -7.031  12.859  23.517  0.00  0.00    +0.000 A 
ATOM     24  C   UNL     1      -7.178  12.877  22.128  0.00  0.00    +0.000 A 
ATOM     25  C   UNL     1      -6.053  12.809  21.304  0.00  0.00    +0.000 A 
ATOM     26  C   UNL     1      -4.782  12.729  21.880  0.00  0.00    +0.000 A 
ENDBRANCH   1  18
BRANCH   3  27
ATOM     27  C   UNL     1       1.091   9.516  19.798  0.00  0.00    +0.000 A 
ATOM     28  C   UNL     1       1.137   8.547  20.824  0.00  0.00    +0.000 A 
ATOM     29  C   UNL     1       1.743   7.303  20.634  0.00  0.00    +0.000 A 
ATOM     30  C   UNL     1       2.292   6.984  19.398  0.00  0.00    +0.000 A 
ATOM     31  C   UNL     1       2.205   7.896  18.349  0.00  0.00    +0.000 A 
ATOM     32  C   UNL     1       1.604   9.147  18.544  0.00  0.00    +0.000 A 
ENDBRANCH   3  27
TORSDOF 2
ENDMDL
MODEL 7
REMARK VINA RESULT:      -8.2      3.110      7.135
REMARK  Name = 
REMARK  2 active torsions:
REMARK  status: ('A' for Active; 'I' for Inactive)
REMARK    1  A    between atoms: C_3  and  C_4
REMARK    2  A    between atoms: C_6  and  C_7
REMARK                            x       y       z     vdW  Elec       q    Type
REMARK                         _______ _______ _______ _____ _____    ______ ____
ROOT
ATOM      1  C   UNL     1      -0.020  11.067  19.420  0.00  0.00    +0.000 A 
ATOM      2  C   UNL     1      -1.343  10.960  18.996  0.00  0.00    +0.000 A 
ATOM      3  C   UNL     1      -2.250  11.973  19.288  0.00  0.00    +0.000 A 
ATOM      4  N   UNL     1      -1.871  13.087  19.969  0.00  0.00    +0.000 NA
ATOM      5  C   UNL     1      -0.576  13.181  20.392  0.00  0.00    +0.000 A 
ATOM      6  C   UNL     1       0.376  12.203  20.130  0.00  0.00    +0.000 A 
ATOM      7  C   UNL     1       1.781  12.373  20.632  0.00  0.00    +0.000 C 
ATOM      8  O   UNL     1       2.148  13.608  21.254  0.00  0.00    +0.000 OA
ATOM      9  C   UNL     1       1.165  14.505  21.550  0.00  0.00    +0.000 A 
ATOM     10  C   UNL     1       1.596  15.617  22.281  0.00  0.00    +0.000 A 
ATOM     11  C   UNL     1       0.695  16.616  22.630  0.00  0.00    +0.000 A 
ATOM     12  C   UNL     1      -0.635  16.499  22.239  0.00  0.00    +0.000 A 
ATOM     13 CL   UNL     1      -1.749  17.742  22.659  0.00  0.00    +0.000 Cl
ATOM     14  C   UNL     1      -1.071  15.389  21.509  0.00  0.00    +0.000 A 
ATOM     15  C   UNL     1      -0.174  14.367  21.151  0.00  0.00    +0.000 A 
ENDROOT
BRANCH   1  18
ATOM     16  O   UNL     1       0.571   8.736  21.065  0.00  0.00    +0.000 OA
ATOM     17  C   UNL     1       1.109   8.818  19.968  0.00  0.00    +0.000 A 
ATOM     18  C   UNL     1       0.901   9.982  19.069  0.00  0.00    +0.000 A 
ATOM     19  C   UNL     1       1.543   9.992  17.893  0.00  0.00    +0.000 A 
ATOM     20  O   UNL     1       2.393   9.021  17.423  0.00  0.00    +0.000 OA
ATOM     21  C   UNL     1       2.593   7.916  18.212  0.00  0.00    +0.000 A 
ATOM     22  C   UNL     1       3.429   6.920  17.707  0.00  0.00    +0.000 A 
ATOM     23  C   UNL     1       3.679   5.774  18.465  0.00  0.00    +0.000 A 
ATOM     24  C   UNL     1       3.093   5.623  19.724  0.00  0.00    +0.000 A 
ATOM     25  C   UNL     1       2.250   6.615  20.227  0.00  0.00    +0.000 A 
ATOM     26  C   UNL     1       2.002   7.760  19.464  0.00  0.00    +0.000 A 
ENDBRANCH   1  18
BRANCH   3  27
ATOM     27  C   UNL     1      -3.642  11.894  18.791  0.00  0.00    +0.000 A 
ATOM     28  C   UNL     1      -3.927  11.443  17.484  0.00  0.00    +0.000 A 
ATOM     29  C   UNL     1      -5.212  11.520  16.944  0.00  0.00    +0.000 A 
ATOM     30  C   UNL     1      -6.255  12.022  17.712  0.00  0.00    +0.000 A 
ATOM     31  C   UNL     1      -6.016  12.416  19.027  0.00  0.00    +0.000 A 
ATOM     32  C   UNL     1      -4.724  12.345  19.564  0.00  0.00    +0.000 A 
ENDBRANCH   3  27
TORSDOF 2
ENDMDL
MODEL 8
REMARK VINA RESULT:      -8.2      2.770      6.897
REMARK  Name = 
REMARK  2 active torsions:
REMARK  status: ('A' for Active; 'I' for Inactive)
REMARK    1  A    between atoms: C_3  and  C_4
REMARK    2  A    between atoms: C_6  and  C_7
REMARK                            x       y       z     vdW  Elec       q    Type
REMARK                         _______ _______ _______ _____ _____    ______ ____
ROOT
ATOM      1  C   UNL     1       0.069  10.734  19.585  0.00  0.00    +0.000 A 
ATOM      2  C   UNL     1      -1.262  10.688  19.177  0.00  0.00    +0.000 A 
ATOM      3  C   UNL     1      -2.022  11.853  19.152  0.00  0.00    +0.000 A 
ATOM      4  N   UNL     1      -1.488  13.053  19.503  0.00  0.00    +0.000 NA
ATOM      5  C   UNL     1      -0.186  13.090  19.912  0.00  0.00    +0.000 A 
ATOM      6  C   UNL     1       0.623  11.961  19.958  0.00  0.00    +0.000 A 
ATOM      7  C   UNL     1       2.046  12.079  20.423  0.00  0.00    +0.000 C 
ATOM      8  O   UNL     1       2.583  13.379  20.682  0.00  0.00    +0.000 OA
ATOM      9  C   UNL     1       1.733  14.445  20.693  0.00  0.00    +0.000 A 
ATOM     10  C   UNL     1       2.319  15.650  21.093  0.00  0.00    +0.000 A 
ATOM     11  C   UNL     1       1.564  16.816  21.127  0.00  0.00    +0.000 A 
ATOM     12  C   UNL     1       0.225  16.772  20.753  0.00  0.00    +0.000 A 
ATOM     13 CL   UNL     1      -0.707  18.218  20.783  0.00  0.00    +0.000 Cl
ATOM     14  C   UNL     1      -0.366  15.568  20.354  0.00  0.00    +0.000 A 
ATOM     15  C   UNL     1       0.382  14.378  20.318  0.00  0.00    +0.000 A 
ENDROOT
BRANCH   1  18
ATOM     16  O   UNL     1       1.785   9.808  17.421  0.00  0.00    +0.000 OA
ATOM     17  C   UNL     1       1.704   9.116  18.428  0.00  0.00    +0.000 A 
ATOM     18  C   UNL     1       0.832   9.483  19.573  0.00  0.00    +0.000 A 
ATOM     19  C   UNL     1       0.796   8.657  20.628  0.00  0.00    +0.000 A 
ATOM     20  O   UNL     1       1.494   7.483  20.764  0.00  0.00    +0.000 OA
ATOM     21  C   UNL     1       2.334   7.120  19.740  0.00  0.00    +0.000 A 
ATOM     22  C   UNL     1       3.065   5.944  19.906  0.00  0.00    +0.000 A 
ATOM     23  C   UNL     1       3.930   5.516  18.897  0.00  0.00    +0.000 A 
ATOM     24  C   UNL     1       4.064   6.263  17.724  0.00  0.00    +0.000 A 
ATOM     25  C   UNL     1       3.339   7.444  17.560  0.00  0.00    +0.000 A 
ATOM     26  C   UNL     1       2.475   7.869  18.573  0.00  0.00    +0.000 A 
ENDBRANCH   1  18
BRANCH   3  27
ATOM     27  C   UNL     1      -3.419  11.822  18.667  0.00  0.00    +0.000 A 
ATOM     28  C   UNL     1      -3.727  11.411  17.351  0.00  0.00    +0.000 A 
ATOM     29  C   UNL     1      -5.014  11.535  16.824  0.00  0.00    +0.000 A 
ATOM     30  C   UNL     1      -6.037  12.044  17.613  0.00  0.00    +0.000 A 
ATOM     31  C   UNL     1      -5.778  12.398  18.936  0.00  0.00    +0.000 A 
ATOM     32  C   UNL     1      -4.483  12.282  19.459  0.00  0.00    +0.000 A 
ENDBRANCH   3  27
TORSDOF 2
ENDMDL
MODEL 9
REMARK VINA RESULT:      -8.1      3.639      8.153
REMARK  Name = 
REMARK  2 active torsions:
REMARK  status: ('A' for Active; 'I' for Inactive)
REMARK    1  A    between atoms: C_3  and  C_4
REMARK    2  A    between atoms: C_6  and  C_7
REMARK                            x       y       z     vdW  Elec       q    Type
REMARK                         _______ _______ _______ _____ _____    ______ ____
ROOT
ATOM      1  C   UNL     1      -0.412  11.103  19.603  0.00  0.00    +0.000 A 
ATOM      2  C   UNL     1      -0.056  12.051  20.559  0.00  0.00    +0.000 A 
ATOM      3  C   UNL     1      -0.998  12.971  21.009  0.00  0.00    +0.000 A 
ATOM      4  N   UNL     1      -2.276  12.958  20.547  0.00  0.00    +0.000 NA
ATOM      5  C   UNL     1      -2.616  12.033  19.602  0.00  0.00    +0.000 A 
ATOM      6  C   UNL     1      -1.721  11.088  19.114  0.00  0.00    +0.000 A 
ATOM      7  C   UNL     1      -2.165  10.105  18.070  0.00  0.00    +0.000 C 
ATOM      8  O   UNL     1      -3.546  10.071  17.696  0.00  0.00    +0.000 OA
ATOM      9  C   UNL     1      -4.367  11.061  18.147  0.00  0.00    +0.000 A 
ATOM     10  C   UNL     1      -5.661  11.026  17.618  0.00  0.00    +0.000 A 
ATOM     11  C   UNL     1      -6.603  11.969  18.013  0.00  0.00    +0.000 A 
ATOM     12  C   UNL     1      -6.245  12.940  18.943  0.00  0.00    +0.000 A 
ATOM     13 CL   UNL     1      -7.415  14.100  19.443  0.00  0.00    +0.000 Cl
ATOM     14  C   UNL     1      -4.952  12.980  19.473  0.00  0.00    +0.000 A 
ATOM     15  C   UNL     1      -3.986  12.037  19.082  0.00  0.00    +0.000 A 
ENDROOT
BRANCH   1  18
ATOM     16  O   UNL     1       0.370   8.697  21.049  0.00  0.00    +0.000 OA
ATOM     17  C   UNL     1       0.914   8.927  19.976  0.00  0.00    +0.000 A 
ATOM     18  C   UNL     1       0.611  10.143  19.178  0.00  0.00    +0.000 A 
ATOM     19  C   UNL     1       1.267  10.318  18.023  0.00  0.00    +0.000 A 
ATOM     20  O   UNL     1       2.211   9.476  17.489  0.00  0.00    +0.000 OA
ATOM     21  C   UNL     1       2.502   8.327  18.181  0.00  0.00    +0.000 A 
ATOM     22  C   UNL     1       3.434   7.461  17.611  0.00  0.00    +0.000 A 
ATOM     23  C   UNL     1       3.779   6.280  18.270  0.00  0.00    +0.000 A 
ATOM     24  C   UNL     1       3.191   5.963  19.497  0.00  0.00    +0.000 A 
ATOM     25  C   UNL     1       2.252   6.824  20.065  0.00  0.00    +0.000 A 
ATOM     26  C   UNL     1       1.909   8.005  19.401  0.00  0.00    +0.000 A 
ENDBRANCH   1  18
BRANCH   3  27
ATOM     27  C   UNL     1      -0.644  13.944  22.066  0.00  0.00    +0.000 A 
ATOM     28  C   UNL     1      -1.298  13.935  23.317  0.00  0.00    +0.000 A 
ATOM     29  C   UNL     1      -1.096  14.945  24.260  0.00  0.00    +0.000 A 
ATOM     30  C   UNL     1      -0.208  15.978  23.986  0.00  0.00    +0.000 A 
ATOM     31  C   UNL     1       0.499  15.980  22.786  0.00  0.00    +0.000 A 
ATOM     32  C   UNL     1       0.289  14.969  21.838  0.00  0.00    +0.000 A 
ENDBRANCH   3  27
TORSDOF 2
ENDMDL
