MODEL 1
REMARK VINA RESULT:      -7.9      0.000      0.000
REMARK  Name = 
REMARK  5 active torsions:
REMARK  status: ('A' for Active; 'I' for Inactive)
REMARK    1  A    between atoms: C_2  and  C_3
REMARK    2  A    between atoms: C_4  and  C_5
REMARK    3  A    between atoms: N_11  and  C_12
REMARK    4  A    between atoms: C_15  and  N_16
REMARK    5  A    between atoms: C_17  and  C_19
REMARK                            x       y       z     vdW  Elec       q    Type
REMARK                         _______ _______ _______ _____ _____    ______ ____
ROOT
ATOM      1  C   UNL     1       1.314   8.523  20.658  0.00  0.00    +0.000 A 
ATOM      2  C   UNL     1       1.181   8.590  22.038  0.00  0.00    +0.000 A 
ATOM      3  C   UNL     1       0.319   9.510  22.632  0.00  0.00    +0.000 A 
ATOM      4  C   UNL     1      -0.438  10.401  21.873  0.00  0.00    +0.000 A 
ATOM      5  C   UNL     1      -0.360  10.296  20.480  0.00  0.00    +0.000 A 
ATOM      6  C   UNL     1       0.509   9.363  19.877  0.00  0.00    +0.000 A 
ENDROOT
BRANCH   1   9
ATOM      7  O   UNL     1       1.413   5.562  20.618  0.00  0.00    +0.000 OA
ATOM      8  C   UNL     1       2.248   6.284  20.087  0.00  0.00    +0.000 C 
ATOM      9  N   UNL     1       2.248   7.668  20.027  0.00  0.00    +0.000 N 
ATOM     10  H   UNL     1       3.015   8.122  19.547  0.00  0.00    +0.000 HD
BRANCH   8  11
ATOM     11  C   UNL     1       3.430   5.674  19.417  0.00  0.00    +0.000 C 
ATOM     12  C   UNL     1       3.905   6.251  18.304  0.00  0.00    +0.000 C 
BRANCH  12  13
ATOM     13  C   UNL     1       5.087   5.735  17.623  0.00  0.00    +0.000 A 
ATOM     14  C   UNL     1       5.159   5.711  16.232  0.00  0.00    +0.000 A 
ATOM     15  C   UNL     1       6.291   5.169  15.650  0.00  0.00    +0.000 A 
ATOM     16  N   UNL     1       7.330   4.664  16.350  0.00  0.00    +0.000 NA
ATOM     17  C   UNL     1       7.238   4.715  17.697  0.00  0.00    +0.000 A 
ATOM     18  C   UNL     1       6.150   5.236  18.373  0.00  0.00    +0.000 A 
ENDBRANCH  12  13
ENDBRANCH   8  11
ENDBRANCH   1   9
BRANCH   4  19
ATOM     19  N   UNL     1      -1.262  11.394  22.463  0.00  0.00    +0.000 N 
ATOM     20  C   UNL     1      -0.924  12.738  22.591  0.00  0.00    +0.000 C 
ATOM     21  O   UNL     1       0.121  13.250  22.196  0.00  0.00    +0.000 OA
ATOM     22  H   UNL     1      -2.188  11.105  22.761  0.00  0.00    +0.000 HD
BRANCH  20  23
ATOM     23  C   UNL     1      -1.880  13.665  23.252  0.00  0.00    +0.000 A 
ATOM     24  C   UNL     1      -1.354  14.549  24.217  0.00  0.00    +0.000 A 
ATOM     25  C   UNL     1      -2.184  15.424  24.913  0.00  0.00    +0.000 A 
ATOM     26  C   UNL     1      -3.544  15.423  24.645  0.00  0.00    +0.000 A 
ATOM     27  F   UNL     1      -4.347  16.251  25.323  0.00  0.00    +0.000 F 
ATOM     28  C   UNL     1      -4.086  14.574  23.685  0.00  0.00    +0.000 A 
ATOM     29  C   UNL     1      -3.249  13.699  22.990  0.00  0.00    +0.000 A 
ATOM     30  F   UNL     1      -3.795  12.891  22.069  0.00  0.00    +0.000 F 
ENDBRANCH  20  23
ENDBRANCH   4  19
TORSDOF 5
ENDMDL
MODEL 2
REMARK VINA RESULT:      -7.8      4.510     11.664
REMARK  Name = 
REMARK  5 active torsions:
REMARK  status: ('A' for Active; 'I' for Inactive)
REMARK    1  A    between atoms: C_2  and  C_3
REMARK    2  A    between atoms: C_4  and  C_5
REMARK    3  A    between atoms: N_11  and  C_12
REMARK    4  A    between atoms: C_15  and  N_16
REMARK    5  A    between atoms: C_17  and  C_19
REMARK                            x       y       z     vdW  Elec       q    Type
REMARK                         _______ _______ _______ _____ _____    ______ ____
ROOT
ATOM      1  C   UNL     1       0.709   9.343  20.397  0.00  0.00    +0.000 A 
ATOM      2  C   UNL     1       1.160   8.084  20.767  0.00  0.00    +0.000 A 
ATOM      3  C   UNL     1       1.952   7.324  19.907  0.00  0.00    +0.000 A 
ATOM      4  C   UNL     1       2.318   7.788  18.646  0.00  0.00    +0.000 A 
ATOM      5  C   UNL     1       1.923   9.082  18.290  0.00  0.00    +0.000 A 
ATOM      6  C   UNL     1       1.125   9.855  19.160  0.00  0.00    +0.000 A 
ENDROOT
BRANCH   1   9
ATOM      7  O   UNL     1       0.631   9.608  23.347  0.00  0.00    +0.000 OA
ATOM      8  C   UNL     1      -0.169  10.143  22.588  0.00  0.00    +0.000 C 
ATOM      9  N   UNL     1      -0.173  10.101  21.203  0.00  0.00    +0.000 N 
ATOM     10  H   UNL     1      -0.906  10.599  20.715  0.00  0.00    +0.000 HD
BRANCH   8  11
ATOM     11  C   UNL     1      -1.296  10.939  23.148  0.00  0.00    +0.000 C 
ATOM     12  C   UNL     1      -1.641  12.081  22.536  0.00  0.00    +0.000 C 
BRANCH  12  13
ATOM     13  C   UNL     1      -2.764  12.886  23.001  0.00  0.00    +0.000 A 
ATOM     14  C   UNL     1      -2.583  13.888  23.952  0.00  0.00    +0.000 A 
ATOM     15  C   UNL     1      -3.698  14.585  24.381  0.00  0.00    +0.000 A 
ATOM     16  N   UNL     1      -4.951  14.352  23.932  0.00  0.00    +0.000 NA
ATOM     17  C   UNL     1      -5.094  13.385  23.001  0.00  0.00    +0.000 A 
ATOM     18  C   UNL     1      -4.043  12.633  22.507  0.00  0.00    +0.000 A 
ENDBRANCH  12  13
ENDBRANCH   8  11
ENDBRANCH   1   9
BRANCH   4  19
ATOM     19  N   UNL     1       3.059   6.997  17.729  0.00  0.00    +0.000 N 
ATOM     20  C   UNL     1       4.100   6.141  18.075  0.00  0.00    +0.000 C 
ATOM     21  O   UNL     1       4.505   5.937  19.217  0.00  0.00    +0.000 OA
ATOM     22  H   UNL     1       2.766   7.024  16.758  0.00  0.00    +0.000 HD
BRANCH  20  23
ATOM     23  C   UNL     1       4.804   5.388  17.003  0.00  0.00    +0.000 A 
ATOM     24  C   UNL     1       5.458   6.147  16.009  0.00  0.00    +0.000 A 
ATOM     25  C   UNL     1       6.108   5.525  14.947  0.00  0.00    +0.000 A 
ATOM     26  C   UNL     1       6.112   4.140  14.874  0.00  0.00    +0.000 A 
ATOM     27  F   UNL     1       6.722   3.540  13.846  0.00  0.00    +0.000 F 
ATOM     28  C   UNL     1       5.491   3.368  15.851  0.00  0.00    +0.000 A 
ATOM     29  C   UNL     1       4.840   3.998  16.914  0.00  0.00    +0.000 A 
ATOM     30  F   UNL     1       4.249   3.232  17.842  0.00  0.00    +0.000 F 
ENDBRANCH  20  23
ENDBRANCH   4  19
TORSDOF 5
ENDMDL
MODEL 3
REMARK VINA RESULT:      -7.7      4.368     11.564
REMARK  Name = 
REMARK  5 active torsions:
REMARK  status: ('A' for Active; 'I' for Inactive)
REMARK    1  A    between atoms: C_2  and  C_3
REMARK    2  A    between atoms: C_4  and  C_5
REMARK    3  A    between atoms: N_11  and  C_12
REMARK    4  A    between atoms: C_15  and  N_16
REMARK    5  A    between atoms: C_17  and  C_19
REMARK                            x       y       z     vdW  Elec       q    Type
REMARK                         _______ _______ _______ _____ _____    ______ ____
ROOT
ATOM      1  C   UNL     1       0.363   9.931  20.537  0.00  0.00    +0.000 A 
ATOM      2  C   UNL     1       0.887   8.732  20.998  0.00  0.00    +0.000 A 
ATOM      3  C   UNL     1       1.683   7.934  20.178  0.00  0.00    +0.000 A 
ATOM      4  C   UNL     1       1.981   8.298  18.867  0.00  0.00    +0.000 A 
ATOM      5  C   UNL     1       1.512   9.537  18.414  0.00  0.00    +0.000 A 
ATOM      6  C   UNL     1       0.709  10.348  19.244  0.00  0.00    +0.000 A 
ENDROOT
BRANCH   1   9
ATOM      7  O   UNL     1       0.098  10.112  23.482  0.00  0.00    +0.000 OA
ATOM      8  C   UNL     1      -0.614  10.718  22.690  0.00  0.00    +0.000 C 
ATOM      9  N   UNL     1      -0.525  10.719  21.308  0.00  0.00    +0.000 N 
ATOM     10  H   UNL     1      -1.191  11.276  20.789  0.00  0.00    +0.000 HD
BRANCH   8  11
ATOM     11  C   UNL     1      -1.727  11.566  23.200  0.00  0.00    +0.000 C 
ATOM     12  C   UNL     1      -2.447  12.277  22.320  0.00  0.00    +0.000 C 
BRANCH  12  13
ATOM     13  C   UNL     1      -3.581  13.091  22.743  0.00  0.00    +0.000 A 
ATOM     14  C   UNL     1      -4.845  12.902  22.189  0.00  0.00    +0.000 A 
ATOM     15  C   UNL     1      -5.867  13.737  22.605  0.00  0.00    +0.000 A 
ATOM     16  N   UNL     1      -5.711  14.723  23.516  0.00  0.00    +0.000 NA
ATOM     17  C   UNL     1      -4.478  14.872  24.046  0.00  0.00    +0.000 A 
ATOM     18  C   UNL     1      -3.392  14.089  23.697  0.00  0.00    +0.000 A 
ENDBRANCH  12  13
ENDBRANCH   8  11
ENDBRANCH   1   9
BRANCH   4  19
ATOM     19  N   UNL     1       2.726   7.463  17.995  0.00  0.00    +0.000 N 
ATOM     20  C   UNL     1       3.479   6.363  18.394  0.00  0.00    +0.000 C 
ATOM     21  O   UNL     1       3.587   5.955  19.548  0.00  0.00    +0.000 OA
ATOM     22  H   UNL     1       2.655   7.656  17.001  0.00  0.00    +0.000 HD
BRANCH  20  23
ATOM     23  C   UNL     1       4.229   5.589  17.370  0.00  0.00    +0.000 A 
ATOM     24  C   UNL     1       4.984   6.326  16.433  0.00  0.00    +0.000 A 
ATOM     25  C   UNL     1       5.684   5.683  15.416  0.00  0.00    +0.000 A 
ATOM     26  C   UNL     1       5.638   4.300  15.331  0.00  0.00    +0.000 A 
ATOM     27  F   UNL     1       6.297   3.681  14.345  0.00  0.00    +0.000 F 
ATOM     28  C   UNL     1       4.916   3.549  16.253  0.00  0.00    +0.000 A 
ATOM     29  C   UNL     1       4.215   4.198  17.271  0.00  0.00    +0.000 A 
ATOM     30  F   UNL     1       3.527   3.452  18.148  0.00  0.00    +0.000 F 
ENDBRANCH  20  23
ENDBRANCH   4  19
TORSDOF 5
ENDMDL
MODEL 4
REMARK VINA RESULT:      -7.7      4.532     11.681
REMARK  Name = 
REMARK  5 active torsions:
REMARK  status: ('A' for Active; 'I' for Inactive)
REMARK    1  A    between atoms: C_2  and  C_3
REMARK    2  A    between atoms: C_4  and  C_5
REMARK    3  A    between atoms: N_11  and  C_12
REMARK    4  A    between atoms: C_15  and  N_16
REMARK    5  A    between atoms: C_17  and  C_19
REMARK                            x       y       z     vdW  Elec       q    Type
REMARK                         _______ _______ _______ _____ _____    ______ ____
ROOT
ATOM      1  C   UNL     1       0.804   9.067  20.388  0.00  0.00    +0.000 A 
ATOM      2  C   UNL     1       1.352   7.884  20.864  0.00  0.00    +0.000 A 
ATOM      3  C   UNL     1       2.111   7.060  20.034  0.00  0.00    +0.000 A 
ATOM      4  C   UNL     1       2.347   7.381  18.699  0.00  0.00    +0.000 A 
ATOM      5  C   UNL     1       1.854   8.603  18.228  0.00  0.00    +0.000 A 
ATOM      6  C   UNL     1       1.089   9.441  19.067  0.00  0.00    +0.000 A 
ENDROOT
BRANCH   1   9
ATOM      7  O   UNL     1       0.935   9.661  23.287  0.00  0.00    +0.000 OA
ATOM      8  C   UNL     1       0.057  10.077  22.540  0.00  0.00    +0.000 C 
ATOM      9  N   UNL     1      -0.048   9.878  21.173  0.00  0.00    +0.000 N 
ATOM     10  H   UNL     1      -0.838  10.290  20.693  0.00  0.00    +0.000 HD
BRANCH   8  11
ATOM     11  C   UNL     1      -1.061  10.889  23.096  0.00  0.00    +0.000 C 
ATOM     12  C   UNL     1      -1.080  12.207  22.850  0.00  0.00    +0.000 C 
BRANCH  12  13
ATOM     13  C   UNL     1      -2.168  13.055  23.323  0.00  0.00    +0.000 A 
ATOM     14  C   UNL     1      -3.463  12.555  23.447  0.00  0.00    +0.000 A 
ATOM     15  C   UNL     1      -4.457  13.425  23.861  0.00  0.00    +0.000 A 
ATOM     16  N   UNL     1      -4.245  14.727  24.152  0.00  0.00    +0.000 NA
ATOM     17  C   UNL     1      -2.978  15.178  24.036  0.00  0.00    +0.000 A 
ATOM     18  C   UNL     1      -1.916  14.390  23.631  0.00  0.00    +0.000 A 
ENDBRANCH  12  13
ENDBRANCH   8  11
ENDBRANCH   1   9
BRANCH   4  19
ATOM     19  N   UNL     1       3.052   6.518  17.821  0.00  0.00    +0.000 N 
ATOM     20  C   UNL     1       4.400   6.637  17.499  0.00  0.00    +0.000 C 
ATOM     21  O   UNL     1       5.166   7.489  17.942  0.00  0.00    +0.000 OA
ATOM     22  H   UNL     1       2.541   5.725  17.447  0.00  0.00    +0.000 HD
BRANCH  20  23
ATOM     23  C   UNL     1       5.005   5.670  16.543  0.00  0.00    +0.000 A 
ATOM     24  C   UNL     1       5.371   6.166  15.275  0.00  0.00    +0.000 A 
ATOM     25  C   UNL     1       5.907   5.321  14.305  0.00  0.00    +0.000 A 
ATOM     26  C   UNL     1       6.083   3.979  14.600  0.00  0.00    +0.000 A 
ATOM     27  F   UNL     1       6.582   3.162  13.665  0.00  0.00    +0.000 F 
ATOM     28  C   UNL     1       5.747   3.468  15.850  0.00  0.00    +0.000 A 
ATOM     29  C   UNL     1       5.210   4.319  16.818  0.00  0.00    +0.000 A 
ATOM     30  F   UNL     1       4.894   3.803  18.015  0.00  0.00    +0.000 F 
ENDBRANCH  20  23
ENDBRANCH   4  19
TORSDOF 5
ENDMDL
MODEL 5
REMARK VINA RESULT:      -7.7      4.402     11.626
REMARK  Name = 
REMARK  5 active torsions:
REMARK  status: ('A' for Active; 'I' for Inactive)
REMARK    1  A    between atoms: C_2  and  C_3
REMARK    2  A    between atoms: C_4  and  C_5
REMARK    3  A    between atoms: N_11  and  C_12
REMARK    4  A    between atoms: C_15  and  N_16
REMARK    5  A    between atoms: C_17  and  C_19
REMARK                            x       y       z     vdW  Elec       q    Type
REMARK                         _______ _______ _______ _____ _____    ______ ____
ROOT
ATOM      1  C   UNL     1       0.166   9.748  20.515  0.00  0.00    +0.000 A 
ATOM      2  C   UNL     1       0.410  10.039  19.180  0.00  0.00    +0.000 A 
ATOM      3  C   UNL     1       1.328   9.295  18.440  0.00  0.00    +0.000 A 
ATOM      4  C   UNL     1       2.041   8.240  19.004  0.00  0.00    +0.000 A 
ATOM      5  C   UNL     1       1.754   7.898  20.330  0.00  0.00    +0.000 A 
ATOM      6  C   UNL     1       0.822   8.646  21.080  0.00  0.00    +0.000 A 
ENDROOT
BRANCH   1   9
ATOM      7  O   UNL     1       0.129  10.055  23.461  0.00  0.00    +0.000 OA
ATOM      8  C   UNL     1      -0.666  10.600  22.704  0.00  0.00    +0.000 C 
ATOM      9  N   UNL     1      -0.687  10.540  21.320  0.00  0.00    +0.000 N 
ATOM     10  H   UNL     1      -1.412  11.050  20.834  0.00  0.00    +0.000 HD
BRANCH   8  11
ATOM     11  C   UNL     1      -1.766  11.433  23.265  0.00  0.00    +0.000 C 
ATOM     12  C   UNL     1      -2.281  12.411  22.507  0.00  0.00    +0.000 C 
BRANCH  12  13
ATOM     13  C   UNL     1      -3.391  13.234  22.974  0.00  0.00    +0.000 A 
ATOM     14  C   UNL     1      -4.704  12.930  22.623  0.00  0.00    +0.000 A 
ATOM     15  C   UNL     1      -5.706  13.776  23.065  0.00  0.00    +0.000 A 
ATOM     16  N   UNL     1      -5.485  14.877  23.816  0.00  0.00    +0.000 NA
ATOM     17  C   UNL     1      -4.203  15.137  24.152  0.00  0.00    +0.000 A 
ATOM     18  C   UNL     1      -3.133  14.354  23.761  0.00  0.00    +0.000 A 
ENDBRANCH  12  13
ENDBRANCH   8  11
ENDBRANCH   1   9
BRANCH   4  19
ATOM     19  N   UNL     1       3.033   7.522  18.288  0.00  0.00    +0.000 N 
ATOM     20  C   UNL     1       2.927   6.191  17.895  0.00  0.00    +0.000 C 
ATOM     21  O   UNL     1       1.957   5.464  18.096  0.00  0.00    +0.000 OA
ATOM     22  H   UNL     1       3.856   8.040  17.998  0.00  0.00    +0.000 HD
BRANCH  20  23
ATOM     23  C   UNL     1       4.059   5.559  17.166  0.00  0.00    +0.000 A 
ATOM     24  C   UNL     1       4.966   6.422  16.517  0.00  0.00    +0.000 A 
ATOM     25  C   UNL     1       6.032   5.914  15.778  0.00  0.00    +0.000 A 
ATOM     26  C   UNL     1       6.199   4.541  15.689  0.00  0.00    +0.000 A 
ATOM     27  F   UNL     1       7.213   4.050  14.967  0.00  0.00    +0.000 F 
ATOM     28  C   UNL     1       5.330   3.668  16.336  0.00  0.00    +0.000 A 
ATOM     29  C   UNL     1       4.263   4.183  17.075  0.00  0.00    +0.000 A 
ATOM     30  F   UNL     1       3.439   3.322  17.689  0.00  0.00    +0.000 F 
ENDBRANCH  20  23
ENDBRANCH   4  19
TORSDOF 5
ENDMDL
MODEL 6
REMARK VINA RESULT:      -7.6      0.881      1.290
REMARK  Name = 
REMARK  5 active torsions:
REMARK  status: ('A' for Active; 'I' for Inactive)
REMARK    1  A    between atoms: C_2  and  C_3
REMARK    2  A    between atoms: C_4  and  C_5
REMARK    3  A    between atoms: N_11  and  C_12
REMARK    4  A    between atoms: C_15  and  N_16
REMARK    5  A    between atoms: C_17  and  C_19
REMARK                            x       y       z     vdW  Elec       q    Type
REMARK                         _______ _______ _______ _____ _____    ______ ____
ROOT
ATOM      1  C   UNL     1       1.291   8.550  20.700  0.00  0.00    +0.000 A 
ATOM      2  C   UNL     1       1.127   8.636  22.076  0.00  0.00    +0.000 A 
ATOM      3  C   UNL     1       0.219   9.534  22.635  0.00  0.00    +0.000 A 
ATOM      4  C   UNL     1      -0.554  10.383  21.846  0.00  0.00    +0.000 A 
ATOM      5  C   UNL     1      -0.443  10.257  20.456  0.00  0.00    +0.000 A 
ATOM      6  C   UNL     1       0.472   9.346  19.887  0.00  0.00    +0.000 A 
ENDROOT
BRANCH   1   9
ATOM      7  O   UNL     1       1.404   5.592  20.564  0.00  0.00    +0.000 OA
ATOM      8  C   UNL     1       2.270   6.334  20.115  0.00  0.00    +0.000 C 
ATOM      9  N   UNL     1       2.269   7.719  20.103  0.00  0.00    +0.000 N 
ATOM     10  H   UNL     1       3.063   8.191  19.692  0.00  0.00    +0.000 HD
BRANCH   8  11
ATOM     11  C   UNL     1       3.497   5.750  19.505  0.00  0.00    +0.000 C 
ATOM     12  C   UNL     1       3.904   6.215  18.314  0.00  0.00    +0.000 C 
BRANCH  12  13
ATOM     13  C   UNL     1       5.122   5.722  17.681  0.00  0.00    +0.000 A 
ATOM     14  C   UNL     1       5.191   5.550  16.300  0.00  0.00    +0.000 A 
ATOM     15  C   UNL     1       6.362   5.038  15.768  0.00  0.00    +0.000 A 
ATOM     16  N   UNL     1       7.440   4.698  16.508  0.00  0.00    +0.000 NA
ATOM     17  C   UNL     1       7.348   4.890  17.842  0.00  0.00    +0.000 A 
ATOM     18  C   UNL     1       6.223   5.395  18.469  0.00  0.00    +0.000 A 
ENDBRANCH  12  13
ENDBRANCH   8  11
ENDBRANCH   1   9
BRANCH   4  19
ATOM     19  N   UNL     1      -1.426  11.355  22.400  0.00  0.00    +0.000 N 
ATOM     20  C   UNL     1      -1.098  12.690  22.615  0.00  0.00    +0.000 C 
ATOM     21  O   UNL     1      -0.021  13.213  22.338  0.00  0.00    +0.000 OA
ATOM     22  H   UNL     1      -2.375  11.059  22.602  0.00  0.00    +0.000 HD
BRANCH  20  23
ATOM     23  C   UNL     1      -2.108  13.594  23.226  0.00  0.00    +0.000 A 
ATOM     24  C   UNL     1      -3.447  13.434  22.811  0.00  0.00    +0.000 A 
ATOM     25  C   UNL     1      -4.452  14.264  23.303  0.00  0.00    +0.000 A 
ATOM     26  C   UNL     1      -4.124  15.256  24.215  0.00  0.00    +0.000 A 
ATOM     27  F   UNL     1      -5.084  16.065  24.676  0.00  0.00    +0.000 F 
ATOM     28  C   UNL     1      -2.814  15.423  24.654  0.00  0.00    +0.000 A 
ATOM     29  C   UNL     1      -1.811  14.588  24.158  0.00  0.00    +0.000 A 
ATOM     30  F   UNL     1      -0.557  14.768  24.596  0.00  0.00    +0.000 F 
ENDBRANCH  20  23
ENDBRANCH   4  19
TORSDOF 5
ENDMDL
MODEL 7
REMARK VINA RESULT:      -7.5      4.547     11.710
REMARK  Name = 
REMARK  5 active torsions:
REMARK  status: ('A' for Active; 'I' for Inactive)
REMARK    1  A    between atoms: C_2  and  C_3
REMARK    2  A    between atoms: C_4  and  C_5
REMARK    3  A    between atoms: N_11  and  C_12
REMARK    4  A    between atoms: C_15  and  N_16
REMARK    5  A    between atoms: C_17  and  C_19
REMARK                            x       y       z     vdW  Elec       q    Type
REMARK                         _______ _______ _______ _____ _____    ______ ____
ROOT
ATOM      1  C   UNL     1       0.784   9.308  20.284  0.00  0.00    +0.000 A 
ATOM      2  C   UNL     1       1.341   8.090  20.645  0.00  0.00    +0.000 A 
ATOM      3  C   UNL     1       2.184   7.401  19.774  0.00  0.00    +0.000 A 
ATOM      4  C   UNL     1       2.497   7.896  18.511  0.00  0.00    +0.000 A 
ATOM      5  C   UNL     1       1.993   9.155  18.164  0.00  0.00    +0.000 A 
ATOM      6  C   UNL     1       1.143   9.857  19.045  0.00  0.00    +0.000 A 
ENDROOT
BRANCH   1   9
ATOM      7  O   UNL     1       0.883   9.831  23.199  0.00  0.00    +0.000 OA
ATOM      8  C   UNL     1      -0.049  10.159  22.473  0.00  0.00    +0.000 C 
ATOM      9  N   UNL     1      -0.149   9.989  21.102  0.00  0.00    +0.000 N 
ATOM     10  H   UNL     1      -0.989  10.316  20.643  0.00  0.00    +0.000 HD
BRANCH   8  11
ATOM     11  C   UNL     1      -1.248  10.815  23.065  0.00  0.00    +0.000 C 
ATOM     12  C   UNL     1      -1.817  11.831  22.401  0.00  0.00    +0.000 C 
BRANCH  12  13
ATOM     13  C   UNL     1      -3.021  12.487  22.898  0.00  0.00    +0.000 A 
ATOM     14  C   UNL     1      -3.569  12.139  24.131  0.00  0.00    +0.000 A 
ATOM     15  C   UNL     1      -4.736  12.771  24.523  0.00  0.00    +0.000 A 
ATOM     16  N   UNL     1      -5.373  13.705  23.783  0.00  0.00    +0.000 NA
ATOM     17  C   UNL     1      -4.809  14.032  22.600  0.00  0.00    +0.000 A 
ATOM     18  C   UNL     1      -3.646  13.459  22.119  0.00  0.00    +0.000 A 
ENDBRANCH  12  13
ENDBRANCH   8  11
ENDBRANCH   1   9
BRANCH   4  19
ATOM     19  N   UNL     1       3.291   7.173  17.583  0.00  0.00    +0.000 N 
ATOM     20  C   UNL     1       4.289   6.266  17.926  0.00  0.00    +0.000 C 
ATOM     21  O   UNL     1       4.605   5.953  19.071  0.00  0.00    +0.000 OA
ATOM     22  H   UNL     1       3.072   7.291  16.600  0.00  0.00    +0.000 HD
BRANCH  20  23
ATOM     23  C   UNL     1       5.059   5.594  16.845  0.00  0.00    +0.000 A 
ATOM     24  C   UNL     1       4.433   4.514  16.188  0.00  0.00    +0.000 A 
ATOM     25  C   UNL     1       5.096   3.803  15.191  0.00  0.00    +0.000 A 
ATOM     26  C   UNL     1       6.386   4.170  14.842  0.00  0.00    +0.000 A 
ATOM     27  F   UNL     1       7.032   3.479  13.897  0.00  0.00    +0.000 F 
ATOM     28  C   UNL     1       7.020   5.243  15.463  0.00  0.00    +0.000 A 
ATOM     29  C   UNL     1       6.350   5.952  16.462  0.00  0.00    +0.000 A 
ATOM     30  F   UNL     1       6.981   6.982  17.044  0.00  0.00    +0.000 F 
ENDBRANCH  20  23
ENDBRANCH   4  19
TORSDOF 5
ENDMDL
MODEL 8
REMARK VINA RESULT:      -7.5      1.151      1.807
REMARK  Name = 
REMARK  5 active torsions:
REMARK  status: ('A' for Active; 'I' for Inactive)
REMARK    1  A    between atoms: C_2  and  C_3
REMARK    2  A    between atoms: C_4  and  C_5
REMARK    3  A    between atoms: N_11  and  C_12
REMARK    4  A    between atoms: C_15  and  N_16
REMARK    5  A    between atoms: C_17  and  C_19
REMARK                            x       y       z     vdW  Elec       q    Type
REMARK                         _______ _______ _______ _____ _____    ______ ____
ROOT
ATOM      1  C   UNL     1       1.442   8.560  20.007  0.00  0.00    +0.000 A 
ATOM      2  C   UNL     1       0.885   9.551  19.212  0.00  0.00    +0.000 A 
ATOM      3  C   UNL     1      -0.060  10.438  19.728  0.00  0.00    +0.000 A 
ATOM      4  C   UNL     1      -0.488  10.365  21.051  0.00  0.00    +0.000 A 
ATOM      5  C   UNL     1       0.116   9.411  21.877  0.00  0.00    +0.000 A 
ATOM      6  C   UNL     1       1.076   8.515  21.359  0.00  0.00    +0.000 A 
ENDROOT
BRANCH   1   9
ATOM      7  O   UNL     1       1.588   5.661  20.602  0.00  0.00    +0.000 OA
ATOM      8  C   UNL     1       2.360   6.248  19.853  0.00  0.00    +0.000 C 
ATOM      9  N   UNL     1       2.331   7.586  19.494  0.00  0.00    +0.000 N 
ATOM     10  H   UNL     1       3.043   7.922  18.860  0.00  0.00    +0.000 HD
BRANCH   8  11
ATOM     11  C   UNL     1       3.487   5.504  19.227  0.00  0.00    +0.000 C 
ATOM     12  C   UNL     1       4.269   6.145  18.346  0.00  0.00    +0.000 C 
BRANCH  12  13
ATOM     13  C   UNL     1       5.419   5.492  17.731  0.00  0.00    +0.000 A 
ATOM     14  C   UNL     1       6.596   5.289  18.448  0.00  0.00    +0.000 A 
ATOM     15  C   UNL     1       7.663   4.702  17.791  0.00  0.00    +0.000 A 
ATOM     16  N   UNL     1       7.630   4.314  16.498  0.00  0.00    +0.000 NA
ATOM     17  C   UNL     1       6.471   4.511  15.833  0.00  0.00    +0.000 A 
ATOM     18  C   UNL     1       5.349   5.088  16.399  0.00  0.00    +0.000 A 
ENDBRANCH  12  13
ENDBRANCH   8  11
ENDBRANCH   1   9
BRANCH   4  19
ATOM     19  N   UNL     1      -1.504  11.209  21.571  0.00  0.00    +0.000 N 
ATOM     20  C   UNL     1      -1.281  12.312  22.389  0.00  0.00    +0.000 C 
ATOM     21  O   UNL     1      -0.181  12.717  22.757  0.00  0.00    +0.000 OA
ATOM     22  H   UNL     1      -2.455  11.019  21.275  0.00  0.00    +0.000 HD
BRANCH  20  23
ATOM     23  C   UNL     1      -2.446  13.096  22.880  0.00  0.00    +0.000 A 
ATOM     24  C   UNL     1      -3.381  12.417  23.689  0.00  0.00    +0.000 A 
ATOM     25  C   UNL     1      -4.522  13.064  24.159  0.00  0.00    +0.000 A 
ATOM     26  C   UNL     1      -4.731  14.393  23.826  0.00  0.00    +0.000 A 
ATOM     27  F   UNL     1      -5.834  15.012  24.262  0.00  0.00    +0.000 F 
ATOM     28  C   UNL     1      -3.815  15.090  23.045  0.00  0.00    +0.000 A 
ATOM     29  C   UNL     1      -2.674  14.437  22.576  0.00  0.00    +0.000 A 
ATOM     30  F   UNL     1      -1.806  15.131  21.825  0.00  0.00    +0.000 F 
ENDBRANCH  20  23
ENDBRANCH   4  19
TORSDOF 5
ENDMDL
MODEL 9
REMARK VINA RESULT:      -7.5      4.385     11.679
REMARK  Name = 
REMARK  5 active torsions:
REMARK  status: ('A' for Active; 'I' for Inactive)
REMARK    1  A    between atoms: C_2  and  C_3
REMARK    2  A    between atoms: C_4  and  C_5
REMARK    3  A    between atoms: N_11  and  C_12
REMARK    4  A    between atoms: C_15  and  N_16
REMARK    5  A    between atoms: C_17  and  C_19
REMARK                            x       y       z     vdW  Elec       q    Type
REMARK                         _______ _______ _______ _____ _____    ______ ____
ROOT
ATOM      1  C   UNL     1      -0.015  10.137  19.936  0.00  0.00    +0.000 A 
ATOM      2  C   UNL     1       0.190  10.242  18.567  0.00  0.00    +0.000 A 
ATOM      3  C   UNL     1       1.148   9.462  17.923  0.00  0.00    +0.000 A 
ATOM      4  C   UNL     1       1.942   8.552  18.618  0.00  0.00    +0.000 A 
ATOM      5  C   UNL     1       1.697   8.391  19.987  0.00  0.00    +0.000 A 
ATOM      6  C   UNL     1       0.725   9.177  20.641  0.00  0.00    +0.000 A 
ENDROOT
BRANCH   1   9
ATOM      7  O   UNL     1       0.578  12.422  21.727  0.00  0.00    +0.000 OA
ATOM      8  C   UNL     1      -0.551  12.009  21.491  0.00  0.00    +0.000 C 
ATOM      9  N   UNL     1      -0.910  10.979  20.637  0.00  0.00    +0.000 N 
ATOM     10  H   UNL     1      -1.893  10.756  20.549  0.00  0.00    +0.000 HD
BRANCH   8  11
ATOM     11  C   UNL     1      -1.720  12.633  22.170  0.00  0.00    +0.000 C 
ATOM     12  C   UNL     1      -2.916  12.585  21.564  0.00  0.00    +0.000 C 
BRANCH  12  13
ATOM     13  C   UNL     1      -4.111  13.134  22.193  0.00  0.00    +0.000 A 
ATOM     14  C   UNL     1      -4.015  14.039  23.247  0.00  0.00    +0.000 A 
ATOM     15  C   UNL     1      -5.189  14.488  23.826  0.00  0.00    +0.000 A 
ATOM     16  N   UNL     1      -6.421  14.101  23.429  0.00  0.00    +0.000 NA
ATOM     17  C   UNL     1      -6.483  13.234  22.395  0.00  0.00    +0.000 A 
ATOM     18  C   UNL     1      -5.369  12.728  21.749  0.00  0.00    +0.000 A 
ENDBRANCH  12  13
ENDBRANCH   8  11
ENDBRANCH   1   9
BRANCH   4  19
ATOM     19  N   UNL     1       2.973   7.806  17.991  0.00  0.00    +0.000 N 
ATOM     20  C   UNL     1       3.147   6.430  18.112  0.00  0.00    +0.000 C 
ATOM     21  O   UNL     1       2.425   5.675  18.758  0.00  0.00    +0.000 OA
ATOM     22  H   UNL     1       3.593   8.312  17.368  0.00  0.00    +0.000 HD
BRANCH  20  23
ATOM     23  C   UNL     1       4.289   5.781  17.413  0.00  0.00    +0.000 A 
ATOM     24  C   UNL     1       5.494   6.510  17.341  0.00  0.00    +0.000 A 
ATOM     25  C   UNL     1       6.601   5.995  16.671  0.00  0.00    +0.000 A 
ATOM     26  C   UNL     1       6.511   4.747  16.075  0.00  0.00    +0.000 A 
ATOM     27  F   UNL     1       7.567   4.257  15.417  0.00  0.00    +0.000 F 
ATOM     28  C   UNL     1       5.339   4.000  16.147  0.00  0.00    +0.000 A 
ATOM     29  C   UNL     1       4.232   4.522  16.820  0.00  0.00    +0.000 A 
ATOM     30  F   UNL     1       3.115   3.783  16.876  0.00  0.00    +0.000 F 
ENDBRANCH  20  23
ENDBRANCH   4  19
TORSDOF 5
ENDMDL
