MODEL 1
REMARK VINA RESULT:      -8.5      0.000      0.000
REMARK  Name = 
REMARK  11 active torsions:
REMARK  status: ('A' for Active; 'I' for Inactive)
REMARK    1  A    between atoms: C_1  and  C_2
REMARK    2  A    between atoms: C_2  and  N_3
REMARK    3  A    between atoms: N_3  and  C_4
REMARK    4  A    between atoms: N_3  and  C_6
REMARK    5  A    between atoms: C_4  and  C_5
REMARK    6  A    between atoms: C_6  and  C_7
REMARK    7  A    between atoms: C_7  and  C_8
REMARK    8  A    between atoms: C_8  and  N_9
REMARK    9  A    between atoms: C_8  and  C_29
REMARK   10  A    between atoms: C_18  and  C_19
REMARK   11  A    between atoms: C_23  and  C_24
REMARK                            x       y       z     vdW  Elec       q    Type
REMARK                         _______ _______ _______ _____ _____    ______ ____
ROOT
ATOM      1  N   UNL     1       2.501   7.501  18.316  0.00  0.00    +0.000 N 
ATOM      2  C   UNL     1       1.775   8.362  19.096  0.00  0.00    +0.000 C 
ATOM      3  O   UNL     1       1.728   8.281  20.323  0.00  0.00    +0.000 OA
ATOM      4  N   UNL     1       1.065   9.277  18.357  0.00  0.00    +0.000 N 
ATOM      5  C   UNL     1       0.275  10.226  19.016  0.00  0.00    +0.000 A 
ATOM      6  C   UNL     1       0.834  11.023  20.013  0.00  0.00    +0.000 A 
ATOM      7  C   UNL     1      -0.029  11.959  20.575  0.00  0.00    +0.000 A 
ATOM      8  N   UNL     1       0.170  12.930  21.512  0.00  0.00    +0.000 N 
ATOM      9  N   UNL     1      -0.926  13.656  21.788  0.00  0.00    +0.000 NA
ATOM     10  C   UNL     1      -1.891  13.111  21.025  0.00  0.00    +0.000 A 
ATOM     11  C   UNL     1      -1.365  12.052  20.218  0.00  0.00    +0.000 A 
ATOM     12  C   UNL     1      -1.842  11.189  19.223  0.00  0.00    +0.000 A 
ATOM     13  N   UNL     1      -1.002  10.320  18.598  0.00  0.00    +0.000 NA
ATOM     14  H   UNL     1       2.823   7.859  17.437  0.00  0.00    +0.000 HD
ATOM     15  H   UNL     1       0.613   8.889  17.542  0.00  0.00    +0.000 HD
ATOM     16  H   UNL     1       1.035  13.169  21.980  0.00  0.00    +0.000 HD
ENDROOT
BRANCH  10  17
ATOM     17  C   UNL     1      -3.257  13.639  21.062  0.00  0.00    +0.000 A 
ATOM     18  C   UNL     1      -3.493  15.007  20.915  0.00  0.00    +0.000 A 
ATOM     19  C   UNL     1      -4.803  15.453  20.923  0.00  0.00    +0.000 A 
ATOM     20  N   UNL     1      -5.874  14.643  21.064  0.00  0.00    +0.000 NA
ATOM     21  C   UNL     1      -5.633  13.322  21.229  0.00  0.00    +0.000 A 
ATOM     22  C   UNL     1      -6.815  12.415  21.400  0.00  0.00    +0.000 C 
ATOM     23  C   UNL     1      -4.349  12.789  21.243  0.00  0.00    +0.000 A 
ENDBRANCH  10  17
BRANCH   1  24
ATOM     24  C   UNL     1       3.230   6.369  18.897  0.00  0.00    +0.000 C 
BRANCH  24  25
ATOM     25  C   UNL     1       2.328   5.144  19.119  0.00  0.00    +0.000 A 
ATOM     26  C   UNL     1       1.922   4.309  18.057  0.00  0.00    +0.000 A 
ATOM     27  C   UNL     1       1.145   3.173  18.274  0.00  0.00    +0.000 A 
ATOM     28  C   UNL     1       0.739   2.847  19.560  0.00  0.00    +0.000 A 
ATOM     29  C   UNL     1       1.108   3.666  20.628  0.00  0.00    +0.000 A 
ATOM     30  C   UNL     1       1.894   4.804  20.410  0.00  0.00    +0.000 A 
ENDBRANCH  24  25
BRANCH  24  31
ATOM     31  C   UNL     1       4.511   6.038  18.100  0.00  0.00    +0.000 C 
BRANCH  31  32
ATOM     32  C   UNL     1       4.838   6.955  16.917  0.00  0.00    +0.000 C 
BRANCH  32  33
ATOM     33  N   UNL     1       5.982   6.533  16.081  0.00  0.00    +0.000 NA
BRANCH  33  35
ATOM     34  C   UNL     1       7.724   7.601  17.592  0.00  0.00    +0.000 C 
ATOM     35  C   UNL     1       7.195   6.352  16.900  0.00  0.00    +0.000 C 
ENDBRANCH  33  35
BRANCH  33  36
ATOM     36  C   UNL     1       5.628   5.339  15.286  0.00  0.00    +0.000 C 
ATOM     37  C   UNL     1       6.612   4.170  15.352  0.00  0.00    +0.000 C 
ENDBRANCH  33  36
ENDBRANCH  32  33
ENDBRANCH  31  32
ENDBRANCH  24  31
ENDBRANCH   1  24
TORSDOF 8
ENDMDL
MODEL 2
REMARK VINA RESULT:      -8.5      0.723      1.096
REMARK  Name = 
REMARK  11 active torsions:
REMARK  status: ('A' for Active; 'I' for Inactive)
REMARK    1  A    between atoms: C_1  and  C_2
REMARK    2  A    between atoms: C_2  and  N_3
REMARK    3  A    between atoms: N_3  and  C_4
REMARK    4  A    between atoms: N_3  and  C_6
REMARK    5  A    between atoms: C_4  and  C_5
REMARK    6  A    between atoms: C_6  and  C_7
REMARK    7  A    between atoms: C_7  and  C_8
REMARK    8  A    between atoms: C_8  and  N_9
REMARK    9  A    between atoms: C_8  and  C_29
REMARK   10  A    between atoms: C_18  and  C_19
REMARK   11  A    between atoms: C_23  and  C_24
REMARK                            x       y       z     vdW  Elec       q    Type
REMARK                         _______ _______ _______ _____ _____    ______ ____
ROOT
ATOM      1  N   UNL     1       2.781   7.435  18.334  0.00  0.00    +0.000 N 
ATOM      2  C   UNL     1       1.933   8.246  19.040  0.00  0.00    +0.000 C 
ATOM      3  O   UNL     1       1.724   8.115  20.245  0.00  0.00    +0.000 OA
ATOM      4  N   UNL     1       1.301   9.173  18.246  0.00  0.00    +0.000 N 
ATOM      5  C   UNL     1       0.402  10.075  18.827  0.00  0.00    +0.000 A 
ATOM      6  C   UNL     1       0.799  10.845  19.919  0.00  0.00    +0.000 A 
ATOM      7  C   UNL     1      -0.158  11.736  20.393  0.00  0.00    +0.000 A 
ATOM      8  N   UNL     1      -0.114  12.673  21.383  0.00  0.00    +0.000 N 
ATOM      9  N   UNL     1      -1.258  13.361  21.536  0.00  0.00    +0.000 NA
ATOM     10  C   UNL     1      -2.097  12.823  20.631  0.00  0.00    +0.000 A 
ATOM     11  C   UNL     1      -1.437  11.811  19.864  0.00  0.00    +0.000 A 
ATOM     12  C   UNL     1      -1.751  10.977  18.783  0.00  0.00    +0.000 A 
ATOM     13  N   UNL     1      -0.811  10.154  18.245  0.00  0.00    +0.000 NA
ATOM     14  H   UNL     1       3.206   7.836  17.519  0.00  0.00    +0.000 HD
ATOM     15  H   UNL     1       0.973   8.806  17.365  0.00  0.00    +0.000 HD
ATOM     16  H   UNL     1       0.673  12.914  21.971  0.00  0.00    +0.000 HD
ENDROOT
BRANCH  10  17
ATOM     17  C   UNL     1      -3.470  13.316  20.503  0.00  0.00    +0.000 A 
ATOM     18  C   UNL     1      -3.834  14.552  21.038  0.00  0.00    +0.000 A 
ATOM     19  C   UNL     1      -5.135  14.990  20.863  0.00  0.00    +0.000 A 
ATOM     20  N   UNL     1      -6.081  14.289  20.201  0.00  0.00    +0.000 NA
ATOM     21  C   UNL     1      -5.726  13.082  19.707  0.00  0.00    +0.000 A 
ATOM     22  C   UNL     1      -6.772  12.290  18.981  0.00  0.00    +0.000 C 
ATOM     23  C   UNL     1      -4.443  12.562  19.846  0.00  0.00    +0.000 A 
ENDBRANCH  10  17
BRANCH   1  24
ATOM     24  C   UNL     1       3.459   6.299  18.965  0.00  0.00    +0.000 C 
BRANCH  24  25
ATOM     25  C   UNL     1       2.542   5.073  19.103  0.00  0.00    +0.000 A 
ATOM     26  C   UNL     1       1.977   4.694  20.339  0.00  0.00    +0.000 A 
ATOM     27  C   UNL     1       1.107   3.610  20.445  0.00  0.00    +0.000 A 
ATOM     28  C   UNL     1       0.789   2.865  19.319  0.00  0.00    +0.000 A 
ATOM     29  C   UNL     1       1.349   3.204  18.087  0.00  0.00    +0.000 A 
ATOM     30  C   UNL     1       2.218   4.296  17.979  0.00  0.00    +0.000 A 
ENDBRANCH  24  25
BRANCH  24  31
ATOM     31  C   UNL     1       4.803   5.974  18.276  0.00  0.00    +0.000 C 
BRANCH  31  32
ATOM     32  C   UNL     1       4.926   6.358  16.798  0.00  0.00    +0.000 C 
BRANCH  32  33
ATOM     33  N   UNL     1       6.305   6.440  16.274  0.00  0.00    +0.000 NA
BRANCH  33  35
ATOM     34  C   UNL     1       7.785   8.053  17.566  0.00  0.00    +0.000 C 
ATOM     35  C   UNL     1       7.274   6.632  17.370  0.00  0.00    +0.000 C 
ENDBRANCH  33  35
BRANCH  33  36
ATOM     36  C   UNL     1       6.606   5.271  15.423  0.00  0.00    +0.000 C 
ATOM     37  C   UNL     1       5.538   4.178  15.378  0.00  0.00    +0.000 C 
ENDBRANCH  33  36
ENDBRANCH  32  33
ENDBRANCH  31  32
ENDBRANCH  24  31
ENDBRANCH   1  24
TORSDOF 8
ENDMDL
MODEL 3
REMARK VINA RESULT:      -8.4      0.629      1.408
REMARK  Name = 
REMARK  11 active torsions:
REMARK  status: ('A' for Active; 'I' for Inactive)
REMARK    1  A    between atoms: C_1  and  C_2
REMARK    2  A    between atoms: C_2  and  N_3
REMARK    3  A    between atoms: N_3  and  C_4
REMARK    4  A    between atoms: N_3  and  C_6
REMARK    5  A    between atoms: C_4  and  C_5
REMARK    6  A    between atoms: C_6  and  C_7
REMARK    7  A    between atoms: C_7  and  C_8
REMARK    8  A    between atoms: C_8  and  N_9
REMARK    9  A    between atoms: C_8  and  C_29
REMARK   10  A    between atoms: C_18  and  C_19
REMARK   11  A    between atoms: C_23  and  C_24
REMARK                            x       y       z     vdW  Elec       q    Type
REMARK                         _______ _______ _______ _____ _____    ______ ____
ROOT
ATOM      1  N   UNL     1       2.581   7.528  18.037  0.00  0.00    +0.000 N 
ATOM      2  C   UNL     1       1.827   8.357  18.825  0.00  0.00    +0.000 C 
ATOM      3  O   UNL     1       1.755   8.241  20.048  0.00  0.00    +0.000 OA
ATOM      4  N   UNL     1       1.120   9.282  18.097  0.00  0.00    +0.000 N 
ATOM      5  C   UNL     1       0.302  10.202  18.765  0.00  0.00    +0.000 A 
ATOM      6  C   UNL     1       0.829  10.978  19.795  0.00  0.00    +0.000 A 
ATOM      7  C   UNL     1      -0.060  11.885  20.364  0.00  0.00    +0.000 A 
ATOM      8  N   UNL     1       0.106  12.832  21.332  0.00  0.00    +0.000 N 
ATOM      9  N   UNL     1      -1.006  13.535  21.605  0.00  0.00    +0.000 NA
ATOM     10  C   UNL     1      -1.948  12.998  20.807  0.00  0.00    +0.000 A 
ATOM     11  C   UNL     1      -1.389  11.970  19.982  0.00  0.00    +0.000 A 
ATOM     12  C   UNL     1      -1.832  11.129  18.953  0.00  0.00    +0.000 A 
ATOM     13  N   UNL     1      -0.968  10.289  18.322  0.00  0.00    +0.000 NA
ATOM     14  H   UNL     1       2.916   7.915  17.176  0.00  0.00    +0.000 HD
ATOM     15  H   UNL     1       0.691   8.911  17.262  0.00  0.00    +0.000 HD
ATOM     16  H   UNL     1       0.957  13.070  21.825  0.00  0.00    +0.000 HD
ENDROOT
BRANCH  10  17
ATOM     17  C   UNL     1      -3.321  13.506  20.829  0.00  0.00    +0.000 A 
ATOM     18  C   UNL     1      -3.570  14.879  20.825  0.00  0.00    +0.000 A 
ATOM     19  C   UNL     1      -4.885  15.310  20.813  0.00  0.00    +0.000 A 
ATOM     20  N   UNL     1      -5.949  14.478  20.803  0.00  0.00    +0.000 NA
ATOM     21  C   UNL     1      -5.698  13.150  20.831  0.00  0.00    +0.000 A 
ATOM     22  C   UNL     1      -6.873  12.218  20.833  0.00  0.00    +0.000 C 
ATOM     23  C   UNL     1      -4.408  12.631  20.854  0.00  0.00    +0.000 A 
ENDBRANCH  10  17
BRANCH   1  24
ATOM     24  C   UNL     1       3.314   6.390  18.602  0.00  0.00    +0.000 C 
BRANCH  24  25
ATOM     25  C   UNL     1       2.395   5.200  18.915  0.00  0.00    +0.000 A 
ATOM     26  C   UNL     1       1.877   4.365  17.902  0.00  0.00    +0.000 A 
ATOM     27  C   UNL     1       1.084   3.258  18.200  0.00  0.00    +0.000 A 
ATOM     28  C   UNL     1       0.774   2.962  19.519  0.00  0.00    +0.000 A 
ATOM     29  C   UNL     1       1.255   3.782  20.540  0.00  0.00    +0.000 A 
ATOM     30  C   UNL     1       2.056   4.891  20.242  0.00  0.00    +0.000 A 
ENDBRANCH  24  25
BRANCH  24  31
ATOM     31  C   UNL     1       4.532   6.001  17.734  0.00  0.00    +0.000 C 
BRANCH  31  32
ATOM     32  C   UNL     1       5.644   5.209  18.430  0.00  0.00    +0.000 C 
BRANCH  32  33
ATOM     33  N   UNL     1       6.981   5.308  17.808  0.00  0.00    +0.000 NA
BRANCH  33  35
ATOM     34  C   UNL     1       6.725   4.262  15.507  0.00  0.00    +0.000 C 
ATOM     35  C   UNL     1       6.871   5.519  16.352  0.00  0.00    +0.000 C 
ENDBRANCH  33  35
BRANCH  33  36
ATOM     36  C   UNL     1       7.793   6.337  18.489  0.00  0.00    +0.000 C 
ATOM     37  C   UNL     1       7.833   7.713  17.825  0.00  0.00    +0.000 C 
ENDBRANCH  33  36
ENDBRANCH  32  33
ENDBRANCH  31  32
ENDBRANCH  24  31
ENDBRANCH   1  24
TORSDOF 8
ENDMDL
MODEL 4
REMARK VINA RESULT:      -8.3      0.369      1.190
REMARK  Name = 
REMARK  11 active torsions:
REMARK  status: ('A' for Active; 'I' for Inactive)
REMARK    1  A    between atoms: C_1  and  C_2
REMARK    2  A    between atoms: C_2  and  N_3
REMARK    3  A    between atoms: N_3  and  C_4
REMARK    4  A    between atoms: N_3  and  C_6
REMARK    5  A    between atoms: C_4  and  C_5
REMARK    6  A    between atoms: C_6  and  C_7
REMARK    7  A    between atoms: C_7  and  C_8
REMARK    8  A    between atoms: C_8  and  N_9
REMARK    9  A    between atoms: C_8  and  C_29
REMARK   10  A    between atoms: C_18  and  C_19
REMARK   11  A    between atoms: C_23  and  C_24
REMARK                            x       y       z     vdW  Elec       q    Type
REMARK                         _______ _______ _______ _____ _____    ______ ____
ROOT
ATOM      1  N   UNL     1       2.617   7.448  18.440  0.00  0.00    +0.000 N 
ATOM      2  C   UNL     1       1.864   8.298  19.206  0.00  0.00    +0.000 C 
ATOM      3  O   UNL     1       1.760   8.190  20.427  0.00  0.00    +0.000 OA
ATOM      4  N   UNL     1       1.197   9.238  18.458  0.00  0.00    +0.000 N 
ATOM      5  C   UNL     1       0.386  10.179  19.102  0.00  0.00    +0.000 A 
ATOM      6  C   UNL     1       0.906  10.947  20.142  0.00  0.00    +0.000 A 
ATOM      7  C   UNL     1       0.026  11.878  20.686  0.00  0.00    +0.000 A 
ATOM      8  N   UNL     1       0.191  12.824  21.654  0.00  0.00    +0.000 N 
ATOM      9  N   UNL     1      -0.910  13.555  21.897  0.00  0.00    +0.000 NA
ATOM     10  C   UNL     1      -1.844  13.037  21.079  0.00  0.00    +0.000 A 
ATOM     11  C   UNL     1      -1.291  11.992  20.272  0.00  0.00    +0.000 A 
ATOM     12  C   UNL     1      -1.730  11.158  19.236  0.00  0.00    +0.000 A 
ATOM     13  N   UNL     1      -0.871  10.295  18.629  0.00  0.00    +0.000 NA
ATOM     14  H   UNL     1       2.982   7.824  17.585  0.00  0.00    +0.000 HD
ATOM     15  H   UNL     1       0.779   8.873  17.615  0.00  0.00    +0.000 HD
ATOM     16  H   UNL     1       1.036  13.044  22.167  0.00  0.00    +0.000 HD
ENDROOT
BRANCH  10  17
ATOM     17  C   UNL     1      -3.205  13.578  21.067  0.00  0.00    +0.000 A 
ATOM     18  C   UNL     1      -4.301  12.751  21.319  0.00  0.00    +0.000 A 
ATOM     19  C   UNL     1      -5.564  13.315  21.329  0.00  0.00    +0.000 A 
ATOM     20  N   UNL     1      -5.805  14.625  21.108  0.00  0.00    +0.000 NA
ATOM     21  C   UNL     1      -4.739  15.414  20.841  0.00  0.00    +0.000 A 
ATOM     22  C   UNL     1      -4.997  16.869  20.582  0.00  0.00    +0.000 C 
ATOM     23  C   UNL     1      -3.437  14.929  20.803  0.00  0.00    +0.000 A 
ENDBRANCH  10  17
BRANCH   1  24
ATOM     24  C   UNL     1       3.309   6.296  19.026  0.00  0.00    +0.000 C 
BRANCH  24  25
ATOM     25  C   UNL     1       2.383   5.081  19.192  0.00  0.00    +0.000 A 
ATOM     26  C   UNL     1       1.991   4.282  18.097  0.00  0.00    +0.000 A 
ATOM     27  C   UNL     1       1.191   3.152  18.263  0.00  0.00    +0.000 A 
ATOM     28  C   UNL     1       0.749   2.797  19.529  0.00  0.00    +0.000 A 
ATOM     29  C   UNL     1       1.104   3.581  20.628  0.00  0.00    +0.000 A 
ATOM     30  C   UNL     1       1.912   4.712  20.461  0.00  0.00    +0.000 A 
ENDBRANCH  24  25
BRANCH  24  31
ATOM     31  C   UNL     1       4.615   5.962  18.271  0.00  0.00    +0.000 C 
BRANCH  31  32
ATOM     32  C   UNL     1       4.681   6.381  16.799  0.00  0.00    +0.000 C 
BRANCH  32  33
ATOM     33  N   UNL     1       6.038   6.446  16.216  0.00  0.00    +0.000 NA
BRANCH  33  35
ATOM     34  C   UNL     1       7.715   7.817  17.547  0.00  0.00    +0.000 C 
ATOM     35  C   UNL     1       7.066   6.467  17.275  0.00  0.00    +0.000 C 
ENDBRANCH  33  35
BRANCH  33  36
ATOM     36  C   UNL     1       6.231   5.361  15.233  0.00  0.00    +0.000 C 
ATOM     37  C   UNL     1       5.821   3.960  15.686  0.00  0.00    +0.000 C 
ENDBRANCH  33  36
ENDBRANCH  32  33
ENDBRANCH  31  32
ENDBRANCH  24  31
ENDBRANCH   1  24
TORSDOF 8
ENDMDL
MODEL 5
REMARK VINA RESULT:      -8.2      0.906      1.253
REMARK  Name = 
REMARK  11 active torsions:
REMARK  status: ('A' for Active; 'I' for Inactive)
REMARK    1  A    between atoms: C_1  and  C_2
REMARK    2  A    between atoms: C_2  and  N_3
REMARK    3  A    between atoms: N_3  and  C_4
REMARK    4  A    between atoms: N_3  and  C_6
REMARK    5  A    between atoms: C_4  and  C_5
REMARK    6  A    between atoms: C_6  and  C_7
REMARK    7  A    between atoms: C_7  and  C_8
REMARK    8  A    between atoms: C_8  and  N_9
REMARK    9  A    between atoms: C_8  and  C_29
REMARK   10  A    between atoms: C_18  and  C_19
REMARK   11  A    between atoms: C_23  and  C_24
REMARK                            x       y       z     vdW  Elec       q    Type
REMARK                         _______ _______ _______ _____ _____    ______ ____
ROOT
ATOM      1  N   UNL     1       2.242   8.038  17.571  0.00  0.00    +0.000 N 
ATOM      2  C   UNL     1       1.534   8.860  18.406  0.00  0.00    +0.000 C 
ATOM      3  O   UNL     1       1.675   8.861  19.628  0.00  0.00    +0.000 OA
ATOM      4  N   UNL     1       0.614   9.631  17.737  0.00  0.00    +0.000 N 
ATOM      5  C   UNL     1      -0.187  10.524  18.459  0.00  0.00    +0.000 A 
ATOM      6  C   UNL     1       0.405  11.450  19.316  0.00  0.00    +0.000 A 
ATOM      7  C   UNL     1      -0.480  12.315  19.953  0.00  0.00    +0.000 A 
ATOM      8  N   UNL     1      -0.272  13.366  20.797  0.00  0.00    +0.000 N 
ATOM      9  N   UNL     1      -1.400  13.975  21.199  0.00  0.00    +0.000 NA
ATOM     10  C   UNL     1      -2.388  13.268  20.622  0.00  0.00    +0.000 A 
ATOM     11  C   UNL     1      -1.854  12.224  19.800  0.00  0.00    +0.000 A 
ATOM     12  C   UNL     1      -2.357  11.243  18.936  0.00  0.00    +0.000 A 
ATOM     13  N   UNL     1      -1.513  10.437  18.236  0.00  0.00    +0.000 NA
ATOM     14  H   UNL     1       2.385   8.369  16.635  0.00  0.00    +0.000 HD
ATOM     15  H   UNL     1       0.102   9.136  17.023  0.00  0.00    +0.000 HD
ATOM     16  H   UNL     1       0.614  13.737  21.116  0.00  0.00    +0.000 HD
ENDROOT
BRANCH  10  17
ATOM     17  C   UNL     1      -3.790  13.633  20.839  0.00  0.00    +0.000 A 
ATOM     18  C   UNL     1      -4.168  14.972  20.937  0.00  0.00    +0.000 A 
ATOM     19  C   UNL     1      -5.509  15.268  21.108  0.00  0.00    +0.000 A 
ATOM     20  N   UNL     1      -6.481  14.334  21.186  0.00  0.00    +0.000 NA
ATOM     21  C   UNL     1      -6.103  13.038  21.114  0.00  0.00    +0.000 A 
ATOM     22  C   UNL     1      -7.173  11.992  21.212  0.00  0.00    +0.000 C 
ATOM     23  C   UNL     1      -4.776  12.652  20.951  0.00  0.00    +0.000 A 
ENDBRANCH  10  17
BRANCH   1  24
ATOM     24  C   UNL     1       3.185   7.043  18.091  0.00  0.00    +0.000 C 
BRANCH  24  25
ATOM     25  C   UNL     1       2.474   5.810  18.670  0.00  0.00    +0.000 A 
ATOM     26  C   UNL     1       2.195   5.683  20.047  0.00  0.00    +0.000 A 
ATOM     27  C   UNL     1       1.505   4.584  20.556  0.00  0.00    +0.000 A 
ATOM     28  C   UNL     1       1.088   3.572  19.704  0.00  0.00    +0.000 A 
ATOM     29  C   UNL     1       1.369   3.661  18.340  0.00  0.00    +0.000 A 
ATOM     30  C   UNL     1       2.057   4.768  17.828  0.00  0.00    +0.000 A 
ENDBRANCH  24  25
BRANCH  24  31
ATOM     31  C   UNL     1       4.274   6.683  17.056  0.00  0.00    +0.000 C 
BRANCH  31  32
ATOM     32  C   UNL     1       5.716   6.628  17.569  0.00  0.00    +0.000 C 
BRANCH  32  33
ATOM     33  N   UNL     1       6.643   5.794  16.776  0.00  0.00    +0.000 NA
BRANCH  33  35
ATOM     34  C   UNL     1       7.830   5.509  19.004  0.00  0.00    +0.000 C 
ATOM     35  C   UNL     1       7.450   4.923  17.651  0.00  0.00    +0.000 C 
ENDBRANCH  33  35
BRANCH  33  36
ATOM     36  C   UNL     1       5.907   5.054  15.730  0.00  0.00    +0.000 C 
ATOM     37  C   UNL     1       6.759   4.383  14.653  0.00  0.00    +0.000 C 
ENDBRANCH  33  36
ENDBRANCH  32  33
ENDBRANCH  31  32
ENDBRANCH  24  31
ENDBRANCH   1  24
TORSDOF 8
ENDMDL
MODEL 6
REMARK VINA RESULT:      -8.2      0.635      1.784
REMARK  Name = 
REMARK  11 active torsions:
REMARK  status: ('A' for Active; 'I' for Inactive)
REMARK    1  A    between atoms: C_1  and  C_2
REMARK    2  A    between atoms: C_2  and  N_3
REMARK    3  A    between atoms: N_3  and  C_4
REMARK    4  A    between atoms: N_3  and  C_6
REMARK    5  A    between atoms: C_4  and  C_5
REMARK    6  A    between atoms: C_6  and  C_7
REMARK    7  A    between atoms: C_7  and  C_8
REMARK    8  A    between atoms: C_8  and  N_9
REMARK    9  A    between atoms: C_8  and  C_29
REMARK   10  A    between atoms: C_18  and  C_19
REMARK   11  A    between atoms: C_23  and  C_24
REMARK                            x       y       z     vdW  Elec       q    Type
REMARK                         _______ _______ _______ _____ _____    ______ ____
ROOT
ATOM      1  N   UNL     1       2.519   7.642  18.074  0.00  0.00    +0.000 N 
ATOM      2  C   UNL     1       1.809   8.470  18.902  0.00  0.00    +0.000 C 
ATOM      3  O   UNL     1       1.805   8.355  20.127  0.00  0.00    +0.000 OA
ATOM      4  N   UNL     1       1.062   9.395  18.214  0.00  0.00    +0.000 N 
ATOM      5  C   UNL     1       0.282  10.314  18.926  0.00  0.00    +0.000 A 
ATOM      6  C   UNL     1       0.864  11.091  19.926  0.00  0.00    +0.000 A 
ATOM      7  C   UNL     1       0.008  11.998  20.543  0.00  0.00    +0.000 A 
ATOM      8  N   UNL     1       0.226  12.945  21.500  0.00  0.00    +0.000 N 
ATOM      9  N   UNL     1      -0.869  13.648  21.834  0.00  0.00    +0.000 NA
ATOM     10  C   UNL     1      -1.853  13.110  21.089  0.00  0.00    +0.000 A 
ATOM     11  C   UNL     1      -1.340  12.082  20.235  0.00  0.00    +0.000 A 
ATOM     12  C   UNL     1      -1.839  11.240  19.233  0.00  0.00    +0.000 A 
ATOM     13  N   UNL     1      -1.011  10.401  18.555  0.00  0.00    +0.000 NA
ATOM     14  H   UNL     1       2.805   8.029  17.195  0.00  0.00    +0.000 HD
ATOM     15  H   UNL     1       0.587   9.023  17.405  0.00  0.00    +0.000 HD
ATOM     16  H   UNL     1       1.103  13.184  21.945  0.00  0.00    +0.000 HD
ENDROOT
BRANCH  10  17
ATOM     17  C   UNL     1      -3.223  13.617  21.187  0.00  0.00    +0.000 A 
ATOM     18  C   UNL     1      -4.253  12.796  21.647  0.00  0.00    +0.000 A 
ATOM     19  C   UNL     1      -5.525  13.331  21.754  0.00  0.00    +0.000 A 
ATOM     20  N   UNL     1      -5.833  14.607  21.439  0.00  0.00    +0.000 NA
ATOM     21  C   UNL     1      -4.833  15.389  20.972  0.00  0.00    +0.000 A 
ATOM     22  C   UNL     1      -5.167  16.804  20.607  0.00  0.00    +0.000 C 
ATOM     23  C   UNL     1      -3.528  14.930  20.824  0.00  0.00    +0.000 A 
ENDBRANCH  10  17
BRANCH   1  24
ATOM     24  C   UNL     1       3.282   6.505  18.597  0.00  0.00    +0.000 C 
BRANCH  24  25
ATOM     25  C   UNL     1       2.387   5.299  18.923  0.00  0.00    +0.000 A 
ATOM     26  C   UNL     1       1.932   4.411  17.925  0.00  0.00    +0.000 A 
ATOM     27  C   UNL     1       1.162   3.292  18.236  0.00  0.00    +0.000 A 
ATOM     28  C   UNL     1       0.811   3.037  19.554  0.00  0.00    +0.000 A 
ATOM     29  C   UNL     1       1.229   3.909  20.559  0.00  0.00    +0.000 A 
ATOM     30  C   UNL     1       2.008   5.030  20.248  0.00  0.00    +0.000 A 
ENDBRANCH  24  25
BRANCH  24  31
ATOM     31  C   UNL     1       4.475   6.142  17.685  0.00  0.00    +0.000 C 
BRANCH  31  32
ATOM     32  C   UNL     1       5.592   5.305  18.317  0.00  0.00    +0.000 C 
BRANCH  32  33
ATOM     33  N   UNL     1       6.928   5.462  17.707  0.00  0.00    +0.000 NA
BRANCH  33  35
ATOM     34  C   UNL     1       6.796   4.387  15.408  0.00  0.00    +0.000 C 
ATOM     35  C   UNL     1       6.822   5.656  16.248  0.00  0.00    +0.000 C 
ENDBRANCH  33  35
BRANCH  33  36
ATOM     36  C   UNL     1       7.686   6.532  18.387  0.00  0.00    +0.000 C 
ATOM     37  C   UNL     1       7.786   7.863  17.642  0.00  0.00    +0.000 C 
ENDBRANCH  33  36
ENDBRANCH  32  33
ENDBRANCH  31  32
ENDBRANCH  24  31
ENDBRANCH   1  24
TORSDOF 8
ENDMDL
MODEL 7
REMARK VINA RESULT:      -8.2      2.612      4.638
REMARK  Name = 
REMARK  11 active torsions:
REMARK  status: ('A' for Active; 'I' for Inactive)
REMARK    1  A    between atoms: C_1  and  C_2
REMARK    2  A    between atoms: C_2  and  N_3
REMARK    3  A    between atoms: N_3  and  C_4
REMARK    4  A    between atoms: N_3  and  C_6
REMARK    5  A    between atoms: C_4  and  C_5
REMARK    6  A    between atoms: C_6  and  C_7
REMARK    7  A    between atoms: C_7  and  C_8
REMARK    8  A    between atoms: C_8  and  N_9
REMARK    9  A    between atoms: C_8  and  C_29
REMARK   10  A    between atoms: C_18  and  C_19
REMARK   11  A    between atoms: C_23  and  C_24
REMARK                            x       y       z     vdW  Elec       q    Type
REMARK                         _______ _______ _______ _____ _____    ______ ____
ROOT
ATOM      1  N   UNL     1       2.984   5.911  18.324  0.00  0.00    +0.000 N 
ATOM      2  C   UNL     1       2.660   7.235  18.463  0.00  0.00    +0.000 C 
ATOM      3  O   UNL     1       3.165   8.126  17.782  0.00  0.00    +0.000 OA
ATOM      4  N   UNL     1       1.764   7.458  19.481  0.00  0.00    +0.000 N 
ATOM      5  C   UNL     1       1.336   8.764  19.744  0.00  0.00    +0.000 A 
ATOM      6  C   UNL     1       0.813   9.544  18.714  0.00  0.00    +0.000 A 
ATOM      7  C   UNL     1       0.383  10.812  19.094  0.00  0.00    +0.000 A 
ATOM      8  N   UNL     1      -0.224  11.812  18.393  0.00  0.00    +0.000 N 
ATOM      9  N   UNL     1      -0.503  12.903  19.126  0.00  0.00    +0.000 NA
ATOM     10  C   UNL     1      -0.022  12.617  20.350  0.00  0.00    +0.000 A 
ATOM     11  C   UNL     1       0.522  11.293  20.386  0.00  0.00    +0.000 A 
ATOM     12  C   UNL     1       1.085  10.443  21.347  0.00  0.00    +0.000 A 
ATOM     13  N   UNL     1       1.439   9.170  21.025  0.00  0.00    +0.000 NA
ATOM     14  H   UNL     1       2.276   5.250  18.582  0.00  0.00    +0.000 HD
ATOM     15  H   UNL     1       1.953   6.931  20.320  0.00  0.00    +0.000 HD
ATOM     16  H   UNL     1      -0.504  11.804  17.420  0.00  0.00    +0.000 HD
ENDROOT
BRANCH  10  17
ATOM     17  C   UNL     1      -0.134  13.588  21.440  0.00  0.00    +0.000 A 
ATOM     18  C   UNL     1       0.766  14.651  21.539  0.00  0.00    +0.000 A 
ATOM     19  C   UNL     1       0.598  15.562  22.568  0.00  0.00    +0.000 A 
ATOM     20  N   UNL     1      -0.388  15.486  23.487  0.00  0.00    +0.000 NA
ATOM     21  C   UNL     1      -1.240  14.440  23.397  0.00  0.00    +0.000 A 
ATOM     22  C   UNL     1      -2.331  14.339  24.420  0.00  0.00    +0.000 C 
ATOM     23  C   UNL     1      -1.139  13.474  22.401  0.00  0.00    +0.000 A 
ENDBRANCH  10  17
BRANCH   1  24
ATOM     24  C   UNL     1       4.017   5.469  17.382  0.00  0.00    +0.000 C 
BRANCH  24  25
ATOM     25  C   UNL     1       5.429   5.884  17.825  0.00  0.00    +0.000 A 
ATOM     26  C   UNL     1       6.051   5.328  18.963  0.00  0.00    +0.000 A 
ATOM     27  C   UNL     1       7.351   5.674  19.329  0.00  0.00    +0.000 A 
ATOM     28  C   UNL     1       8.061   6.597  18.574  0.00  0.00    +0.000 A 
ATOM     29  C   UNL     1       7.463   7.178  17.456  0.00  0.00    +0.000 A 
ATOM     30  C   UNL     1       6.159   6.827  17.085  0.00  0.00    +0.000 A 
ENDBRANCH  24  25
BRANCH  24  31
ATOM     31  C   UNL     1       3.902   3.961  17.066  0.00  0.00    +0.000 C 
BRANCH  31  32
ATOM     32  C   UNL     1       2.584   3.279  17.449  0.00  0.00    +0.000 C 
BRANCH  32  33
ATOM     33  N   UNL     1       2.713   2.083  18.307  0.00  0.00    +0.000 NA
BRANCH  33  35
ATOM     34  C   UNL     1       4.120   2.502  20.381  0.00  0.00    +0.000 C 
ATOM     35  C   UNL     1       4.045   2.026  18.936  0.00  0.00    +0.000 C 
ENDBRANCH  33  35
BRANCH  33  36
ATOM     36  C   UNL     1       1.602   2.021  19.279  0.00  0.00    +0.000 C 
ATOM     37  C   UNL     1       0.706   3.257  19.357  0.00  0.00    +0.000 C 
ENDBRANCH  33  36
ENDBRANCH  32  33
ENDBRANCH  31  32
ENDBRANCH  24  31
ENDBRANCH   1  24
TORSDOF 8
ENDMDL
MODEL 8
REMARK VINA RESULT:      -8.2      2.348      4.704
REMARK  Name = 
REMARK  11 active torsions:
REMARK  status: ('A' for Active; 'I' for Inactive)
REMARK    1  A    between atoms: C_1  and  C_2
REMARK    2  A    between atoms: C_2  and  N_3
REMARK    3  A    between atoms: N_3  and  C_4
REMARK    4  A    between atoms: N_3  and  C_6
REMARK    5  A    between atoms: C_4  and  C_5
REMARK    6  A    between atoms: C_6  and  C_7
REMARK    7  A    between atoms: C_7  and  C_8
REMARK    8  A    between atoms: C_8  and  N_9
REMARK    9  A    between atoms: C_8  and  C_29
REMARK   10  A    between atoms: C_18  and  C_19
REMARK   11  A    between atoms: C_23  and  C_24
REMARK                            x       y       z     vdW  Elec       q    Type
REMARK                         _______ _______ _______ _____ _____    ______ ____
ROOT
ATOM      1  N   UNL     1       2.986   6.413  18.428  0.00  0.00    +0.000 N 
ATOM      2  C   UNL     1       2.486   7.685  18.345  0.00  0.00    +0.000 C 
ATOM      3  O   UNL     1       2.747   8.452  17.418  0.00  0.00    +0.000 OA
ATOM      4  N   UNL     1       1.720   8.028  19.433  0.00  0.00    +0.000 N 
ATOM      5  C   UNL     1       1.139   9.300  19.490  0.00  0.00    +0.000 A 
ATOM      6  C   UNL     1       0.362   9.757  18.427  0.00  0.00    +0.000 A 
ATOM      7  C   UNL     1      -0.199  11.018  18.605  0.00  0.00    +0.000 A 
ATOM      8  N   UNL     1      -1.045  11.752  17.827  0.00  0.00    +0.000 N 
ATOM      9  N   UNL     1      -1.381  12.941  18.357  0.00  0.00    +0.000 NA
ATOM     10  C   UNL     1      -0.694  13.000  19.512  0.00  0.00    +0.000 A 
ATOM     11  C   UNL     1       0.046  11.794  19.726  0.00  0.00    +0.000 A 
ATOM     12  C   UNL     1       0.862  11.258  20.731  0.00  0.00    +0.000 A 
ATOM     13  N   UNL     1       1.358   9.996  20.623  0.00  0.00    +0.000 NA
ATOM     14  H   UNL     1       2.431   5.749  18.935  0.00  0.00    +0.000 HD
ATOM     15  H   UNL     1       2.103   7.732  20.318  0.00  0.00    +0.000 HD
ATOM     16  H   UNL     1      -1.455  11.489  16.940  0.00  0.00    +0.000 HD
ENDROOT
BRANCH  10  17
ATOM     17  C   UNL     1      -0.797  14.175  20.380  0.00  0.00    +0.000 A 
ATOM     18  C   UNL     1      -2.013  14.511  20.978  0.00  0.00    +0.000 A 
ATOM     19  C   UNL     1      -2.053  15.610  21.817  0.00  0.00    +0.000 A 
ATOM     20  N   UNL     1      -0.981  16.383  22.096  0.00  0.00    +0.000 NA
ATOM     21  C   UNL     1       0.187  16.064  21.494  0.00  0.00    +0.000 A 
ATOM     22  C   UNL     1       1.380  16.923  21.788  0.00  0.00    +0.000 C 
ATOM     23  C   UNL     1       0.314  14.981  20.630  0.00  0.00    +0.000 A 
ENDBRANCH  10  17
BRANCH   1  24
ATOM     24  C   UNL     1       3.930   5.893  17.435  0.00  0.00    +0.000 C 
BRANCH  24  25
ATOM     25  C   UNL     1       5.394   6.127  17.841  0.00  0.00    +0.000 A 
ATOM     26  C   UNL     1       6.205   7.088  17.202  0.00  0.00    +0.000 A 
ATOM     27  C   UNL     1       7.516   7.329  17.610  0.00  0.00    +0.000 A 
ATOM     28  C   UNL     1       8.058   6.603  18.660  0.00  0.00    +0.000 A 
ATOM     29  C   UNL     1       7.287   5.630  19.298  0.00  0.00    +0.000 A 
ATOM     30  C   UNL     1       5.968   5.393  18.891  0.00  0.00    +0.000 A 
ENDBRANCH  24  25
BRANCH  24  31
ATOM     31  C   UNL     1       3.632   4.421  17.071  0.00  0.00    +0.000 C 
BRANCH  31  32
ATOM     32  C   UNL     1       2.486   3.746  17.831  0.00  0.00    +0.000 C 
BRANCH  32  33
ATOM     33  N   UNL     1       2.665   3.642  19.294  0.00  0.00    +0.000 NA
BRANCH  33  35
ATOM     34  C   UNL     1       1.320   2.805  21.280  0.00  0.00    +0.000 C 
ATOM     35  C   UNL     1       1.362   3.601  19.983  0.00  0.00    +0.000 C 
ENDBRANCH  33  35
BRANCH  33  36
ATOM     36  C   UNL     1       3.541   2.501  19.628  0.00  0.00    +0.000 C 
ATOM     37  C   UNL     1       3.600   1.373  18.598  0.00  0.00    +0.000 C 
ENDBRANCH  33  36
ENDBRANCH  32  33
ENDBRANCH  31  32
ENDBRANCH  24  31
ENDBRANCH   1  24
TORSDOF 8
ENDMDL
MODEL 9
REMARK VINA RESULT:      -8.2      2.545      4.611
REMARK  Name = 
REMARK  11 active torsions:
REMARK  status: ('A' for Active; 'I' for Inactive)
REMARK    1  A    between atoms: C_1  and  C_2
REMARK    2  A    between atoms: C_2  and  N_3
REMARK    3  A    between atoms: N_3  and  C_4
REMARK    4  A    between atoms: N_3  and  C_6
REMARK    5  A    between atoms: C_4  and  C_5
REMARK    6  A    between atoms: C_6  and  C_7
REMARK    7  A    between atoms: C_7  and  C_8
REMARK    8  A    between atoms: C_8  and  N_9
REMARK    9  A    between atoms: C_8  and  C_29
REMARK   10  A    between atoms: C_18  and  C_19
REMARK   11  A    between atoms: C_23  and  C_24
REMARK                            x       y       z     vdW  Elec       q    Type
REMARK                         _______ _______ _______ _____ _____    ______ ____
ROOT
ATOM      1  N   UNL     1       3.090   6.007  18.228  0.00  0.00    +0.000 N 
ATOM      2  C   UNL     1       2.721   7.316  18.389  0.00  0.00    +0.000 C 
ATOM      3  O   UNL     1       3.187   8.234  17.715  0.00  0.00    +0.000 OA
ATOM      4  N   UNL     1       1.829   7.494  19.419  0.00  0.00    +0.000 N 
ATOM      5  C   UNL     1       1.358   8.781  19.705  0.00  0.00    +0.000 A 
ATOM      6  C   UNL     1       0.797   9.555  18.692  0.00  0.00    +0.000 A 
ATOM      7  C   UNL     1       0.326  10.802  19.093  0.00  0.00    +0.000 A 
ATOM      8  N   UNL     1      -0.324  11.789  18.413  0.00  0.00    +0.000 N 
ATOM      9  N   UNL     1      -0.633  12.859  19.164  0.00  0.00    +0.000 NA
ATOM     10  C   UNL     1      -0.129  12.574  20.378  0.00  0.00    +0.000 A 
ATOM     11  C   UNL     1       0.462  11.270  20.390  0.00  0.00    +0.000 A 
ATOM     12  C   UNL     1       1.065  10.427  21.334  0.00  0.00    +0.000 A 
ATOM     13  N   UNL     1       1.460   9.172  20.990  0.00  0.00    +0.000 NA
ATOM     14  H   UNL     1       2.409   5.317  18.484  0.00  0.00    +0.000 HD
ATOM     15  H   UNL     1       2.045   6.962  20.249  0.00  0.00    +0.000 HD
ATOM     16  H   UNL     1      -0.614  11.784  17.443  0.00  0.00    +0.000 HD
ENDROOT
BRANCH  10  17
ATOM     17  C   UNL     1      -0.263  13.526  21.483  0.00  0.00    +0.000 A 
ATOM     18  C   UNL     1       0.672  14.548  21.657  0.00  0.00    +0.000 A 
ATOM     19  C   UNL     1       0.483  15.443  22.695  0.00  0.00    +0.000 A 
ATOM     20  N   UNL     1      -0.556  15.389  23.556  0.00  0.00    +0.000 NA
ATOM     21  C   UNL     1      -1.443  14.381  23.394  0.00  0.00    +0.000 A 
ATOM     22  C   UNL     1      -2.594  14.304  24.352  0.00  0.00    +0.000 C 
ATOM     23  C   UNL     1      -1.325  13.433  22.383  0.00  0.00    +0.000 A 
ENDBRANCH  10  17
BRANCH   1  24
ATOM     24  C   UNL     1       4.127   5.614  17.269  0.00  0.00    +0.000 C 
BRANCH  24  25
ATOM     25  C   UNL     1       5.541   5.962  17.762  0.00  0.00    +0.000 A 
ATOM     26  C   UNL     1       6.337   6.939  17.129  0.00  0.00    +0.000 A 
ATOM     27  C   UNL     1       7.598   7.283  17.613  0.00  0.00    +0.000 A 
ATOM     28  C   UNL     1       8.105   6.648  18.737  0.00  0.00    +0.000 A 
ATOM     29  C   UNL     1       7.349   5.662  19.372  0.00  0.00    +0.000 A 
ATOM     30  C   UNL     1       6.080   5.321  18.889  0.00  0.00    +0.000 A 
ENDBRANCH  24  25
BRANCH  24  31
ATOM     31  C   UNL     1       3.984   4.138  16.837  0.00  0.00    +0.000 C 
BRANCH  31  32
ATOM     32  C   UNL     1       2.914   3.313  17.559  0.00  0.00    +0.000 C 
BRANCH  32  33
ATOM     33  N   UNL     1       3.107   3.157  19.016  0.00  0.00    +0.000 NA
BRANCH  33  35
ATOM     34  C   UNL     1       0.704   2.371  18.752  0.00  0.00    +0.000 C 
ATOM     35  C   UNL     1       1.843   2.780  19.677  0.00  0.00    +0.000 C 
ENDBRANCH  33  35
BRANCH  33  36
ATOM     36  C   UNL     1       4.215   2.220  19.293  0.00  0.00    +0.000 C 
ATOM     37  C   UNL     1       4.514   1.948  20.768  0.00  0.00    +0.000 C 
ENDBRANCH  33  36
ENDBRANCH  32  33
ENDBRANCH  31  32
ENDBRANCH  24  31
ENDBRANCH   1  24
TORSDOF 8
ENDMDL
