MODEL 1
REMARK VINA RESULT:      -8.1      0.000      0.000
REMARK  Name = 
REMARK  9 active torsions:
REMARK  status: ('A' for Active; 'I' for Inactive)
REMARK    1  A    between atoms: C_1  and  C_2
REMARK    2  A    between atoms: C_2  and  C_3
REMARK    3  A    between atoms: C_3  and  N_4
REMARK    4  A    between atoms: N_4  and  C_5
REMARK    5  A    between atoms: N_4  and  C_24
REMARK    6  A    between atoms: C_5  and  C_6
REMARK    7  A    between atoms: C_6  and  C_7
REMARK    8  A    between atoms: C_9  and  N_10
REMARK    9  A    between atoms: C_11  and  C_13
REMARK                            x       y       z     vdW  Elec       q    Type
REMARK                         _______ _______ _______ _____ _____    ______ ____
ROOT
ATOM      1  C   UNL     1      -1.386  10.057  17.832  0.00  0.00    +0.000 C 
ENDROOT
BRANCH   1   2
ATOM      2  C   UNL     1      -0.967  11.181  18.787  0.00  0.00    +0.000 C 
ATOM      3  C   UNL     1      -0.763  10.813  20.282  0.00  0.00    +0.000 C 
ATOM      4  C   UNL     1       0.745  10.629  19.987  0.00  0.00    +0.000 C 
ATOM      5  C   UNL     1       0.537  11.562  18.766  0.00  0.00    +0.000 C 
BRANCH   4   6
ATOM      6  N   UNL     1       1.111   9.234  19.646  0.00  0.00    +0.000 N 
ATOM      7  C   UNL     1       1.500   8.321  20.605  0.00  0.00    +0.000 C 
ATOM      8  O   UNL     1       1.489   8.571  21.809  0.00  0.00    +0.000 OA
ATOM      9  H   UNL     1       1.034   8.918  18.688  0.00  0.00    +0.000 HD
BRANCH   7  10
ATOM     10  C   UNL     1       1.941   6.982  20.127  0.00  0.00    +0.000 A 
ATOM     11  C   UNL     1       1.493   5.795  20.716  0.00  0.00    +0.000 A 
ATOM     12  C   UNL     1       1.884   4.561  20.187  0.00  0.00    +0.000 A 
ATOM     13  C   UNL     1       2.717   4.491  19.059  0.00  0.00    +0.000 A 
ATOM     14  C   UNL     1       3.086   3.258  18.499  0.00  0.00    +0.000 A 
ATOM     15  C   UNL     1       3.899   3.203  17.365  0.00  0.00    +0.000 A 
ATOM     16  C   UNL     1       4.365   4.384  16.789  0.00  0.00    +0.000 A 
ATOM     17  C   UNL     1       4.009   5.615  17.335  0.00  0.00    +0.000 A 
ATOM     18  C   UNL     1       3.179   5.689  18.464  0.00  0.00    +0.000 A 
ATOM     19  C   UNL     1       2.783   6.922  19.008  0.00  0.00    +0.000 A 
ENDBRANCH   7  10
ENDBRANCH   4   6
ENDBRANCH   1   2
BRANCH   1  20
ATOM     20  C   UNL     1      -2.892   9.808  17.962  0.00  0.00    +0.000 C 
BRANCH  20  21
ATOM     21  N   UNL     1      -3.709  10.834  17.335  0.00  0.00    +0.000 NA
BRANCH  21  22
ATOM     22  C   UNL     1      -4.776  11.443  18.127  0.00  0.00    +0.000 C 
ATOM     23  C   UNL     1      -5.911  10.458  18.513  0.00  0.00    +0.000 C 
ATOM     24  C   UNL     1      -7.088  11.205  19.179  0.00  0.00    +0.000 C 
ATOM     25  C   UNL     1      -6.600  12.129  20.242  0.00  0.00    +0.000 A 
ATOM     26  N   UNL     1      -7.435  12.604  21.231  0.00  0.00    +0.000 NA
ATOM     27  C   UNL     1      -6.767  13.409  22.024  0.00  0.00    +0.000 A 
ATOM     28  N   UNL     1      -7.322  14.031  23.072  0.00  0.00    +0.000 N 
ATOM     29  S   UNL     1      -5.104  13.624  21.629  0.00  0.00    +0.000 S 
ATOM     30  C   UNL     1      -5.300  12.581  20.301  0.00  0.00    +0.000 A 
ATOM     31  C   UNL     1      -4.200  12.183  19.372  0.00  0.00    +0.000 C 
ATOM     32  H   UNL     1      -8.265  13.782  23.339  0.00  0.00    +0.000 HD
ATOM     33  H   UNL     1      -6.761  14.533  23.746  0.00  0.00    +0.000 HD
ENDBRANCH  21  22
BRANCH  21  34
ATOM     34  C   UNL     1      -3.321  11.355  16.032  0.00  0.00    +0.000 C 
BRANCH  34  36
ATOM     35  C   UNL     1      -2.792   9.809  14.066  0.00  0.00    +0.000 C 
ATOM     36  C   UNL     1      -3.874  10.463  14.909  0.00  0.00    +0.000 C 
ENDBRANCH  34  36
ENDBRANCH  21  34
ENDBRANCH  20  21
ENDBRANCH   1  20
TORSDOF 8
ENDMDL
MODEL 2
REMARK VINA RESULT:      -8.0      2.482      3.700
REMARK  Name = 
REMARK  9 active torsions:
REMARK  status: ('A' for Active; 'I' for Inactive)
REMARK    1  A    between atoms: C_1  and  C_2
REMARK    2  A    between atoms: C_2  and  C_3
REMARK    3  A    between atoms: C_3  and  N_4
REMARK    4  A    between atoms: N_4  and  C_5
REMARK    5  A    between atoms: N_4  and  C_24
REMARK    6  A    between atoms: C_5  and  C_6
REMARK    7  A    between atoms: C_6  and  C_7
REMARK    8  A    between atoms: C_9  and  N_10
REMARK    9  A    between atoms: C_11  and  C_13
REMARK                            x       y       z     vdW  Elec       q    Type
REMARK                         _______ _______ _______ _____ _____    ______ ____
ROOT
ATOM      1  C   UNL     1       0.861  10.787  20.297  0.00  0.00    +0.000 C 
ENDROOT
BRANCH   1   2
ATOM      2  C   UNL     1       0.376  10.039  21.544  0.00  0.00    +0.000 C 
ATOM      3  C   UNL     1      -0.338   8.677  21.331  0.00  0.00    +0.000 C 
ATOM      4  C   UNL     1       1.023   7.976  21.555  0.00  0.00    +0.000 C 
ATOM      5  C   UNL     1       1.460   9.250  22.325  0.00  0.00    +0.000 C 
BRANCH   4   6
ATOM      6  N   UNL     1       1.769   7.725  20.300  0.00  0.00    +0.000 N 
ATOM      7  C   UNL     1       2.227   6.470  19.956  0.00  0.00    +0.000 C 
ATOM      8  O   UNL     1       1.978   5.463  20.618  0.00  0.00    +0.000 OA
ATOM      9  H   UNL     1       1.914   8.482  19.645  0.00  0.00    +0.000 HD
BRANCH   7  10
ATOM     10  C   UNL     1       3.051   6.362  18.722  0.00  0.00    +0.000 A 
ATOM     11  C   UNL     1       3.438   7.484  17.982  0.00  0.00    +0.000 A 
ATOM     12  C   UNL     1       4.269   7.336  16.868  0.00  0.00    +0.000 A 
ATOM     13  C   UNL     1       4.736   6.070  16.480  0.00  0.00    +0.000 A 
ATOM     14  C   UNL     1       5.600   5.913  15.384  0.00  0.00    +0.000 A 
ATOM     15  C   UNL     1       6.071   4.651  15.022  0.00  0.00    +0.000 A 
ATOM     16  C   UNL     1       5.671   3.527  15.742  0.00  0.00    +0.000 A 
ATOM     17  C   UNL     1       4.813   3.666  16.831  0.00  0.00    +0.000 A 
ATOM     18  C   UNL     1       4.342   4.930  17.220  0.00  0.00    +0.000 A 
ATOM     19  C   UNL     1       3.502   5.092  18.335  0.00  0.00    +0.000 A 
ENDBRANCH   7  10
ENDBRANCH   4   6
ENDBRANCH   1   2
BRANCH   1  20
ATOM     20  C   UNL     1      -0.336  11.420  19.580  0.00  0.00    +0.000 C 
BRANCH  20  21
ATOM     21  N   UNL     1      -0.646  12.764  20.037  0.00  0.00    +0.000 NA
BRANCH  21  22
ATOM     22  C   UNL     1      -1.995  13.029  20.533  0.00  0.00    +0.000 C 
ATOM     23  C   UNL     1      -3.105  12.253  19.775  0.00  0.00    +0.000 C 
ATOM     24  C   UNL     1      -4.509  12.721  20.220  0.00  0.00    +0.000 C 
ATOM     25  C   UNL     1      -4.608  12.769  21.707  0.00  0.00    +0.000 A 
ATOM     26  N   UNL     1      -5.826  12.768  22.353  0.00  0.00    +0.000 NA
ATOM     27  C   UNL     1      -5.637  12.835  23.650  0.00  0.00    +0.000 A 
ATOM     28  N   UNL     1      -6.640  12.862  24.536  0.00  0.00    +0.000 N 
ATOM     29  S   UNL     1      -3.990  12.889  24.156  0.00  0.00    +0.000 S 
ATOM     30  C   UNL     1      -3.504  12.834  22.528  0.00  0.00    +0.000 A 
ATOM     31  C   UNL     1      -2.081  12.809  22.074  0.00  0.00    +0.000 C 
ATOM     32  H   UNL     1      -7.583  12.705  24.206  0.00  0.00    +0.000 HD
ATOM     33  H   UNL     1      -6.472  12.774  25.529  0.00  0.00    +0.000 HD
ENDBRANCH  21  22
BRANCH  21  34
ATOM     34  C   UNL     1       0.430  13.736  20.172  0.00  0.00    +0.000 C 
BRANCH  34  36
ATOM     35  C   UNL     1       2.381  13.794  18.521  0.00  0.00    +0.000 C 
ATOM     36  C   UNL     1       0.936  14.176  18.789  0.00  0.00    +0.000 C 
ENDBRANCH  34  36
ENDBRANCH  21  34
ENDBRANCH  20  21
ENDBRANCH   1  20
TORSDOF 8
ENDMDL
MODEL 3
REMARK VINA RESULT:      -8.0      2.113      3.339
REMARK  Name = 
REMARK  9 active torsions:
REMARK  status: ('A' for Active; 'I' for Inactive)
REMARK    1  A    between atoms: C_1  and  C_2
REMARK    2  A    between atoms: C_2  and  C_3
REMARK    3  A    between atoms: C_3  and  N_4
REMARK    4  A    between atoms: N_4  and  C_5
REMARK    5  A    between atoms: N_4  and  C_24
REMARK    6  A    between atoms: C_5  and  C_6
REMARK    7  A    between atoms: C_6  and  C_7
REMARK    8  A    between atoms: C_9  and  N_10
REMARK    9  A    between atoms: C_11  and  C_13
REMARK                            x       y       z     vdW  Elec       q    Type
REMARK                         _______ _______ _______ _____ _____    ______ ____
ROOT
ATOM      1  C   UNL     1       0.586   9.855  19.392  0.00  0.00    +0.000 C 
ENDROOT
BRANCH   1   2
ATOM      2  C   UNL     1       0.273   9.562  20.864  0.00  0.00    +0.000 C 
ATOM      3  C   UNL     1      -0.247   8.142  21.217  0.00  0.00    +0.000 C 
ATOM      4  C   UNL     1       1.209   7.735  21.544  0.00  0.00    +0.000 C 
ATOM      5  C   UNL     1       1.494   9.243  21.766  0.00  0.00    +0.000 C 
BRANCH   4   6
ATOM      6  N   UNL     1       1.923   7.133  20.394  0.00  0.00    +0.000 N 
ATOM      7  C   UNL     1       2.058   5.768  20.246  0.00  0.00    +0.000 C 
ATOM      8  O   UNL     1       1.527   4.957  21.005  0.00  0.00    +0.000 OA
ATOM      9  H   UNL     1       2.289   7.731  19.664  0.00  0.00    +0.000 HD
BRANCH   7  10
ATOM     10  C   UNL     1       2.883   5.286  19.105  0.00  0.00    +0.000 A 
ATOM     11  C   UNL     1       2.414   4.336  18.193  0.00  0.00    +0.000 A 
ATOM     12  C   UNL     1       3.202   3.966  17.098  0.00  0.00    +0.000 A 
ATOM     13  C   UNL     1       4.463   4.546  16.890  0.00  0.00    +0.000 A 
ATOM     14  C   UNL     1       5.247   4.210  15.775  0.00  0.00    +0.000 A 
ATOM     15  C   UNL     1       6.491   4.809  15.570  0.00  0.00    +0.000 A 
ATOM     16  C   UNL     1       6.972   5.741  16.488  0.00  0.00    +0.000 A 
ATOM     17  C   UNL     1       6.206   6.084  17.600  0.00  0.00    +0.000 A 
ATOM     18  C   UNL     1       4.946   5.504  17.813  0.00  0.00    +0.000 A 
ATOM     19  C   UNL     1       4.146   5.863  18.911  0.00  0.00    +0.000 A 
ENDBRANCH   7  10
ENDBRANCH   4   6
ENDBRANCH   1   2
BRANCH   1  20
ATOM     20  C   UNL     1       0.294  11.328  19.089  0.00  0.00    +0.000 C 
BRANCH  20  21
ATOM     21  N   UNL     1      -1.122  11.658  19.109  0.00  0.00    +0.000 NA
BRANCH  21  22
ATOM     22  C   UNL     1      -1.729  12.007  20.392  0.00  0.00    +0.000 C 
ATOM     23  C   UNL     1      -0.850  12.936  21.270  0.00  0.00    +0.000 C 
ATOM     24  C   UNL     1      -1.462  13.108  22.678  0.00  0.00    +0.000 C 
ATOM     25  C   UNL     1      -2.915  13.432  22.591  0.00  0.00    +0.000 A 
ATOM     26  N   UNL     1      -3.595  14.009  23.643  0.00  0.00    +0.000 NA
ATOM     27  C   UNL     1      -4.856  14.171  23.317  0.00  0.00    +0.000 A 
ATOM     28  N   UNL     1      -5.764  14.700  24.146  0.00  0.00    +0.000 N 
ATOM     29  S   UNL     1      -5.283  13.651  21.731  0.00  0.00    +0.000 S 
ATOM     30  C   UNL     1      -3.675  13.165  21.473  0.00  0.00    +0.000 A 
ATOM     31  C   UNL     1      -3.165  12.581  20.196  0.00  0.00    +0.000 C 
ATOM     32  H   UNL     1      -5.447  15.103  25.019  0.00  0.00    +0.000 HD
ATOM     33  H   UNL     1      -6.692  14.942  23.829  0.00  0.00    +0.000 HD
ENDBRANCH  21  22
BRANCH  21  34
ATOM     34  C   UNL     1      -1.833  11.821  17.849  0.00  0.00    +0.000 C 
BRANCH  34  36
ATOM     35  C   UNL     1      -3.252   9.703  17.659  0.00  0.00    +0.000 C 
ATOM     36  C   UNL     1      -2.032  10.460  17.162  0.00  0.00    +0.000 C 
ENDBRANCH  34  36
ENDBRANCH  21  34
ENDBRANCH  20  21
ENDBRANCH   1  20
TORSDOF 8
ENDMDL
MODEL 4
REMARK VINA RESULT:      -8.0      1.911      4.009
REMARK  Name = 
REMARK  9 active torsions:
REMARK  status: ('A' for Active; 'I' for Inactive)
REMARK    1  A    between atoms: C_1  and  C_2
REMARK    2  A    between atoms: C_2  and  C_3
REMARK    3  A    between atoms: C_3  and  N_4
REMARK    4  A    between atoms: N_4  and  C_5
REMARK    5  A    between atoms: N_4  and  C_24
REMARK    6  A    between atoms: C_5  and  C_6
REMARK    7  A    between atoms: C_6  and  C_7
REMARK    8  A    between atoms: C_9  and  N_10
REMARK    9  A    between atoms: C_11  and  C_13
REMARK                            x       y       z     vdW  Elec       q    Type
REMARK                         _______ _______ _______ _____ _____    ______ ____
ROOT
ATOM      1  C   UNL     1       0.968  10.785  20.536  0.00  0.00    +0.000 C 
ENDROOT
BRANCH   1   2
ATOM      2  C   UNL     1       0.451   9.999  21.745  0.00  0.00    +0.000 C 
ATOM      3  C   UNL     1      -0.308   8.673  21.467  0.00  0.00    +0.000 C 
ATOM      4  C   UNL     1       1.027   7.916  21.666  0.00  0.00    +0.000 C 
ATOM      5  C   UNL     1       1.502   9.138  22.495  0.00  0.00    +0.000 C 
BRANCH   4   6
ATOM      6  N   UNL     1       1.772   7.697  20.404  0.00  0.00    +0.000 N 
ATOM      7  C   UNL     1       2.133   6.437  19.974  0.00  0.00    +0.000 C 
ATOM      8  O   UNL     1       1.792   5.408  20.556  0.00  0.00    +0.000 OA
ATOM      9  H   UNL     1       1.989   8.485  19.808  0.00  0.00    +0.000 HD
BRANCH   7  10
ATOM     10  C   UNL     1       2.966   6.352  18.744  0.00  0.00    +0.000 A 
ATOM     11  C   UNL     1       3.335   7.486  18.013  0.00  0.00    +0.000 A 
ATOM     12  C   UNL     1       4.176   7.360  16.903  0.00  0.00    +0.000 A 
ATOM     13  C   UNL     1       4.671   6.106  16.512  0.00  0.00    +0.000 A 
ATOM     14  C   UNL     1       5.545   5.972  15.421  0.00  0.00    +0.000 A 
ATOM     15  C   UNL     1       6.046   4.721  15.055  0.00  0.00    +0.000 A 
ATOM     16  C   UNL     1       5.664   3.586  15.768  0.00  0.00    +0.000 A 
ATOM     17  C   UNL     1       4.796   3.703  16.852  0.00  0.00    +0.000 A 
ATOM     18  C   UNL     1       4.296   4.955  17.244  0.00  0.00    +0.000 A 
ATOM     19  C   UNL     1       3.446   5.094  18.354  0.00  0.00    +0.000 A 
ENDBRANCH   7  10
ENDBRANCH   4   6
ENDBRANCH   1   2
BRANCH   1  20
ATOM     20  C   UNL     1       0.230  12.124  20.439  0.00  0.00    +0.000 C 
BRANCH  20  21
ATOM     21  N   UNL     1      -0.051  12.538  19.075  0.00  0.00    +0.000 NA
BRANCH  21  22
ATOM     22  C   UNL     1      -1.407  12.348  18.563  0.00  0.00    +0.000 C 
ATOM     23  C   UNL     1      -1.611  11.010  17.806  0.00  0.00    +0.000 C 
ATOM     24  C   UNL     1      -3.001  10.961  17.133  0.00  0.00    +0.000 C 
ATOM     25  C   UNL     1      -4.070  11.369  18.089  0.00  0.00    +0.000 A 
ATOM     26  N   UNL     1      -5.393  11.045  17.880  0.00  0.00    +0.000 NA
ATOM     27  C   UNL     1      -6.127  11.536  18.851  0.00  0.00    +0.000 A 
ATOM     28  N   UNL     1      -7.456  11.389  18.911  0.00  0.00    +0.000 N 
ATOM     29  S   UNL     1      -5.263  12.399  20.067  0.00  0.00    +0.000 S 
ATOM     30  C   UNL     1      -3.815  12.105  19.226  0.00  0.00    +0.000 A 
ATOM     31  C   UNL     1      -2.465  12.545  19.691  0.00  0.00    +0.000 C 
ATOM     32  H   UNL     1      -7.906  10.774  18.246  0.00  0.00    +0.000 HD
ATOM     33  H   UNL     1      -7.981  11.654  19.733  0.00  0.00    +0.000 HD
ENDBRANCH  21  22
BRANCH  21  34
ATOM     34  C   UNL     1       0.952  13.295  18.340  0.00  0.00    +0.000 C 
BRANCH  34  36
ATOM     35  C   UNL     1       3.112  14.537  18.914  0.00  0.00    +0.000 C 
ATOM     36  C   UNL     1       1.652  14.303  19.265  0.00  0.00    +0.000 C 
ENDBRANCH  34  36
ENDBRANCH  21  34
ENDBRANCH  20  21
ENDBRANCH   1  20
TORSDOF 8
ENDMDL
MODEL 5
REMARK VINA RESULT:      -7.9      3.855      6.258
REMARK  Name = 
REMARK  9 active torsions:
REMARK  status: ('A' for Active; 'I' for Inactive)
REMARK    1  A    between atoms: C_1  and  C_2
REMARK    2  A    between atoms: C_2  and  C_3
REMARK    3  A    between atoms: C_3  and  N_4
REMARK    4  A    between atoms: N_4  and  C_5
REMARK    5  A    between atoms: N_4  and  C_24
REMARK    6  A    between atoms: C_5  and  C_6
REMARK    7  A    between atoms: C_6  and  C_7
REMARK    8  A    between atoms: C_9  and  N_10
REMARK    9  A    between atoms: C_11  and  C_13
REMARK                            x       y       z     vdW  Elec       q    Type
REMARK                         _______ _______ _______ _____ _____    ______ ____
ROOT
ATOM      1  C   UNL     1       1.020   5.443  19.838  0.00  0.00    +0.000 C 
ENDROOT
BRANCH   1   2
ATOM      2  C   UNL     1       0.855   4.195  20.713  0.00  0.00    +0.000 C 
ATOM      3  C   UNL     1       0.842   2.816  19.999  0.00  0.00    +0.000 C 
ATOM      4  C   UNL     1       2.358   2.701  20.286  0.00  0.00    +0.000 C 
ATOM      5  C   UNL     1       2.132   3.706  21.445  0.00  0.00    +0.000 C 
BRANCH   4   6
ATOM      6  N   UNL     1       3.206   3.208  19.182  0.00  0.00    +0.000 N 
ATOM      7  C   UNL     1       4.583   3.215  19.256  0.00  0.00    +0.000 C 
ATOM      8  O   UNL     1       5.204   2.726  20.199  0.00  0.00    +0.000 OA
ATOM      9  H   UNL     1       2.772   3.521  18.323  0.00  0.00    +0.000 HD
BRANCH   7  10
ATOM     10  C   UNL     1       5.321   3.843  18.127  0.00  0.00    +0.000 A 
ATOM     11  C   UNL     1       6.398   4.712  18.330  0.00  0.00    +0.000 A 
ATOM     12  C   UNL     1       7.102   5.223  17.236  0.00  0.00    +0.000 A 
ATOM     13  C   UNL     1       6.751   4.869  15.923  0.00  0.00    +0.000 A 
ATOM     14  C   UNL     1       7.473   5.347  14.819  0.00  0.00    +0.000 A 
ATOM     15  C   UNL     1       7.125   4.971  13.520  0.00  0.00    +0.000 A 
ATOM     16  C   UNL     1       6.039   4.122  13.312  0.00  0.00    +0.000 A 
ATOM     17  C   UNL     1       5.311   3.641  14.398  0.00  0.00    +0.000 A 
ATOM     18  C   UNL     1       5.658   3.995  15.712  0.00  0.00    +0.000 A 
ATOM     19  C   UNL     1       4.956   3.493  16.820  0.00  0.00    +0.000 A 
ENDBRANCH   7  10
ENDBRANCH   4   6
ENDBRANCH   1   2
BRANCH   1  20
ATOM     20  C   UNL     1       1.822   6.502  20.601  0.00  0.00    +0.000 C 
BRANCH  20  21
ATOM     21  N   UNL     1       1.536   7.864  20.182  0.00  0.00    +0.000 NA
BRANCH  21  22
ATOM     22  C   UNL     1       0.577   8.638  20.968  0.00  0.00    +0.000 C 
ATOM     23  C   UNL     1       1.089   9.023  22.381  0.00  0.00    +0.000 C 
ATOM     24  C   UNL     1      -0.036   9.669  23.220  0.00  0.00    +0.000 C 
ATOM     25  C   UNL     1      -0.740  10.728  22.442  0.00  0.00    +0.000 A 
ATOM     26  N   UNL     1      -1.494  11.703  23.060  0.00  0.00    +0.000 NA
ATOM     27  C   UNL     1      -2.019  12.495  22.154  0.00  0.00    +0.000 A 
ATOM     28  N   UNL     1      -2.811  13.530  22.458  0.00  0.00    +0.000 N 
ATOM     29  S   UNL     1      -1.624  12.115  20.521  0.00  0.00    +0.000 S 
ATOM     30  C   UNL     1      -0.701  10.795  21.066  0.00  0.00    +0.000 A 
ATOM     31  C   UNL     1       0.074   9.882  20.174  0.00  0.00    +0.000 C 
ATOM     32  H   UNL     1      -2.918  13.790  23.429  0.00  0.00    +0.000 HD
ATOM     33  H   UNL     1      -3.091  14.206  21.759  0.00  0.00    +0.000 HD
ENDBRANCH  21  22
BRANCH  21  34
ATOM     34  C   UNL     1       2.343   8.471  19.134  0.00  0.00    +0.000 C 
BRANCH  34  36
ATOM     35  C   UNL     1       3.787   7.174  17.470  0.00  0.00    +0.000 C 
ATOM     36  C   UNL     1       2.381   7.567  17.891  0.00  0.00    +0.000 C 
ENDBRANCH  34  36
ENDBRANCH  21  34
ENDBRANCH  20  21
ENDBRANCH   1  20
TORSDOF 8
ENDMDL
MODEL 6
REMARK VINA RESULT:      -7.9      1.849      3.250
REMARK  Name = 
REMARK  9 active torsions:
REMARK  status: ('A' for Active; 'I' for Inactive)
REMARK    1  A    between atoms: C_1  and  C_2
REMARK    2  A    between atoms: C_2  and  C_3
REMARK    3  A    between atoms: C_3  and  N_4
REMARK    4  A    between atoms: N_4  and  C_5
REMARK    5  A    between atoms: N_4  and  C_24
REMARK    6  A    between atoms: C_5  and  C_6
REMARK    7  A    between atoms: C_6  and  C_7
REMARK    8  A    between atoms: C_9  and  N_10
REMARK    9  A    between atoms: C_11  and  C_13
REMARK                            x       y       z     vdW  Elec       q    Type
REMARK                         _______ _______ _______ _____ _____    ______ ____
ROOT
ATOM      1  C   UNL     1       1.068  10.944  20.505  0.00  0.00    +0.000 C 
ENDROOT
BRANCH   1   2
ATOM      2  C   UNL     1       0.507  10.164  21.699  0.00  0.00    +0.000 C 
ATOM      3  C   UNL     1      -0.287   8.864  21.397  0.00  0.00    +0.000 C 
ATOM      4  C   UNL     1       1.021   8.065  21.610  0.00  0.00    +0.000 C 
ATOM      5  C   UNL     1       1.519   9.265  22.457  0.00  0.00    +0.000 C 
BRANCH   4   6
ATOM      6  N   UNL     1       1.778   7.834  20.358  0.00  0.00    +0.000 N 
ATOM      7  C   UNL     1       2.121   6.567  19.931  0.00  0.00    +0.000 C 
ATOM      8  O   UNL     1       1.753   5.544  20.507  0.00  0.00    +0.000 OA
ATOM      9  H   UNL     1       2.019   8.619  19.767  0.00  0.00    +0.000 HD
BRANCH   7  10
ATOM     10  C   UNL     1       2.970   6.469  18.712  0.00  0.00    +0.000 A 
ATOM     11  C   UNL     1       3.350   7.594  17.974  0.00  0.00    +0.000 A 
ATOM     12  C   UNL     1       4.205   7.456  16.876  0.00  0.00    +0.000 A 
ATOM     13  C   UNL     1       4.702   6.196  16.504  0.00  0.00    +0.000 A 
ATOM     14  C   UNL     1       5.589   6.050  15.425  0.00  0.00    +0.000 A 
ATOM     15  C   UNL     1       6.090   4.795  15.078  0.00  0.00    +0.000 A 
ATOM     16  C   UNL     1       5.696   3.667  15.797  0.00  0.00    +0.000 A 
ATOM     17  C   UNL     1       4.815   3.796  16.869  0.00  0.00    +0.000 A 
ATOM     18  C   UNL     1       4.314   5.053  17.243  0.00  0.00    +0.000 A 
ATOM     19  C   UNL     1       3.451   5.206  18.341  0.00  0.00    +0.000 A 
ENDBRANCH   7  10
ENDBRANCH   4   6
ENDBRANCH   1   2
BRANCH   1  20
ATOM     20  C   UNL     1       0.203  12.183  20.248  0.00  0.00    +0.000 C 
BRANCH  20  21
ATOM     21  N   UNL     1      -1.118  11.873  19.727  0.00  0.00    +0.000 NA
BRANCH  21  22
ATOM     22  C   UNL     1      -2.259  11.985  20.635  0.00  0.00    +0.000 C 
ATOM     23  C   UNL     1      -1.934  12.713  21.965  0.00  0.00    +0.000 C 
ATOM     24  C   UNL     1      -3.123  12.628  22.948  0.00  0.00    +0.000 C 
ATOM     25  C   UNL     1      -4.401  12.990  22.270  0.00  0.00    +0.000 A 
ATOM     26  N   UNL     1      -5.518  13.370  22.983  0.00  0.00    +0.000 NA
ATOM     27  C   UNL     1      -6.507  13.616  22.155  0.00  0.00    +0.000 A 
ATOM     28  N   UNL     1      -7.725  13.996  22.562  0.00  0.00    +0.000 N 
ATOM     29  S   UNL     1      -6.140  13.413  20.484  0.00  0.00    +0.000 S 
ATOM     30  C   UNL     1      -4.558  12.954  20.902  0.00  0.00    +0.000 A 
ATOM     31  C   UNL     1      -3.490  12.613  19.914  0.00  0.00    +0.000 C 
ATOM     32  H   UNL     1      -7.862  14.220  23.538  0.00  0.00    +0.000 HD
ATOM     33  H   UNL     1      -8.427  14.311  21.906  0.00  0.00    +0.000 HD
ENDBRANCH  21  22
BRANCH  21  34
ATOM     34  C   UNL     1      -1.287  11.659  18.298  0.00  0.00    +0.000 C 
BRANCH  34  36
ATOM     35  C   UNL     1      -2.270   9.983  16.635  0.00  0.00    +0.000 C 
ATOM     36  C   UNL     1      -1.664  10.196  18.012  0.00  0.00    +0.000 C 
ENDBRANCH  34  36
ENDBRANCH  21  34
ENDBRANCH  20  21
ENDBRANCH   1  20
TORSDOF 8
ENDMDL
MODEL 7
REMARK VINA RESULT:      -7.8      2.313      4.086
REMARK  Name = 
REMARK  9 active torsions:
REMARK  status: ('A' for Active; 'I' for Inactive)
REMARK    1  A    between atoms: C_1  and  C_2
REMARK    2  A    between atoms: C_2  and  C_3
REMARK    3  A    between atoms: C_3  and  N_4
REMARK    4  A    between atoms: N_4  and  C_5
REMARK    5  A    between atoms: N_4  and  C_24
REMARK    6  A    between atoms: C_5  and  C_6
REMARK    7  A    between atoms: C_6  and  C_7
REMARK    8  A    between atoms: C_9  and  N_10
REMARK    9  A    between atoms: C_11  and  C_13
REMARK                            x       y       z     vdW  Elec       q    Type
REMARK                         _______ _______ _______ _____ _____    ______ ____
ROOT
ATOM      1  C   UNL     1       0.651   9.727  19.252  0.00  0.00    +0.000 C 
ENDROOT
BRANCH   1   2
ATOM      2  C   UNL     1       0.302   9.506  20.728  0.00  0.00    +0.000 C 
ATOM      3  C   UNL     1      -0.201   8.096  21.142  0.00  0.00    +0.000 C 
ATOM      4  C   UNL     1       1.253   7.737  21.529  0.00  0.00    +0.000 C 
ATOM      5  C   UNL     1       1.503   9.260  21.679  0.00  0.00    +0.000 C 
BRANCH   4   6
ATOM      6  N   UNL     1       2.010   7.089  20.433  0.00  0.00    +0.000 N 
ATOM      7  C   UNL     1       2.050   5.719  20.278  0.00  0.00    +0.000 C 
ATOM      8  O   UNL     1       1.397   4.946  20.979  0.00  0.00    +0.000 OA
ATOM      9  H   UNL     1       2.480   7.662  19.744  0.00  0.00    +0.000 HD
BRANCH   7  10
ATOM     10  C   UNL     1       2.926   5.183  19.201  0.00  0.00    +0.000 A 
ATOM     11  C   UNL     1       3.121   3.811  19.010  0.00  0.00    +0.000 A 
ATOM     12  C   UNL     1       3.900   3.356  17.942  0.00  0.00    +0.000 A 
ATOM     13  C   UNL     1       4.487   4.259  17.042  0.00  0.00    +0.000 A 
ATOM     14  C   UNL     1       5.242   3.813  15.945  0.00  0.00    +0.000 A 
ATOM     15  C   UNL     1       5.804   4.722  15.047  0.00  0.00    +0.000 A 
ATOM     16  C   UNL     1       5.631   6.090  15.246  0.00  0.00    +0.000 A 
ATOM     17  C   UNL     1       4.887   6.549  16.331  0.00  0.00    +0.000 A 
ATOM     18  C   UNL     1       4.300   5.648  17.234  0.00  0.00    +0.000 A 
ATOM     19  C   UNL     1       3.519   6.093  18.314  0.00  0.00    +0.000 A 
ENDBRANCH   7  10
ENDBRANCH   4   6
ENDBRANCH   1   2
BRANCH   1  20
ATOM     20  C   UNL     1       1.344  11.083  19.085  0.00  0.00    +0.000 C 
BRANCH  20  21
ATOM     21  N   UNL     1       0.422  12.190  18.895  0.00  0.00    +0.000 NA
BRANCH  21  22
ATOM     22  C   UNL     1      -1.000  11.950  19.137  0.00  0.00    +0.000 C 
ATOM     23  C   UNL     1      -1.678  13.033  20.017  0.00  0.00    +0.000 C 
ATOM     24  C   UNL     1      -3.120  12.620  20.388  0.00  0.00    +0.000 C 
ATOM     25  C   UNL     1      -3.868  12.158  19.184  0.00  0.00    +0.000 A 
ATOM     26  N   UNL     1      -5.246  12.111  19.158  0.00  0.00    +0.000 NA
ATOM     27  C   UNL     1      -5.650  11.653  17.997  0.00  0.00    +0.000 A 
ATOM     28  N   UNL     1      -6.942  11.487  17.685  0.00  0.00    +0.000 N 
ATOM     29  S   UNL     1      -4.399  11.268  16.877  0.00  0.00    +0.000 S 
ATOM     30  C   UNL     1      -3.242  11.733  18.032  0.00  0.00    +0.000 A 
ATOM     31  C   UNL     1      -1.767  11.725  17.798  0.00  0.00    +0.000 C 
ATOM     32  H   UNL     1      -7.643  11.839  18.322  0.00  0.00    +0.000 HD
ATOM     33  H   UNL     1      -7.234  11.266  16.743  0.00  0.00    +0.000 HD
ENDBRANCH  21  22
BRANCH  21  34
ATOM     34  C   UNL     1       0.951  13.527  18.668  0.00  0.00    +0.000 C 
BRANCH  34  36
ATOM     35  C   UNL     1       3.136  14.327  19.729  0.00  0.00    +0.000 C 
ATOM     36  C   UNL     1       2.488  13.500  18.631  0.00  0.00    +0.000 C 
ENDBRANCH  34  36
ENDBRANCH  21  34
ENDBRANCH  20  21
ENDBRANCH   1  20
TORSDOF 8
ENDMDL
MODEL 8
REMARK VINA RESULT:      -7.7      2.470      3.718
REMARK  Name = 
REMARK  9 active torsions:
REMARK  status: ('A' for Active; 'I' for Inactive)
REMARK    1  A    between atoms: C_1  and  C_2
REMARK    2  A    between atoms: C_2  and  C_3
REMARK    3  A    between atoms: C_3  and  N_4
REMARK    4  A    between atoms: N_4  and  C_5
REMARK    5  A    between atoms: N_4  and  C_24
REMARK    6  A    between atoms: C_5  and  C_6
REMARK    7  A    between atoms: C_6  and  C_7
REMARK    8  A    between atoms: C_9  and  N_10
REMARK    9  A    between atoms: C_11  and  C_13
REMARK                            x       y       z     vdW  Elec       q    Type
REMARK                         _______ _______ _______ _____ _____    ______ ____
ROOT
ATOM      1  C   UNL     1       0.788  10.771  20.342  0.00  0.00    +0.000 C 
ENDROOT
BRANCH   1   2
ATOM      2  C   UNL     1       0.342  10.023  21.604  0.00  0.00    +0.000 C 
ATOM      3  C   UNL     1      -0.332   8.637  21.415  0.00  0.00    +0.000 C 
ATOM      4  C   UNL     1       1.052   7.981  21.629  0.00  0.00    +0.000 C 
ATOM      5  C   UNL     1       1.459   9.276  22.379  0.00  0.00    +0.000 C 
BRANCH   4   6
ATOM      6  N   UNL     1       1.789   7.738  20.367  0.00  0.00    +0.000 N 
ATOM      7  C   UNL     1       2.187   6.475  19.979  0.00  0.00    +0.000 C 
ATOM      8  O   UNL     1       1.887   5.458  20.605  0.00  0.00    +0.000 OA
ATOM      9  H   UNL     1       1.973   8.510  19.739  0.00  0.00    +0.000 HD
BRANCH   7  10
ATOM     10  C   UNL     1       3.008   6.371  18.743  0.00  0.00    +0.000 A 
ATOM     11  C   UNL     1       3.375   7.494  17.994  0.00  0.00    +0.000 A 
ATOM     12  C   UNL     1       4.205   7.351  16.878  0.00  0.00    +0.000 A 
ATOM     13  C   UNL     1       4.691   6.089  16.498  0.00  0.00    +0.000 A 
ATOM     14  C   UNL     1       5.554   5.938  15.401  0.00  0.00    +0.000 A 
ATOM     15  C   UNL     1       6.045   4.681  15.046  0.00  0.00    +0.000 A 
ATOM     16  C   UNL     1       5.665   3.556  15.777  0.00  0.00    +0.000 A 
ATOM     17  C   UNL     1       4.808   3.690  16.867  0.00  0.00    +0.000 A 
ATOM     18  C   UNL     1       4.318   4.949  17.248  0.00  0.00    +0.000 A 
ATOM     19  C   UNL     1       3.479   5.106  18.365  0.00  0.00    +0.000 A 
ENDBRANCH   7  10
ENDBRANCH   4   6
ENDBRANCH   1   2
BRANCH   1  20
ATOM     20  C   UNL     1      -0.258  10.585  19.238  0.00  0.00    +0.000 C 
BRANCH  20  21
ATOM     21  N   UNL     1      -1.366  11.522  19.321  0.00  0.00    +0.000 NA
BRANCH  21  22
ATOM     22  C   UNL     1      -1.386  12.467  20.436  0.00  0.00    +0.000 C 
ATOM     23  C   UNL     1      -1.191  13.946  20.009  0.00  0.00    +0.000 C 
ATOM     24  C   UNL     1      -1.032  14.862  21.243  0.00  0.00    +0.000 C 
ATOM     25  C   UNL     1      -2.092  14.581  22.254  0.00  0.00    +0.000 A 
ATOM     26  N   UNL     1      -2.415  15.491  23.238  0.00  0.00    +0.000 NA
ATOM     27  C   UNL     1      -3.358  14.996  24.004  0.00  0.00    +0.000 A 
ATOM     28  N   UNL     1      -3.869  15.651  25.054  0.00  0.00    +0.000 N 
ATOM     29  S   UNL     1      -3.910  13.421  23.574  0.00  0.00    +0.000 S 
ATOM     30  C   UNL     1      -2.801  13.400  22.286  0.00  0.00    +0.000 A 
ATOM     31  C   UNL     1      -2.663  12.278  21.310  0.00  0.00    +0.000 C 
ATOM     32  H   UNL     1      -3.605  16.617  25.197  0.00  0.00    +0.000 HD
ATOM     33  H   UNL     1      -4.685  15.311  25.544  0.00  0.00    +0.000 HD
ENDBRANCH  21  22
BRANCH  21  34
ATOM     34  C   UNL     1      -2.298  11.623  18.207  0.00  0.00    +0.000 C 
BRANCH  34  36
ATOM     35  C   UNL     1      -2.600   9.970  16.280  0.00  0.00    +0.000 C 
ATOM     36  C   UNL     1      -2.768  10.227  17.768  0.00  0.00    +0.000 C 
ENDBRANCH  34  36
ENDBRANCH  21  34
ENDBRANCH  20  21
ENDBRANCH   1  20
TORSDOF 8
ENDMDL
MODEL 9
REMARK VINA RESULT:      -7.7      3.414      8.521
REMARK  Name = 
REMARK  9 active torsions:
REMARK  status: ('A' for Active; 'I' for Inactive)
REMARK    1  A    between atoms: C_1  and  C_2
REMARK    2  A    between atoms: C_2  and  C_3
REMARK    3  A    between atoms: C_3  and  N_4
REMARK    4  A    between atoms: N_4  and  C_5
REMARK    5  A    between atoms: N_4  and  C_24
REMARK    6  A    between atoms: C_5  and  C_6
REMARK    7  A    between atoms: C_6  and  C_7
REMARK    8  A    between atoms: C_9  and  N_10
REMARK    9  A    between atoms: C_11  and  C_13
REMARK                            x       y       z     vdW  Elec       q    Type
REMARK                         _______ _______ _______ _____ _____    ______ ____
ROOT
ATOM      1  C   UNL     1      -2.667  12.139  23.570  0.00  0.00    +0.000 C 
ENDROOT
BRANCH   1   2
ATOM      2  C   UNL     1      -3.667  13.090  24.238  0.00  0.00    +0.000 C 
ATOM      3  C   UNL     1      -3.948  14.446  23.533  0.00  0.00    +0.000 C 
ATOM      4  C   UNL     1      -5.172  13.789  22.852  0.00  0.00    +0.000 C 
ATOM      5  C   UNL     1      -5.167  12.763  24.015  0.00  0.00    +0.000 C 
BRANCH   4   6
ATOM      6  N   UNL     1      -4.867  13.217  21.520  0.00  0.00    +0.000 N 
ATOM      7  C   UNL     1      -5.714  13.374  20.442  0.00  0.00    +0.000 C 
ATOM      8  O   UNL     1      -6.731  14.065  20.485  0.00  0.00    +0.000 OA
ATOM      9  H   UNL     1      -3.991  12.732  21.373  0.00  0.00    +0.000 HD
BRANCH   7  10
ATOM     10  C   UNL     1      -5.349  12.667  19.184  0.00  0.00    +0.000 A 
ATOM     11  C   UNL     1      -6.091  12.807  18.007  0.00  0.00    +0.000 A 
ATOM     12  C   UNL     1      -5.668  12.176  16.833  0.00  0.00    +0.000 A 
ATOM     13  C   UNL     1      -4.495  11.405  16.811  0.00  0.00    +0.000 A 
ATOM     14  C   UNL     1      -4.041  10.797  15.630  0.00  0.00    +0.000 A 
ATOM     15  C   UNL     1      -2.862  10.050  15.619  0.00  0.00    +0.000 A 
ATOM     16  C   UNL     1      -2.131   9.890  16.795  0.00  0.00    +0.000 A 
ATOM     17  C   UNL     1      -2.569  10.486  17.975  0.00  0.00    +0.000 A 
ATOM     18  C   UNL     1      -3.744  11.255  18.001  0.00  0.00    +0.000 A 
ATOM     19  C   UNL     1      -4.182  11.890  19.175  0.00  0.00    +0.000 A 
ENDBRANCH   7  10
ENDBRANCH   4   6
ENDBRANCH   1   2
BRANCH   1  20
ATOM     20  C   UNL     1      -1.371  12.894  23.257  0.00  0.00    +0.000 C 
BRANCH  20  21
ATOM     21  N   UNL     1      -0.903  12.709  21.893  0.00  0.00    +0.000 NA
BRANCH  21  22
ATOM     22  C   UNL     1       0.000  11.592  21.621  0.00  0.00    +0.000 C 
ATOM     23  C   UNL     1      -0.358  10.294  22.390  0.00  0.00    +0.000 C 
ATOM     24  C   UNL     1       0.739   9.221  22.206  0.00  0.00    +0.000 C 
ATOM     25  C   UNL     1       1.107   9.079  20.768  0.00  0.00    +0.000 A 
ATOM     26  N   UNL     1       1.749   7.956  20.290  0.00  0.00    +0.000 NA
ATOM     27  C   UNL     1       1.974   8.089  19.005  0.00  0.00    +0.000 A 
ATOM     28  N   UNL     1       2.594   7.158  18.269  0.00  0.00    +0.000 N 
ATOM     29  S   UNL     1       1.417   9.562  18.305  0.00  0.00    +0.000 S 
ATOM     30  C   UNL     1       0.851  10.055  19.830  0.00  0.00    +0.000 A 
ATOM     31  C   UNL     1       0.137  11.341  20.089  0.00  0.00    +0.000 C 
ATOM     32  H   UNL     1       2.795   6.261  18.692  0.00  0.00    +0.000 HD
ATOM     33  H   UNL     1       2.635   7.220  17.261  0.00  0.00    +0.000 HD
ENDBRANCH  21  22
BRANCH  21  34
ATOM     34  C   UNL     1      -1.491  13.504  20.825  0.00  0.00    +0.000 C 
BRANCH  34  36
ATOM     35  C   UNL     1       0.169  15.440  20.649  0.00  0.00    +0.000 C 
ATOM     36  C   UNL     1      -1.227  15.000  21.057  0.00  0.00    +0.000 C 
ENDBRANCH  34  36
ENDBRANCH  21  34
ENDBRANCH  20  21
ENDBRANCH   1  20
TORSDOF 8
ENDMDL
