MODEL 1
REMARK VINA RESULT:      -7.8      0.000      0.000
REMARK  Name = 
REMARK  7 active torsions:
REMARK  status: ('A' for Active; 'I' for Inactive)
REMARK    1  A    between atoms: C_1  and  C_2
REMARK    2  A    between atoms: C_2  and  O_3
REMARK    3  A    between atoms: C_2  and  C_4
REMARK    4  A    between atoms: C_2  and  C_21
REMARK    5  A    between atoms: N_6  and  C_7
REMARK    6  A    between atoms: C_10  and  C_11
REMARK    7  A    between atoms: C_11  and  C_13
REMARK                            x       y       z     vdW  Elec       q    Type
REMARK                         _______ _______ _______ _____ _____    ______ ____
ROOT
ATOM      1  C   UNL     1       2.324   6.287  19.357  0.00  0.00    +0.000 A 
ATOM      2  C   UNL     1       2.470   6.866  18.094  0.00  0.00    +0.000 A 
ATOM      3  C   UNL     1       2.122   8.197  17.877  0.00  0.00    +0.000 A 
ATOM      4  C   UNL     1       1.631   8.978  18.925  0.00  0.00    +0.000 A 
ATOM      5  C   UNL     1       1.476   8.404  20.190  0.00  0.00    +0.000 A 
ATOM      6  C   UNL     1       1.820   7.061  20.405  0.00  0.00    +0.000 A 
ENDROOT
BRANCH   1   9
ATOM      7  C   UNL     1       3.879   4.345  19.544  0.00  0.00    +0.000 C 
ATOM      8  O   UNL     1       4.939   4.926  19.337  0.00  0.00    +0.000 OA
ATOM      9  N   UNL     1       2.626   4.935  19.609  0.00  0.00    +0.000 N 
ATOM     10  H   UNL     1       1.849   4.303  19.798  0.00  0.00    +0.000 HD
BRANCH   7  12
ATOM     11  C   UNL     1       3.030   2.542  21.007  0.00  0.00    +0.000 C 
ATOM     12  C   UNL     1       3.864   2.829  19.759  0.00  0.00    +0.000 C 
BRANCH  12  13
ATOM     13  C   UNL     1       3.235   2.206  18.495  0.00  0.00    +0.000 C 
ATOM     14  F   UNL     1       1.901   2.019  18.601  0.00  0.00    +0.000 F 
ATOM     15  F   UNL     1       3.472   2.883  17.354  0.00  0.00    +0.000 F 
ATOM     16  F   UNL     1       3.787   0.970  18.308  0.00  0.00    +0.000 F 
ENDBRANCH  12  13
BRANCH  12  17
ATOM     17  O   UNL     1       5.209   2.349  20.006  0.00  0.00    +0.000 OA
ATOM     18  H   UNL     1       5.547   1.984  19.162  0.00  0.00    +0.000 HD
ENDBRANCH  12  17
ENDBRANCH   7  12
ENDBRANCH   1   9
BRANCH   4  19
ATOM     19  C   UNL     1       1.241  10.378  18.612  0.00  0.00    +0.000 C 
ATOM     20  O   UNL     1       2.119  11.187  18.304  0.00  0.00    +0.000 OA
BRANCH  19  21
ATOM     21  C   UNL     1      -0.169  10.820  18.639  0.00  0.00    +0.000 A 
ATOM     22  C   UNL     1      -0.505  11.903  19.457  0.00  0.00    +0.000 A 
ATOM     23  C   UNL     1      -1.818  12.364  19.497  0.00  0.00    +0.000 A 
ATOM     24  C   UNL     1      -2.800  11.738  18.730  0.00  0.00    +0.000 A 
ATOM     25  C   UNL     1      -2.475  10.637  17.938  0.00  0.00    +0.000 A 
ATOM     26  C   UNL     1      -1.161  10.165  17.901  0.00  0.00    +0.000 A 
ENDBRANCH  19  21
ENDBRANCH   4  19
TORSDOF 6
ENDMDL
MODEL 2
REMARK VINA RESULT:      -7.7      0.128      1.251
REMARK  Name = 
REMARK  7 active torsions:
REMARK  status: ('A' for Active; 'I' for Inactive)
REMARK    1  A    between atoms: C_1  and  C_2
REMARK    2  A    between atoms: C_2  and  O_3
REMARK    3  A    between atoms: C_2  and  C_4
REMARK    4  A    between atoms: C_2  and  C_21
REMARK    5  A    between atoms: N_6  and  C_7
REMARK    6  A    between atoms: C_10  and  C_11
REMARK    7  A    between atoms: C_11  and  C_13
REMARK                            x       y       z     vdW  Elec       q    Type
REMARK                         _______ _______ _______ _____ _____    ______ ____
ROOT
ATOM      1  C   UNL     1       2.329   6.361  19.340  0.00  0.00    +0.000 A 
ATOM      2  C   UNL     1       2.477   6.945  18.079  0.00  0.00    +0.000 A 
ATOM      3  C   UNL     1       2.122   8.274  17.865  0.00  0.00    +0.000 A 
ATOM      4  C   UNL     1       1.620   9.048  18.913  0.00  0.00    +0.000 A 
ATOM      5  C   UNL     1       1.462   8.469  20.176  0.00  0.00    +0.000 A 
ATOM      6  C   UNL     1       1.815   7.128  20.388  0.00  0.00    +0.000 A 
ENDROOT
BRANCH   1   9
ATOM      7  C   UNL     1       3.880   4.410  19.443  0.00  0.00    +0.000 C 
ATOM      8  O   UNL     1       4.926   4.979  19.156  0.00  0.00    +0.000 OA
ATOM      9  N   UNL     1       2.638   5.010  19.588  0.00  0.00    +0.000 N 
ATOM     10  H   UNL     1       1.873   4.386  19.839  0.00  0.00    +0.000 HD
BRANCH   7  12
ATOM     11  C   UNL     1       3.002   2.621  20.907  0.00  0.00    +0.000 C 
ATOM     12  C   UNL     1       3.869   2.896  19.680  0.00  0.00    +0.000 C 
BRANCH  12  13
ATOM     13  C   UNL     1       3.282   2.250  18.408  0.00  0.00    +0.000 C 
ATOM     14  F   UNL     1       3.432   3.015  17.305  0.00  0.00    +0.000 F 
ATOM     15  F   UNL     1       3.756   1.019  18.129  0.00  0.00    +0.000 F 
ATOM     16  F   UNL     1       1.937   2.091  18.591  0.00  0.00    +0.000 F 
ENDBRANCH  12  13
BRANCH  12  17
ATOM     17  O   UNL     1       5.211   2.430  19.973  0.00  0.00    +0.000 OA
ATOM     18  H   UNL     1       5.306   2.415  20.948  0.00  0.00    +0.000 HD
ENDBRANCH  12  17
ENDBRANCH   7  12
ENDBRANCH   1   9
BRANCH   4  19
ATOM     19  C   UNL     1       1.223  10.447  18.604  0.00  0.00    +0.000 C 
ATOM     20  O   UNL     1       2.097  11.265  18.312  0.00  0.00    +0.000 OA
BRANCH  19  21
ATOM     21  C   UNL     1      -0.192  10.876  18.614  0.00  0.00    +0.000 A 
ATOM     22  C   UNL     1      -1.113  10.128  17.875  0.00  0.00    +0.000 A 
ATOM     23  C   UNL     1      -2.459  10.486  17.874  0.00  0.00    +0.000 A 
ATOM     24  C   UNL     1      -2.884  11.598  18.599  0.00  0.00    +0.000 A 
ATOM     25  C   UNL     1      -1.963  12.366  19.310  0.00  0.00    +0.000 A 
ATOM     26  C   UNL     1      -0.611  12.015  19.309  0.00  0.00    +0.000 A 
ENDBRANCH  19  21
ENDBRANCH   4  19
TORSDOF 6
ENDMDL
MODEL 3
REMARK VINA RESULT:      -7.7      1.529      1.880
REMARK  Name = 
REMARK  7 active torsions:
REMARK  status: ('A' for Active; 'I' for Inactive)
REMARK    1  A    between atoms: C_1  and  C_2
REMARK    2  A    between atoms: C_2  and  O_3
REMARK    3  A    between atoms: C_2  and  C_4
REMARK    4  A    between atoms: C_2  and  C_21
REMARK    5  A    between atoms: N_6  and  C_7
REMARK    6  A    between atoms: C_10  and  C_11
REMARK    7  A    between atoms: C_11  and  C_13
REMARK                            x       y       z     vdW  Elec       q    Type
REMARK                         _______ _______ _______ _____ _____    ______ ____
ROOT
ATOM      1  C   UNL     1       2.661   7.293  18.932  0.00  0.00    +0.000 A 
ATOM      2  C   UNL     1       2.623   8.110  17.800  0.00  0.00    +0.000 A 
ATOM      3  C   UNL     1       1.842   9.263  17.780  0.00  0.00    +0.000 A 
ATOM      4  C   UNL     1       1.091   9.625  18.900  0.00  0.00    +0.000 A 
ATOM      5  C   UNL     1       1.118   8.809  20.034  0.00  0.00    +0.000 A 
ATOM      6  C   UNL     1       1.901   7.645  20.050  0.00  0.00    +0.000 A 
ENDROOT
BRANCH   1   9
ATOM      7  C   UNL     1       3.005   4.860  18.502  0.00  0.00    +0.000 C 
ATOM      8  O   UNL     1       1.972   4.623  17.887  0.00  0.00    +0.000 OA
ATOM      9  N   UNL     1       3.406   6.099  18.979  0.00  0.00    +0.000 N 
ATOM     10  H   UNL     1       4.302   6.117  19.463  0.00  0.00    +0.000 HD
BRANCH   7  12
ATOM     11  C   UNL     1       5.324   4.366  19.204  0.00  0.00    +0.000 C 
ATOM     12  C   UNL     1       3.993   3.729  18.806  0.00  0.00    +0.000 C 
BRANCH  12  13
ATOM     13  C   UNL     1       3.386   2.904  19.959  0.00  0.00    +0.000 C 
ATOM     14  F   UNL     1       2.804   3.666  20.910  0.00  0.00    +0.000 F 
ATOM     15  F   UNL     1       2.497   1.965  19.574  0.00  0.00    +0.000 F 
ATOM     16  F   UNL     1       4.397   2.220  20.573  0.00  0.00    +0.000 F 
ENDBRANCH  12  13
BRANCH  12  17
ATOM     17  O   UNL     1       4.222   2.936  17.613  0.00  0.00    +0.000 OA
ATOM     18  H   UNL     1       3.997   3.500  16.843  0.00  0.00    +0.000 HD
ENDBRANCH  12  17
ENDBRANCH   7  12
ENDBRANCH   1   9
BRANCH   4  19
ATOM     19  C   UNL     1       0.249  10.845  18.794  0.00  0.00    +0.000 C 
ATOM     20  O   UNL     1       0.746  11.940  19.068  0.00  0.00    +0.000 OA
BRANCH  19  21
ATOM     21  C   UNL     1      -1.160  10.785  18.349  0.00  0.00    +0.000 A 
ATOM     22  C   UNL     1      -2.082  11.638  18.963  0.00  0.00    +0.000 A 
ATOM     23  C   UNL     1      -3.415  11.628  18.560  0.00  0.00    +0.000 A 
ATOM     24  C   UNL     1      -3.831  10.758  17.553  0.00  0.00    +0.000 A 
ATOM     25  C   UNL     1      -2.921   9.884  16.961  0.00  0.00    +0.000 A 
ATOM     26  C   UNL     1      -1.585   9.884  17.367  0.00  0.00    +0.000 A 
ENDBRANCH  19  21
ENDBRANCH   4  19
TORSDOF 6
ENDMDL
MODEL 4
REMARK VINA RESULT:      -7.7      1.505      2.065
REMARK  Name = 
REMARK  7 active torsions:
REMARK  status: ('A' for Active; 'I' for Inactive)
REMARK    1  A    between atoms: C_1  and  C_2
REMARK    2  A    between atoms: C_2  and  O_3
REMARK    3  A    between atoms: C_2  and  C_4
REMARK    4  A    between atoms: C_2  and  C_21
REMARK    5  A    between atoms: N_6  and  C_7
REMARK    6  A    between atoms: C_10  and  C_11
REMARK    7  A    between atoms: C_11  and  C_13
REMARK                            x       y       z     vdW  Elec       q    Type
REMARK                         _______ _______ _______ _____ _____    ______ ____
ROOT
ATOM      1  C   UNL     1       2.672   7.214  18.934  0.00  0.00    +0.000 A 
ATOM      2  C   UNL     1       1.920   7.594  20.049  0.00  0.00    +0.000 A 
ATOM      3  C   UNL     1       1.146   8.751  20.024  0.00  0.00    +0.000 A 
ATOM      4  C   UNL     1       1.101   9.545  18.877  0.00  0.00    +0.000 A 
ATOM      5  C   UNL     1       1.855   9.176  17.760  0.00  0.00    +0.000 A 
ATOM      6  C   UNL     1       2.640   8.013  17.789  0.00  0.00    +0.000 A 
ENDROOT
BRANCH   1   9
ATOM      7  C   UNL     1       3.176   4.824  18.423  0.00  0.00    +0.000 C 
ATOM      8  O   UNL     1       2.150   4.535  17.817  0.00  0.00    +0.000 OA
ATOM      9  N   UNL     1       3.498   6.074  18.931  0.00  0.00    +0.000 N 
ATOM     10  H   UNL     1       4.400   6.140  19.402  0.00  0.00    +0.000 HD
BRANCH   7  12
ATOM     11  C   UNL     1       5.516   4.468  19.138  0.00  0.00    +0.000 C 
ATOM     12  C   UNL     1       4.245   3.757  18.675  0.00  0.00    +0.000 C 
BRANCH  12  13
ATOM     13  C   UNL     1       3.688   2.816  19.763  0.00  0.00    +0.000 C 
ATOM     14  F   UNL     1       3.016   3.468  20.737  0.00  0.00    +0.000 F 
ATOM     15  F   UNL     1       2.897   1.826  19.301  0.00  0.00    +0.000 F 
ATOM     16  F   UNL     1       4.741   2.190  20.368  0.00  0.00    +0.000 F 
ENDBRANCH  12  13
BRANCH  12  17
ATOM     17  O   UNL     1       4.553   3.061  17.440  0.00  0.00    +0.000 OA
ATOM     18  H   UNL     1       5.263   2.416  17.641  0.00  0.00    +0.000 HD
ENDBRANCH  12  17
ENDBRANCH   7  12
ENDBRANCH   1   9
BRANCH   4  19
ATOM     19  C   UNL     1       0.286  10.787  18.935  0.00  0.00    +0.000 C 
ATOM     20  O   UNL     1       0.809  11.825  19.346  0.00  0.00    +0.000 OA
BRANCH  19  21
ATOM     21  C   UNL     1      -1.124  10.817  18.493  0.00  0.00    +0.000 A 
ATOM     22  C   UNL     1      -1.996  11.702  19.133  0.00  0.00    +0.000 A 
ATOM     23  C   UNL     1      -3.329  11.777  18.735  0.00  0.00    +0.000 A 
ATOM     24  C   UNL     1      -3.794  10.959  17.706  0.00  0.00    +0.000 A 
ATOM     25  C   UNL     1      -2.935  10.052  17.088  0.00  0.00    +0.000 A 
ATOM     26  C   UNL     1      -1.600   9.968  17.489  0.00  0.00    +0.000 A 
ENDBRANCH  19  21
ENDBRANCH   4  19
TORSDOF 6
ENDMDL
MODEL 5
REMARK VINA RESULT:      -7.7      1.497      2.318
REMARK  Name = 
REMARK  7 active torsions:
REMARK  status: ('A' for Active; 'I' for Inactive)
REMARK    1  A    between atoms: C_1  and  C_2
REMARK    2  A    between atoms: C_2  and  O_3
REMARK    3  A    between atoms: C_2  and  C_4
REMARK    4  A    between atoms: C_2  and  C_21
REMARK    5  A    between atoms: N_6  and  C_7
REMARK    6  A    between atoms: C_10  and  C_11
REMARK    7  A    between atoms: C_11  and  C_13
REMARK                            x       y       z     vdW  Elec       q    Type
REMARK                         _______ _______ _______ _____ _____    ______ ____
ROOT
ATOM      1  C   UNL     1       2.738   7.214  18.874  0.00  0.00    +0.000 A 
ATOM      2  C   UNL     1       1.970   7.558  19.988  0.00  0.00    +0.000 A 
ATOM      3  C   UNL     1       1.193   8.714  19.988  0.00  0.00    +0.000 A 
ATOM      4  C   UNL     1       1.162   9.542  18.865  0.00  0.00    +0.000 A 
ATOM      5  C   UNL     1       1.933   9.209  17.748  0.00  0.00    +0.000 A 
ATOM      6  C   UNL     1       2.720   8.047  17.753  0.00  0.00    +0.000 A 
ENDROOT
BRANCH   1   9
ATOM      7  C   UNL     1       3.233   4.824  18.355  0.00  0.00    +0.000 C 
ATOM      8  O   UNL     1       2.189   4.530  17.785  0.00  0.00    +0.000 OA
ATOM      9  N   UNL     1       3.567   6.076  18.849  0.00  0.00    +0.000 N 
ATOM     10  H   UNL     1       4.484   6.147  19.289  0.00  0.00    +0.000 HD
BRANCH   7  12
ATOM     11  C   UNL     1       5.573   4.470  19.071  0.00  0.00    +0.000 C 
ATOM     12  C   UNL     1       4.313   3.761  18.577  0.00  0.00    +0.000 C 
BRANCH  12  13
ATOM     13  C   UNL     1       3.760   2.777  19.629  0.00  0.00    +0.000 C 
ATOM     14  F   UNL     1       2.912   1.863  19.109  0.00  0.00    +0.000 F 
ATOM     15  F   UNL     1       4.702   2.118  20.335  0.00  0.00    +0.000 F 
ATOM     16  F   UNL     1       3.046   3.491  20.549  0.00  0.00    +0.000 F 
ENDBRANCH  12  13
BRANCH  12  17
ATOM     17  O   UNL     1       4.635   3.111  17.321  0.00  0.00    +0.000 OA
ATOM     18  H   UNL     1       4.666   2.147  17.493  0.00  0.00    +0.000 HD
ENDBRANCH  12  17
ENDBRANCH   7  12
ENDBRANCH   1   9
BRANCH   4  19
ATOM     19  C   UNL     1       0.344  10.781  18.948  0.00  0.00    +0.000 C 
ATOM     20  O   UNL     1       0.867  11.815  19.368  0.00  0.00    +0.000 OA
BRANCH  19  21
ATOM     21  C   UNL     1      -1.071  10.811  18.521  0.00  0.00    +0.000 A 
ATOM     22  C   UNL     1      -1.478   9.921  17.523  0.00  0.00    +0.000 A 
ATOM     23  C   UNL     1      -2.806   9.902  17.106  0.00  0.00    +0.000 A 
ATOM     24  C   UNL     1      -3.727  10.781  17.674  0.00  0.00    +0.000 A 
ATOM     25  C   UNL     1      -3.318  11.693  18.647  0.00  0.00    +0.000 A 
ATOM     26  C   UNL     1      -1.985  11.720  19.063  0.00  0.00    +0.000 A 
ENDBRANCH  19  21
ENDBRANCH   4  19
TORSDOF 6
ENDMDL
MODEL 6
REMARK VINA RESULT:      -7.7      1.545      2.168
REMARK  Name = 
REMARK  7 active torsions:
REMARK  status: ('A' for Active; 'I' for Inactive)
REMARK    1  A    between atoms: C_1  and  C_2
REMARK    2  A    between atoms: C_2  and  O_3
REMARK    3  A    between atoms: C_2  and  C_4
REMARK    4  A    between atoms: C_2  and  C_21
REMARK    5  A    between atoms: N_6  and  C_7
REMARK    6  A    between atoms: C_10  and  C_11
REMARK    7  A    between atoms: C_11  and  C_13
REMARK                            x       y       z     vdW  Elec       q    Type
REMARK                         _______ _______ _______ _____ _____    ______ ____
ROOT
ATOM      1  C   UNL     1       2.630   7.318  18.962  0.00  0.00    +0.000 A 
ATOM      2  C   UNL     1       2.623   8.144  17.834  0.00  0.00    +0.000 A 
ATOM      3  C   UNL     1       1.856   9.305  17.807  0.00  0.00    +0.000 A 
ATOM      4  C   UNL     1       1.087   9.669  18.915  0.00  0.00    +0.000 A 
ATOM      5  C   UNL     1       1.083   8.845  20.044  0.00  0.00    +0.000 A 
ATOM      6  C   UNL     1       1.852   7.672  20.067  0.00  0.00    +0.000 A 
ENDROOT
BRANCH   1   9
ATOM      7  C   UNL     1       2.934   4.873  18.571  0.00  0.00    +0.000 C 
ATOM      8  O   UNL     1       1.883   4.639  17.985  0.00  0.00    +0.000 OA
ATOM      9  N   UNL     1       3.361   6.116  19.015  0.00  0.00    +0.000 N 
ATOM     10  H   UNL     1       4.268   6.132  19.478  0.00  0.00    +0.000 HD
BRANCH   7  12
ATOM     11  C   UNL     1       5.260   4.363  19.235  0.00  0.00    +0.000 C 
ATOM     12  C   UNL     1       3.914   3.736  18.874  0.00  0.00    +0.000 C 
BRANCH  12  13
ATOM     13  C   UNL     1       3.321   2.938  20.053  0.00  0.00    +0.000 C 
ATOM     14  F   UNL     1       2.342   2.085  19.679  0.00  0.00    +0.000 F 
ATOM     15  F   UNL     1       4.224   2.245  20.778  0.00  0.00    +0.000 F 
ATOM     16  F   UNL     1       2.753   3.823  20.926  0.00  0.00    +0.000 F 
ENDBRANCH  12  13
BRANCH  12  17
ATOM     17  O   UNL     1       4.110   2.921  17.691  0.00  0.00    +0.000 OA
ATOM     18  H   UNL     1       5.001   3.128  17.340  0.00  0.00    +0.000 HD
ENDBRANCH  12  17
ENDBRANCH   7  12
ENDBRANCH   1   9
BRANCH   4  19
ATOM     19  C   UNL     1       0.260  10.899  18.802  0.00  0.00    +0.000 C 
ATOM     20  O   UNL     1       0.784  11.993  19.025  0.00  0.00    +0.000 OA
BRANCH  19  21
ATOM     21  C   UNL     1      -1.164  10.848  18.407  0.00  0.00    +0.000 A 
ATOM     22  C   UNL     1      -1.547   9.911  17.443  0.00  0.00    +0.000 A 
ATOM     23  C   UNL     1      -2.882   9.816  17.057  0.00  0.00    +0.000 A 
ATOM     24  C   UNL     1      -3.832  10.665  17.623  0.00  0.00    +0.000 A 
ATOM     25  C   UNL     1      -3.447  11.623  18.560  0.00  0.00    +0.000 A 
ATOM     26  C   UNL     1      -2.109  11.727  18.945  0.00  0.00    +0.000 A 
ENDBRANCH  19  21
ENDBRANCH   4  19
TORSDOF 6
ENDMDL
MODEL 7
REMARK VINA RESULT:      -7.6      2.192      2.755
REMARK  Name = 
REMARK  7 active torsions:
REMARK  status: ('A' for Active; 'I' for Inactive)
REMARK    1  A    between atoms: C_1  and  C_2
REMARK    2  A    between atoms: C_2  and  O_3
REMARK    3  A    between atoms: C_2  and  C_4
REMARK    4  A    between atoms: C_2  and  C_21
REMARK    5  A    between atoms: N_6  and  C_7
REMARK    6  A    between atoms: C_10  and  C_11
REMARK    7  A    between atoms: C_11  and  C_13
REMARK                            x       y       z     vdW  Elec       q    Type
REMARK                         _______ _______ _______ _____ _____    ______ ____
ROOT
ATOM      1  C   UNL     1       2.880   7.019  18.389  0.00  0.00    +0.000 A 
ATOM      2  C   UNL     1       2.699   8.056  17.470  0.00  0.00    +0.000 A 
ATOM      3  C   UNL     1       1.942   9.176  17.801  0.00  0.00    +0.000 A 
ATOM      4  C   UNL     1       1.360   9.286  19.065  0.00  0.00    +0.000 A 
ATOM      5  C   UNL     1       1.530   8.250  19.988  0.00  0.00    +0.000 A 
ATOM      6  C   UNL     1       2.288   7.119  19.650  0.00  0.00    +0.000 A 
ENDROOT
BRANCH   1   9
ATOM      7  C   UNL     1       4.951   5.779  17.761  0.00  0.00    +0.000 C 
ATOM      8  O   UNL     1       5.747   6.710  17.778  0.00  0.00    +0.000 OA
ATOM      9  N   UNL     1       3.604   5.851  18.080  0.00  0.00    +0.000 N 
ATOM     10  H   UNL     1       3.087   4.975  18.020  0.00  0.00    +0.000 HD
BRANCH   7  12
ATOM     11  C   UNL     1       4.203   3.451  17.393  0.00  0.00    +0.000 C 
ATOM     12  C   UNL     1       5.419   4.376  17.360  0.00  0.00    +0.000 C 
BRANCH  12  13
ATOM     13  C   UNL     1       6.011   4.493  15.940  0.00  0.00    +0.000 C 
ATOM     14  F   UNL     1       5.287   5.290  15.125  0.00  0.00    +0.000 F 
ATOM     15  F   UNL     1       7.294   4.906  15.896  0.00  0.00    +0.000 F 
ATOM     16  F   UNL     1       6.007   3.250  15.372  0.00  0.00    +0.000 F 
ENDBRANCH  12  13
BRANCH  12  17
ATOM     17  O   UNL     1       6.380   3.879  18.325  0.00  0.00    +0.000 OA
ATOM     18  H   UNL     1       6.333   2.900  18.303  0.00  0.00    +0.000 HD
ENDBRANCH  12  17
ENDBRANCH   7  12
ENDBRANCH   1   9
BRANCH   4  19
ATOM     19  C   UNL     1       0.531  10.490  19.336  0.00  0.00    +0.000 C 
ATOM     20  O   UNL     1       0.994  11.385  20.047  0.00  0.00    +0.000 OA
BRANCH  19  21
ATOM     21  C   UNL     1      -0.820  10.654  18.759  0.00  0.00    +0.000 A 
ATOM     22  C   UNL     1      -1.176   9.845  17.676  0.00  0.00    +0.000 A 
ATOM     23  C   UNL     1      -2.446   9.952  17.115  0.00  0.00    +0.000 A 
ATOM     24  C   UNL     1      -3.358  10.875  17.628  0.00  0.00    +0.000 A 
ATOM     25  C   UNL     1      -2.995  11.705  18.687  0.00  0.00    +0.000 A 
ATOM     26  C   UNL     1      -1.719  11.607  19.247  0.00  0.00    +0.000 A 
ENDBRANCH  19  21
ENDBRANCH   4  19
TORSDOF 6
ENDMDL
MODEL 8
REMARK VINA RESULT:      -7.6      1.092      1.667
REMARK  Name = 
REMARK  7 active torsions:
REMARK  status: ('A' for Active; 'I' for Inactive)
REMARK    1  A    between atoms: C_1  and  C_2
REMARK    2  A    between atoms: C_2  and  O_3
REMARK    3  A    between atoms: C_2  and  C_4
REMARK    4  A    between atoms: C_2  and  C_21
REMARK    5  A    between atoms: N_6  and  C_7
REMARK    6  A    between atoms: C_10  and  C_11
REMARK    7  A    between atoms: C_11  and  C_13
REMARK                            x       y       z     vdW  Elec       q    Type
REMARK                         _______ _______ _______ _____ _____    ______ ____
ROOT
ATOM      1  C   UNL     1       2.383   7.041  19.142  0.00  0.00    +0.000 A 
ATOM      2  C   UNL     1       2.349   7.778  17.955  0.00  0.00    +0.000 A 
ATOM      3  C   UNL     1       1.734   9.026  17.908  0.00  0.00    +0.000 A 
ATOM      4  C   UNL     1       1.149   9.566  19.055  0.00  0.00    +0.000 A 
ATOM      5  C   UNL     1       1.172   8.834  20.244  0.00  0.00    +0.000 A 
ATOM      6  C   UNL     1       1.787   7.573  20.288  0.00  0.00    +0.000 A 
ENDROOT
BRANCH   1   9
ATOM      7  C   UNL     1       4.142   5.350  18.625  0.00  0.00    +0.000 C 
ATOM      8  O   UNL     1       4.919   6.064  18.001  0.00  0.00    +0.000 OA
ATOM      9  N   UNL     1       2.959   5.759  19.221  0.00  0.00    +0.000 N 
ATOM     10  H   UNL     1       2.436   5.033  19.709  0.00  0.00    +0.000 HD
BRANCH   7  12
ATOM     11  C   UNL     1       3.641   3.359  20.002  0.00  0.00    +0.000 C 
ATOM     12  C   UNL     1       4.443   3.859  18.801  0.00  0.00    +0.000 C 
BRANCH  12  13
ATOM     13  C   UNL     1       4.014   3.159  17.495  0.00  0.00    +0.000 C 
ATOM     14  F   UNL     1       3.832   1.829  17.639  0.00  0.00    +0.000 F 
ATOM     15  F   UNL     1       2.909   3.672  16.917  0.00  0.00    +0.000 F 
ATOM     16  F   UNL     1       5.014   3.318  16.577  0.00  0.00    +0.000 F 
ENDBRANCH  12  13
BRANCH  12  17
ATOM     17  O   UNL     1       5.850   3.668  19.100  0.00  0.00    +0.000 OA
ATOM     18  H   UNL     1       6.308   3.510  18.248  0.00  0.00    +0.000 HD
ENDBRANCH  12  17
ENDBRANCH   7  12
ENDBRANCH   1   9
BRANCH   4  19
ATOM     19  C   UNL     1       0.474  10.884  18.923  0.00  0.00    +0.000 C 
ATOM     20  O   UNL     1       1.146  11.913  19.028  0.00  0.00    +0.000 OA
BRANCH  19  21
ATOM     21  C   UNL     1      -0.974  10.996  18.648  0.00  0.00    +0.000 A 
ATOM     22  C   UNL     1      -1.532  10.137  17.696  0.00  0.00    +0.000 A 
ATOM     23  C   UNL     1      -2.896  10.194  17.421  0.00  0.00    +0.000 A 
ATOM     24  C   UNL     1      -3.702  11.117  18.086  0.00  0.00    +0.000 A 
ATOM     25  C   UNL     1      -3.143  11.997  19.012  0.00  0.00    +0.000 A 
ATOM     26  C   UNL     1      -1.775  11.949  19.285  0.00  0.00    +0.000 A 
ENDBRANCH  19  21
ENDBRANCH   4  19
TORSDOF 6
ENDMDL
MODEL 9
REMARK VINA RESULT:      -7.6      1.014      1.228
REMARK  Name = 
REMARK  7 active torsions:
REMARK  status: ('A' for Active; 'I' for Inactive)
REMARK    1  A    between atoms: C_1  and  C_2
REMARK    2  A    between atoms: C_2  and  O_3
REMARK    3  A    between atoms: C_2  and  C_4
REMARK    4  A    between atoms: C_2  and  C_21
REMARK    5  A    between atoms: N_6  and  C_7
REMARK    6  A    between atoms: C_10  and  C_11
REMARK    7  A    between atoms: C_11  and  C_13
REMARK                            x       y       z     vdW  Elec       q    Type
REMARK                         _______ _______ _______ _____ _____    ______ ____
ROOT
ATOM      1  C   UNL     1       2.349   6.975  19.211  0.00  0.00    +0.000 A 
ATOM      2  C   UNL     1       2.330   7.712  18.025  0.00  0.00    +0.000 A 
ATOM      3  C   UNL     1       1.768   8.986  17.987  0.00  0.00    +0.000 A 
ATOM      4  C   UNL     1       1.223   9.550  19.141  0.00  0.00    +0.000 A 
ATOM      5  C   UNL     1       1.231   8.817  20.330  0.00  0.00    +0.000 A 
ATOM      6  C   UNL     1       1.792   7.531  20.365  0.00  0.00    +0.000 A 
ENDROOT
BRANCH   1   9
ATOM      7  C   UNL     1       4.068   5.230  18.738  0.00  0.00    +0.000 C 
ATOM      8  O   UNL     1       4.905   5.930  18.178  0.00  0.00    +0.000 OA
ATOM      9  N   UNL     1       2.871   5.669  19.283  0.00  0.00    +0.000 N 
ATOM     10  H   UNL     1       2.295   4.951  19.720  0.00  0.00    +0.000 HD
BRANCH   7  12
ATOM     11  C   UNL     1       3.435   3.227  20.041  0.00  0.00    +0.000 C 
ATOM     12  C   UNL     1       4.302   3.724  18.885  0.00  0.00    +0.000 C 
BRANCH  12  13
ATOM     13  C   UNL     1       3.895   3.076  17.546  0.00  0.00    +0.000 C 
ATOM     14  F   UNL     1       3.680   1.746  17.642  0.00  0.00    +0.000 F 
ATOM     15  F   UNL     1       2.818   3.631  16.954  0.00  0.00    +0.000 F 
ATOM     16  F   UNL     1       4.924   3.241  16.661  0.00  0.00    +0.000 F 
ENDBRANCH  12  13
BRANCH  12  17
ATOM     17  O   UNL     1       5.688   3.468  19.231  0.00  0.00    +0.000 OA
ATOM     18  H   UNL     1       5.825   3.801  20.143  0.00  0.00    +0.000 HD
ENDBRANCH  12  17
ENDBRANCH   7  12
ENDBRANCH   1   9
BRANCH   4  19
ATOM     19  C   UNL     1       0.603  10.896  19.019  0.00  0.00    +0.000 C 
ATOM     20  O   UNL     1       1.322  11.894  19.103  0.00  0.00    +0.000 OA
BRANCH  19  21
ATOM     21  C   UNL     1      -0.845  11.069  18.777  0.00  0.00    +0.000 A 
ATOM     22  C   UNL     1      -1.540  11.987  19.570  0.00  0.00    +0.000 A 
ATOM     23  C   UNL     1      -2.901  12.196  19.362  0.00  0.00    +0.000 A 
ATOM     24  C   UNL     1      -3.572  11.480  18.371  0.00  0.00    +0.000 A 
ATOM     25  C   UNL     1      -2.889  10.541  17.600  0.00  0.00    +0.000 A 
ATOM     26  C   UNL     1      -1.525  10.322  17.810  0.00  0.00    +0.000 A 
ENDBRANCH  19  21
ENDBRANCH   4  19
TORSDOF 6
ENDMDL
