MODEL 1
REMARK VINA RESULT:      -7.8      0.000      0.000
REMARK  Name = 
REMARK  9 active torsions:
REMARK  status: ('A' for Active; 'I' for Inactive)
REMARK    1  A    between atoms: C_1  and  O_2
REMARK    2  A    between atoms: O_2  and  C_3
REMARK    3  A    between atoms: C_3  and  C_4
REMARK    4  A    between atoms: C_3  and  C_25
REMARK    5  A    between atoms: N_6  and  C_7
REMARK    6  A    between atoms: N_11  and  C_12
REMARK    7  A    between atoms: N_15  and  C_16
REMARK    8  A    between atoms: C_16  and  C_17
REMARK    9  A    between atoms: C_20  and  C_21
REMARK                            x       y       z     vdW  Elec       q    Type
REMARK                         _______ _______ _______ _____ _____    ______ ____
ROOT
ATOM      1  C   UNL     1       3.737   3.104  17.771  0.00  0.00    +0.000 A 
ATOM      2  C   UNL     1       2.781   2.413  17.050  0.00  0.00    +0.000 A 
ATOM      3  C   UNL     1       1.660   2.330  17.878  0.00  0.00    +0.000 A 
ATOM      4  N   UNL     1       1.871   2.893  19.064  0.00  0.00    +0.000 NA
ATOM      5  N   UNL     1       3.130   3.376  18.994  0.00  0.00    +0.000 N 
ENDROOT
BRANCH   5   6
ATOM      6  C   UNL     1       3.647   4.129  20.144  0.00  0.00    +0.000 C 
ATOM      7  C   UNL     1       2.562   4.625  21.129  0.00  0.00    +0.000 C 
ATOM      8  C   UNL     1       1.729   5.809  20.591  0.00  0.00    +0.000 C 
ATOM      9  N   UNL     1       2.535   6.908  20.027  0.00  0.00    +0.000 NA
ATOM     10  C   UNL     1       3.594   6.428  19.121  0.00  0.00    +0.000 C 
ATOM     11  C   UNL     1       4.477   5.343  19.730  0.00  0.00    +0.000 C 
BRANCH   9  12
ATOM     12  C   UNL     1       1.669   7.819  19.224  0.00  0.00    +0.000 C 
BRANCH  12  13
ATOM     13  C   UNL     1       0.947   8.896  19.955  0.00  0.00    +0.000 A 
ATOM     14  C   UNL     1       0.202  10.006  19.612  0.00  0.00    +0.000 A 
ATOM     15  C   UNL     1      -0.329  10.526  20.824  0.00  0.00    +0.000 A 
ATOM     16  C   UNL     1       0.121   9.701  21.831  0.00  0.00    +0.000 A 
ATOM     17  C   UNL     1      -0.112   9.638  23.288  0.00  0.00    +0.000 C 
ATOM     18  O   UNL     1       0.913   8.725  21.312  0.00  0.00    +0.000 OA
ENDBRANCH  12  13
ENDBRANCH   9  12
ENDBRANCH   5   6
BRANCH   1  21
ATOM     19  C   UNL     1       5.316   4.602  16.518  0.00  0.00    +0.000 C 
ATOM     20  O   UNL     1       4.428   5.391  16.214  0.00  0.00    +0.000 OA
ATOM     21  N   UNL     1       5.024   3.431  17.341  0.00  0.00    +0.000 N 
ATOM     22  H   UNL     1       5.802   2.852  17.631  0.00  0.00    +0.000 HD
BRANCH  19  23
ATOM     23  C   UNL     1       6.767   4.778  16.026  0.00  0.00    +0.000 C 
BRANCH  23  24
ATOM     24  C   UNL     1       6.835   4.594  14.519  0.00  0.00    +0.000 A 
ATOM     25  C   UNL     1       7.733   5.350  13.750  0.00  0.00    +0.000 A 
ATOM     26  C   UNL     1       7.824   5.143  12.373  0.00  0.00    +0.000 A 
ATOM     27  C   UNL     1       7.029   4.178  11.755  0.00  0.00    +0.000 A 
ATOM     28  C   UNL     1       6.131   3.426  12.506  0.00  0.00    +0.000 A 
ATOM     29  C   UNL     1       6.031   3.636  13.878  0.00  0.00    +0.000 A 
ENDBRANCH  23  24
BRANCH  23  31
ATOM     30  C   UNL     1       7.403   6.335  17.726  0.00  0.00    +0.000 C 
ATOM     31  O   UNL     1       7.366   6.034  16.337  0.00  0.00    +0.000 OA
ENDBRANCH  23  31
ENDBRANCH  19  23
ENDBRANCH   1  21
TORSDOF 7
ENDMDL
MODEL 2
REMARK VINA RESULT:      -7.7      1.354      1.790
REMARK  Name = 
REMARK  9 active torsions:
REMARK  status: ('A' for Active; 'I' for Inactive)
REMARK    1  A    between atoms: C_1  and  O_2
REMARK    2  A    between atoms: O_2  and  C_3
REMARK    3  A    between atoms: C_3  and  C_4
REMARK    4  A    between atoms: C_3  and  C_25
REMARK    5  A    between atoms: N_6  and  C_7
REMARK    6  A    between atoms: N_11  and  C_12
REMARK    7  A    between atoms: N_15  and  C_16
REMARK    8  A    between atoms: C_16  and  C_17
REMARK    9  A    between atoms: C_20  and  C_21
REMARK                            x       y       z     vdW  Elec       q    Type
REMARK                         _______ _______ _______ _____ _____    ______ ____
ROOT
ATOM      1  C   UNL     1       3.461   3.256  17.994  0.00  0.00    +0.000 A 
ATOM      2  C   UNL     1       2.467   2.494  17.409  0.00  0.00    +0.000 A 
ATOM      3  C   UNL     1       1.316   2.714  18.168  0.00  0.00    +0.000 A 
ATOM      4  N   UNL     1       1.541   3.531  19.192  0.00  0.00    +0.000 NA
ATOM      5  N   UNL     1       2.842   3.872  19.078  0.00  0.00    +0.000 N 
ENDROOT
BRANCH   5   6
ATOM      6  C   UNL     1       3.392   4.837  20.039  0.00  0.00    +0.000 C 
ATOM      7  C   UNL     1       2.330   5.577  20.887  0.00  0.00    +0.000 C 
ATOM      8  C   UNL     1       1.540   6.645  20.100  0.00  0.00    +0.000 C 
ATOM      9  N   UNL     1       2.386   7.563  19.314  0.00  0.00    +0.000 NA
ATOM     10  C   UNL     1       3.423   6.858  18.539  0.00  0.00    +0.000 C 
ATOM     11  C   UNL     1       4.266   5.899  19.374  0.00  0.00    +0.000 C 
BRANCH   9  12
ATOM     12  C   UNL     1       1.553   8.310  18.327  0.00  0.00    +0.000 C 
BRANCH  12  13
ATOM     13  C   UNL     1       1.231   9.730  18.639  0.00  0.00    +0.000 A 
ATOM     14  C   UNL     1       0.304  10.393  19.416  0.00  0.00    +0.000 A 
ATOM     15  C   UNL     1       0.654  11.770  19.376  0.00  0.00    +0.000 A 
ATOM     16  C   UNL     1       1.776  11.862  18.582  0.00  0.00    +0.000 A 
ATOM     17  C   UNL     1       2.670  12.972  18.193  0.00  0.00    +0.000 C 
ATOM     18  O   UNL     1       2.116  10.632  18.115  0.00  0.00    +0.000 OA
ENDBRANCH  12  13
ENDBRANCH   9  12
ENDBRANCH   5   6
BRANCH   1  21
ATOM     19  C   UNL     1       5.221   4.267  16.515  0.00  0.00    +0.000 C 
ATOM     20  O   UNL     1       4.426   5.038  15.988  0.00  0.00    +0.000 OA
ATOM     21  N   UNL     1       4.787   3.355  17.570  0.00  0.00    +0.000 N 
ATOM     22  H   UNL     1       5.494   2.793  18.029  0.00  0.00    +0.000 HD
BRANCH  19  23
ATOM     23  C   UNL     1       6.697   4.190  16.076  0.00  0.00    +0.000 C 
BRANCH  23  24
ATOM     24  C   UNL     1       6.799   4.289  14.563  0.00  0.00    +0.000 A 
ATOM     25  C   UNL     1       7.642   5.242  13.968  0.00  0.00    +0.000 A 
ATOM     26  C   UNL     1       7.766   5.296  12.579  0.00  0.00    +0.000 A 
ATOM     27  C   UNL     1       7.062   4.400  11.775  0.00  0.00    +0.000 A 
ATOM     28  C   UNL     1       6.219   3.456  12.353  0.00  0.00    +0.000 A 
ATOM     29  C   UNL     1       6.085   3.404  13.737  0.00  0.00    +0.000 A 
ENDBRANCH  23  24
BRANCH  23  31
ATOM     30  C   UNL     1       7.596   5.187  18.055  0.00  0.00    +0.000 C 
ATOM     31  O   UNL     1       7.550   5.187  16.635  0.00  0.00    +0.000 OA
ENDBRANCH  23  31
ENDBRANCH  19  23
ENDBRANCH   1  21
TORSDOF 7
ENDMDL
MODEL 3
REMARK VINA RESULT:      -7.6      1.013      1.476
REMARK  Name = 
REMARK  9 active torsions:
REMARK  status: ('A' for Active; 'I' for Inactive)
REMARK    1  A    between atoms: C_1  and  O_2
REMARK    2  A    between atoms: O_2  and  C_3
REMARK    3  A    between atoms: C_3  and  C_4
REMARK    4  A    between atoms: C_3  and  C_25
REMARK    5  A    between atoms: N_6  and  C_7
REMARK    6  A    between atoms: N_11  and  C_12
REMARK    7  A    between atoms: N_15  and  C_16
REMARK    8  A    between atoms: C_16  and  C_17
REMARK    9  A    between atoms: C_20  and  C_21
REMARK                            x       y       z     vdW  Elec       q    Type
REMARK                         _______ _______ _______ _____ _____    ______ ____
ROOT
ATOM      1  C   UNL     1       3.721   3.037  17.989  0.00  0.00    +0.000 A 
ATOM      2  C   UNL     1       2.791   2.245  17.342  0.00  0.00    +0.000 A 
ATOM      3  C   UNL     1       1.644   2.269  18.137  0.00  0.00    +0.000 A 
ATOM      4  N   UNL     1       1.815   2.993  19.239  0.00  0.00    +0.000 NA
ATOM      5  N   UNL     1       3.074   3.472  19.142  0.00  0.00    +0.000 N 
ENDROOT
BRANCH   5   6
ATOM      6  C   UNL     1       3.552   4.381  20.192  0.00  0.00    +0.000 C 
ATOM      7  C   UNL     1       2.443   4.932  21.120  0.00  0.00    +0.000 C 
ATOM      8  C   UNL     1       1.547   5.999  20.452  0.00  0.00    +0.000 C 
ATOM      9  N   UNL     1       2.293   7.064  19.756  0.00  0.00    +0.000 NA
ATOM     10  C   UNL     1       3.375   6.537  18.905  0.00  0.00    +0.000 C 
ATOM     11  C   UNL     1       4.315   5.579  19.632  0.00  0.00    +0.000 C 
BRANCH   9  12
ATOM     12  C   UNL     1       1.380   7.827  18.858  0.00  0.00    +0.000 C 
BRANCH  12  13
ATOM     13  C   UNL     1       1.475   9.313  18.889  0.00  0.00    +0.000 A 
ATOM     14  C   UNL     1       2.012  10.294  18.081  0.00  0.00    +0.000 A 
ATOM     15  C   UNL     1       1.612  11.539  18.636  0.00  0.00    +0.000 A 
ATOM     16  C   UNL     1       0.853  11.243  19.747  0.00  0.00    +0.000 A 
ATOM     17  C   UNL     1       0.092  12.057  20.717  0.00  0.00    +0.000 C 
ATOM     18  O   UNL     1       0.785   9.896  19.917  0.00  0.00    +0.000 OA
ENDBRANCH  12  13
ENDBRANCH   9  12
ENDBRANCH   5   6
BRANCH   1  21
ATOM     19  C   UNL     1       5.337   4.372  16.605  0.00  0.00    +0.000 C 
ATOM     20  O   UNL     1       4.459   5.116  16.182  0.00  0.00    +0.000 OA
ATOM     21  N   UNL     1       5.020   3.311  17.558  0.00  0.00    +0.000 N 
ATOM     22  H   UNL     1       5.789   2.773  17.939  0.00  0.00    +0.000 HD
BRANCH  19  23
ATOM     23  C   UNL     1       6.802   4.488  16.137  0.00  0.00    +0.000 C 
BRANCH  23  24
ATOM     24  C   UNL     1       6.875   4.393  14.622  0.00  0.00    +0.000 A 
ATOM     25  C   UNL     1       6.084   3.463  13.928  0.00  0.00    +0.000 A 
ATOM     26  C   UNL     1       6.122   3.414  12.534  0.00  0.00    +0.000 A 
ATOM     27  C   UNL     1       6.940   4.291  11.822  0.00  0.00    +0.000 A 
ATOM     28  C   UNL     1       7.733   5.212  12.499  0.00  0.00    +0.000 A 
ATOM     29  C   UNL     1       7.705   5.260  13.889  0.00  0.00    +0.000 A 
ENDBRANCH  23  24
BRANCH  23  31
ATOM     30  C   UNL     1       7.552   5.874  17.935  0.00  0.00    +0.000 C 
ATOM     31  O   UNL     1       7.472   5.685  16.529  0.00  0.00    +0.000 OA
ENDBRANCH  23  31
ENDBRANCH  19  23
ENDBRANCH   1  21
TORSDOF 7
ENDMDL
MODEL 4
REMARK VINA RESULT:      -7.5      1.112      1.519
REMARK  Name = 
REMARK  9 active torsions:
REMARK  status: ('A' for Active; 'I' for Inactive)
REMARK    1  A    between atoms: C_1  and  O_2
REMARK    2  A    between atoms: O_2  and  C_3
REMARK    3  A    between atoms: C_3  and  C_4
REMARK    4  A    between atoms: C_3  and  C_25
REMARK    5  A    between atoms: N_6  and  C_7
REMARK    6  A    between atoms: N_11  and  C_12
REMARK    7  A    between atoms: N_15  and  C_16
REMARK    8  A    between atoms: C_16  and  C_17
REMARK    9  A    between atoms: C_20  and  C_21
REMARK                            x       y       z     vdW  Elec       q    Type
REMARK                         _______ _______ _______ _____ _____    ______ ____
ROOT
ATOM      1  C   UNL     1       3.674   3.313  17.893  0.00  0.00    +0.000 A 
ATOM      2  C   UNL     1       2.740   2.514  17.261  0.00  0.00    +0.000 A 
ATOM      3  C   UNL     1       1.596   2.552  18.060  0.00  0.00    +0.000 A 
ATOM      4  N   UNL     1       1.773   3.292  19.150  0.00  0.00    +0.000 NA
ATOM      5  N   UNL     1       3.032   3.767  19.042  0.00  0.00    +0.000 N 
ENDROOT
BRANCH   5   6
ATOM      6  C   UNL     1       3.515   4.690  20.076  0.00  0.00    +0.000 C 
ATOM      7  C   UNL     1       2.399   5.396  20.882  0.00  0.00    +0.000 C 
ATOM      8  C   UNL     1       1.661   6.497  20.089  0.00  0.00    +0.000 C 
ATOM      9  N   UNL     1       2.556   7.446  19.399  0.00  0.00    +0.000 NA
ATOM     10  C   UNL     1       3.643   6.772  18.667  0.00  0.00    +0.000 C 
ATOM     11  C   UNL     1       4.430   5.777  19.516  0.00  0.00    +0.000 C 
BRANCH   9  12
ATOM     12  C   UNL     1       1.789   8.234  18.391  0.00  0.00    +0.000 C 
BRANCH  12  13
ATOM     13  C   UNL     1       0.919   9.330  18.899  0.00  0.00    +0.000 A 
ATOM     14  C   UNL     1       0.921  10.183  19.983  0.00  0.00    +0.000 A 
ATOM     15  C   UNL     1      -0.144  11.101  19.777  0.00  0.00    +0.000 A 
ATOM     16  C   UNL     1      -0.729  10.756  18.579  0.00  0.00    +0.000 A 
ATOM     17  C   UNL     1      -1.818  11.332  17.764  0.00  0.00    +0.000 C 
ATOM     18  O   UNL     1      -0.102   9.669  18.053  0.00  0.00    +0.000 OA
ENDBRANCH  12  13
ENDBRANCH   9  12
ENDBRANCH   5   6
BRANCH   1  21
ATOM     19  C   UNL     1       5.285   4.611  16.469  0.00  0.00    +0.000 C 
ATOM     20  O   UNL     1       4.404   5.340  16.024  0.00  0.00    +0.000 OA
ATOM     21  N   UNL     1       4.972   3.578  17.453  0.00  0.00    +0.000 N 
ATOM     22  H   UNL     1       5.743   3.055  17.849  0.00  0.00    +0.000 HD
BRANCH  19  23
ATOM     23  C   UNL     1       6.749   4.718  15.997  0.00  0.00    +0.000 C 
BRANCH  23  24
ATOM     24  C   UNL     1       6.827   4.543  14.489  0.00  0.00    +0.000 A 
ATOM     25  C   UNL     1       7.700   5.334  13.725  0.00  0.00    +0.000 A 
ATOM     26  C   UNL     1       7.800   5.136  12.348  0.00  0.00    +0.000 A 
ATOM     27  C   UNL     1       7.040   4.148  11.723  0.00  0.00    +0.000 A 
ATOM     28  C   UNL     1       6.167   3.362  12.469  0.00  0.00    +0.000 A 
ATOM     29  C   UNL     1       6.057   3.561  13.841  0.00  0.00    +0.000 A 
ENDBRANCH  23  24
BRANCH  23  31
ATOM     30  C   UNL     1       7.393   6.255  17.712  0.00  0.00    +0.000 C 
ATOM     31  O   UNL     1       7.406   5.940  16.326  0.00  0.00    +0.000 OA
ENDBRANCH  23  31
ENDBRANCH  19  23
ENDBRANCH   1  21
TORSDOF 7
ENDMDL
MODEL 5
REMARK VINA RESULT:      -7.3      3.719      6.766
REMARK  Name = 
REMARK  9 active torsions:
REMARK  status: ('A' for Active; 'I' for Inactive)
REMARK    1  A    between atoms: C_1  and  O_2
REMARK    2  A    between atoms: O_2  and  C_3
REMARK    3  A    between atoms: C_3  and  C_4
REMARK    4  A    between atoms: C_3  and  C_25
REMARK    5  A    between atoms: N_6  and  C_7
REMARK    6  A    between atoms: N_11  and  C_12
REMARK    7  A    between atoms: N_15  and  C_16
REMARK    8  A    between atoms: C_16  and  C_17
REMARK    9  A    between atoms: C_20  and  C_21
REMARK                            x       y       z     vdW  Elec       q    Type
REMARK                         _______ _______ _______ _____ _____    ______ ____
ROOT
ATOM      1  C   UNL     1       1.255   8.684  20.291  0.00  0.00    +0.000 A 
ATOM      2  C   UNL     1       0.955   8.434  21.616  0.00  0.00    +0.000 A 
ATOM      3  C   UNL     1      -0.034   9.354  21.968  0.00  0.00    +0.000 A 
ATOM      4  N   UNL     1      -0.338  10.170  20.964  0.00  0.00    +0.000 NA
ATOM      5  N   UNL     1       0.435   9.753  19.938  0.00  0.00    +0.000 N 
ENDROOT
BRANCH   5   6
ATOM      6  C   UNL     1       0.282  10.421  18.640  0.00  0.00    +0.000 C 
ATOM      7  C   UNL     1       0.319  11.967  18.702  0.00  0.00    +0.000 C 
ATOM      8  C   UNL     1      -0.960  12.595  19.299  0.00  0.00    +0.000 C 
ATOM      9  N   UNL     1      -2.214  12.076  18.722  0.00  0.00    +0.000 NA
ATOM     10  C   UNL     1      -2.229  10.605  18.626  0.00  0.00    +0.000 C 
ATOM     11  C   UNL     1      -1.006  10.024  17.921  0.00  0.00    +0.000 C 
BRANCH   9  12
ATOM     12  C   UNL     1      -3.371  12.457  19.582  0.00  0.00    +0.000 C 
BRANCH  12  13
ATOM     13  C   UNL     1      -4.728  12.049  19.123  0.00  0.00    +0.000 A 
ATOM     14  C   UNL     1      -5.345  11.833  17.908  0.00  0.00    +0.000 A 
ATOM     15  C   UNL     1      -6.634  11.309  18.197  0.00  0.00    +0.000 A 
ATOM     16  C   UNL     1      -6.724  11.234  19.570  0.00  0.00    +0.000 A 
ATOM     17  C   UNL     1      -7.747  10.725  20.506  0.00  0.00    +0.000 C 
ATOM     18  O   UNL     1      -5.579  11.702  20.136  0.00  0.00    +0.000 OA
ENDBRANCH  12  13
ENDBRANCH   9  12
ENDBRANCH   5   6
BRANCH   1  21
ATOM     19  C   UNL     1       2.429   6.566  19.624  0.00  0.00    +0.000 C 
ATOM     20  O   UNL     1       1.763   5.880  20.392  0.00  0.00    +0.000 OA
ATOM     21  N   UNL     1       2.189   8.003  19.509  0.00  0.00    +0.000 N 
ATOM     22  H   UNL     1       2.709   8.513  18.806  0.00  0.00    +0.000 HD
BRANCH  19  23
ATOM     23  C   UNL     1       3.567   5.969  18.773  0.00  0.00    +0.000 C 
BRANCH  23  24
ATOM     24  C   UNL     1       3.407   4.461  18.669  0.00  0.00    +0.000 A 
ATOM     25  C   UNL     1       2.513   3.903  17.742  0.00  0.00    +0.000 A 
ATOM     26  C   UNL     1       2.406   2.517  17.619  0.00  0.00    +0.000 A 
ATOM     27  C   UNL     1       3.191   1.679  18.411  0.00  0.00    +0.000 A 
ATOM     28  C   UNL     1       4.076   2.221  19.337  0.00  0.00    +0.000 A 
ATOM     29  C   UNL     1       4.180   3.602  19.470  0.00  0.00    +0.000 A 
ENDBRANCH  23  24
BRANCH  23  31
ATOM     30  C   UNL     1       4.994   6.504  16.930  0.00  0.00    +0.000 C 
ATOM     31  O   UNL     1       3.671   6.486  17.448  0.00  0.00    +0.000 OA
ENDBRANCH  23  31
ENDBRANCH  19  23
ENDBRANCH   1  21
TORSDOF 7
ENDMDL
MODEL 6
REMARK VINA RESULT:      -7.3      3.747      6.774
REMARK  Name = 
REMARK  9 active torsions:
REMARK  status: ('A' for Active; 'I' for Inactive)
REMARK    1  A    between atoms: C_1  and  O_2
REMARK    2  A    between atoms: O_2  and  C_3
REMARK    3  A    between atoms: C_3  and  C_4
REMARK    4  A    between atoms: C_3  and  C_25
REMARK    5  A    between atoms: N_6  and  C_7
REMARK    6  A    between atoms: N_11  and  C_12
REMARK    7  A    between atoms: N_15  and  C_16
REMARK    8  A    between atoms: C_16  and  C_17
REMARK    9  A    between atoms: C_20  and  C_21
REMARK                            x       y       z     vdW  Elec       q    Type
REMARK                         _______ _______ _______ _____ _____    ______ ____
ROOT
ATOM      1  C   UNL     1       1.024   8.815  20.571  0.00  0.00    +0.000 A 
ATOM      2  C   UNL     1       0.537   8.336  21.772  0.00  0.00    +0.000 A 
ATOM      3  C   UNL     1      -0.351   9.306  22.241  0.00  0.00    +0.000 A 
ATOM      4  N   UNL     1      -0.419  10.356  21.429  0.00  0.00    +0.000 NA
ATOM      5  N   UNL     1       0.407  10.052  20.406  0.00  0.00    +0.000 N 
ENDROOT
BRANCH   5   6
ATOM      6  C   UNL     1       0.502  10.998  19.288  0.00  0.00    +0.000 C 
ATOM      7  C   UNL     1      -0.534  12.147  19.326  0.00  0.00    +0.000 C 
ATOM      8  C   UNL     1      -1.970  11.701  18.969  0.00  0.00    +0.000 C 
ATOM      9  N   UNL     1      -2.061  10.889  17.741  0.00  0.00    +0.000 NA
ATOM     10  C   UNL     1      -1.046   9.822  17.689  0.00  0.00    +0.000 C 
ATOM     11  C   UNL     1       0.378  10.318  17.926  0.00  0.00    +0.000 C 
BRANCH   9  12
ATOM     12  C   UNL     1      -3.390  10.215  17.670  0.00  0.00    +0.000 C 
BRANCH  12  13
ATOM     13  C   UNL     1      -4.600  11.079  17.745  0.00  0.00    +0.000 A 
ATOM     14  C   UNL     1      -5.232  11.982  16.915  0.00  0.00    +0.000 A 
ATOM     15  C   UNL     1      -6.444  12.345  17.561  0.00  0.00    +0.000 A 
ATOM     16  C   UNL     1      -6.480  11.639  18.744  0.00  0.00    +0.000 A 
ATOM     17  C   UNL     1      -7.473  11.504  19.829  0.00  0.00    +0.000 C 
ATOM     18  O   UNL     1      -5.355  10.888  18.870  0.00  0.00    +0.000 OA
ENDBRANCH  12  13
ENDBRANCH   9  12
ENDBRANCH   5   6
BRANCH   1  21
ATOM     19  C   UNL     1       2.279   6.760  19.855  0.00  0.00    +0.000 C 
ATOM     20  O   UNL     1       1.713   6.049  20.678  0.00  0.00    +0.000 OA
ATOM     21  N   UNL     1       1.943   8.176  19.735  0.00  0.00    +0.000 N 
ATOM     22  H   UNL     1       2.380   8.705  18.990  0.00  0.00    +0.000 HD
BRANCH  19  23
ATOM     23  C   UNL     1       3.392   6.217  18.935  0.00  0.00    +0.000 C 
BRANCH  23  24
ATOM     24  C   UNL     1       3.228   4.718  18.745  0.00  0.00    +0.000 A 
ATOM     25  C   UNL     1       4.079   3.820  19.408  0.00  0.00    +0.000 A 
ATOM     26  C   UNL     1       3.893   2.445  19.266  0.00  0.00    +0.000 A 
ATOM     27  C   UNL     1       2.857   1.954  18.471  0.00  0.00    +0.000 A 
ATOM     28  C   UNL     1       2.012   2.835  17.804  0.00  0.00    +0.000 A 
ATOM     29  C   UNL     1       2.199   4.207  17.935  0.00  0.00    +0.000 A 
ENDBRANCH  23  24
BRANCH  23  31
ATOM     30  C   UNL     1       4.737   6.753  17.032  0.00  0.00    +0.000 C 
ATOM     31  O   UNL     1       3.454   6.814  17.641  0.00  0.00    +0.000 OA
ENDBRANCH  23  31
ENDBRANCH  19  23
ENDBRANCH   1  21
TORSDOF 7
ENDMDL
MODEL 7
REMARK VINA RESULT:      -7.2      3.628      6.305
REMARK  Name = 
REMARK  9 active torsions:
REMARK  status: ('A' for Active; 'I' for Inactive)
REMARK    1  A    between atoms: C_1  and  O_2
REMARK    2  A    between atoms: O_2  and  C_3
REMARK    3  A    between atoms: C_3  and  C_4
REMARK    4  A    between atoms: C_3  and  C_25
REMARK    5  A    between atoms: N_6  and  C_7
REMARK    6  A    between atoms: N_11  and  C_12
REMARK    7  A    between atoms: N_15  and  C_16
REMARK    8  A    between atoms: C_16  and  C_17
REMARK    9  A    between atoms: C_20  and  C_21
REMARK                            x       y       z     vdW  Elec       q    Type
REMARK                         _______ _______ _______ _____ _____    ______ ____
ROOT
ATOM      1  C   UNL     1       1.706   8.155  19.889  0.00  0.00    +0.000 A 
ATOM      2  C   UNL     1       1.487   7.796  21.206  0.00  0.00    +0.000 A 
ATOM      3  C   UNL     1       0.782   8.855  21.781  0.00  0.00    +0.000 A 
ATOM      4  N   UNL     1       0.582   9.848  20.921  0.00  0.00    +0.000 NA
ATOM      5  N   UNL     1       1.132   9.417  19.766  0.00  0.00    +0.000 N 
ENDROOT
BRANCH   5   6
ATOM      6  C   UNL     1       1.014  10.274  18.580  0.00  0.00    +0.000 C 
ATOM      7  C   UNL     1       0.892  11.786  18.889  0.00  0.00    +0.000 C 
ATOM      8  C   UNL     1      -0.485  12.196  19.456  0.00  0.00    +0.000 C 
ATOM      9  N   UNL     1      -1.632  11.674  18.691  0.00  0.00    +0.000 NA
ATOM     10  C   UNL     1      -1.494  10.244  18.363  0.00  0.00    +0.000 C 
ATOM     11  C   UNL     1      -0.168   9.894  17.692  0.00  0.00    +0.000 C 
BRANCH   9  12
ATOM     12  C   UNL     1      -2.885  11.807  19.489  0.00  0.00    +0.000 C 
BRANCH  12  13
ATOM     13  C   UNL     1      -4.155  12.012  18.740  0.00  0.00    +0.000 A 
ATOM     14  C   UNL     1      -4.666  11.619  17.521  0.00  0.00    +0.000 A 
ATOM     15  C   UNL     1      -6.020  12.051  17.492  0.00  0.00    +0.000 A 
ATOM     16  C   UNL     1      -6.253  12.678  18.696  0.00  0.00    +0.000 A 
ATOM     17  C   UNL     1      -7.446  13.280  19.326  0.00  0.00    +0.000 C 
ATOM     18  O   UNL     1      -5.120  12.676  19.447  0.00  0.00    +0.000 OA
ENDBRANCH  12  13
ENDBRANCH   9  12
ENDBRANCH   5   6
BRANCH   1  21
ATOM     19  C   UNL     1       2.844   6.036  19.163  0.00  0.00    +0.000 C 
ATOM     20  O   UNL     1       2.617   5.473  20.229  0.00  0.00    +0.000 OA
ATOM     21  N   UNL     1       2.372   7.398  18.923  0.00  0.00    +0.000 N 
ATOM     22  H   UNL     1       2.515   7.791  18.001  0.00  0.00    +0.000 HD
BRANCH  19  23
ATOM     23  C   UNL     1       3.659   5.362  18.041  0.00  0.00    +0.000 C 
BRANCH  23  24
ATOM     24  C   UNL     1       5.122   5.763  18.145  0.00  0.00    +0.000 A 
ATOM     25  C   UNL     1       5.672   6.685  17.241  0.00  0.00    +0.000 A 
ATOM     26  C   UNL     1       7.003   7.084  17.371  0.00  0.00    +0.000 A 
ATOM     27  C   UNL     1       7.791   6.575  18.403  0.00  0.00    +0.000 A 
ATOM     28  C   UNL     1       7.258   5.655  19.301  0.00  0.00    +0.000 A 
ATOM     29  C   UNL     1       5.934   5.248  19.170  0.00  0.00    +0.000 A 
ENDBRANCH  23  24
BRANCH  23  31
ATOM     30  C   UNL     1       2.475   3.411  17.329  0.00  0.00    +0.000 C 
ATOM     31  O   UNL     1       3.600   3.937  18.019  0.00  0.00    +0.000 OA
ENDBRANCH  23  31
ENDBRANCH  19  23
ENDBRANCH   1  21
TORSDOF 7
ENDMDL
MODEL 8
REMARK VINA RESULT:      -7.2      1.906      3.221
REMARK  Name = 
REMARK  9 active torsions:
REMARK  status: ('A' for Active; 'I' for Inactive)
REMARK    1  A    between atoms: C_1  and  O_2
REMARK    2  A    between atoms: O_2  and  C_3
REMARK    3  A    between atoms: C_3  and  C_4
REMARK    4  A    between atoms: C_3  and  C_25
REMARK    5  A    between atoms: N_6  and  C_7
REMARK    6  A    between atoms: N_11  and  C_12
REMARK    7  A    between atoms: N_15  and  C_16
REMARK    8  A    between atoms: C_16  and  C_17
REMARK    9  A    between atoms: C_20  and  C_21
REMARK                            x       y       z     vdW  Elec       q    Type
REMARK                         _______ _______ _______ _____ _____    ______ ____
ROOT
ATOM      1  C   UNL     1       2.113   3.979  18.279  0.00  0.00    +0.000 A 
ATOM      2  C   UNL     1       1.143   3.028  18.023  0.00  0.00    +0.000 A 
ATOM      3  C   UNL     1       0.418   2.890  19.208  0.00  0.00    +0.000 A 
ATOM      4  N   UNL     1       0.892   3.664  20.178  0.00  0.00    +0.000 NA
ATOM      5  N   UNL     1       1.915   4.338  19.609  0.00  0.00    +0.000 N 
ENDROOT
BRANCH   5   6
ATOM      6  C   UNL     1       2.616   5.343  20.417  0.00  0.00    +0.000 C 
ATOM      7  C   UNL     1       1.700   6.428  21.034  0.00  0.00    +0.000 C 
ATOM      8  C   UNL     1       1.178   7.457  20.007  0.00  0.00    +0.000 C 
ATOM      9  N   UNL     1       2.224   8.022  19.134  0.00  0.00    +0.000 NA
ATOM     10  C   UNL     1       3.121   6.990  18.581  0.00  0.00    +0.000 C 
ATOM     11  C   UNL     1       3.715   6.064  19.639  0.00  0.00    +0.000 C 
BRANCH   9  12
ATOM     12  C   UNL     1       1.602   8.712  17.967  0.00  0.00    +0.000 C 
BRANCH  12  13
ATOM     13  C   UNL     1       0.695   9.857  18.255  0.00  0.00    +0.000 A 
ATOM     14  C   UNL     1      -0.650  10.124  18.106  0.00  0.00    +0.000 A 
ATOM     15  C   UNL     1      -0.886  11.378  18.731  0.00  0.00    +0.000 A 
ATOM     16  C   UNL     1       0.329  11.798  19.228  0.00  0.00    +0.000 A 
ATOM     17  C   UNL     1       0.764  12.960  20.030  0.00  0.00    +0.000 C 
ATOM     18  O   UNL     1       1.294  10.890  18.922  0.00  0.00    +0.000 OA
ENDBRANCH  12  13
ENDBRANCH   9  12
ENDBRANCH   5   6
BRANCH   1  21
ATOM     19  C   UNL     1       4.245   3.670  16.988  0.00  0.00    +0.000 C 
ATOM     20  O   UNL     1       4.404   2.526  17.401  0.00  0.00    +0.000 OA
ATOM     21  N   UNL     1       3.072   4.448  17.379  0.00  0.00    +0.000 N 
ATOM     22  H   UNL     1       2.944   5.357  16.951  0.00  0.00    +0.000 HD
BRANCH  19  23
ATOM     23  C   UNL     1       5.276   4.358  16.071  0.00  0.00    +0.000 C 
BRANCH  23  24
ATOM     24  C   UNL     1       6.180   5.266  16.889  0.00  0.00    +0.000 A 
ATOM     25  C   UNL     1       6.979   4.736  17.914  0.00  0.00    +0.000 A 
ATOM     26  C   UNL     1       7.842   5.568  18.630  0.00  0.00    +0.000 A 
ATOM     27  C   UNL     1       7.921   6.926  18.325  0.00  0.00    +0.000 A 
ATOM     28  C   UNL     1       7.129   7.463  17.315  0.00  0.00    +0.000 A 
ATOM     29  C   UNL     1       6.261   6.640  16.605  0.00  0.00    +0.000 A 
ENDBRANCH  23  24
BRANCH  23  31
ATOM     30  C   UNL     1       6.399   3.920  14.006  0.00  0.00    +0.000 C 
ATOM     31  O   UNL     1       6.110   3.474  15.324  0.00  0.00    +0.000 OA
ENDBRANCH  23  31
ENDBRANCH  19  23
ENDBRANCH   1  21
TORSDOF 7
ENDMDL
MODEL 9
REMARK VINA RESULT:      -7.1      3.172      5.838
REMARK  Name = 
REMARK  9 active torsions:
REMARK  status: ('A' for Active; 'I' for Inactive)
REMARK    1  A    between atoms: C_1  and  O_2
REMARK    2  A    between atoms: O_2  and  C_3
REMARK    3  A    between atoms: C_3  and  C_4
REMARK    4  A    between atoms: C_3  and  C_25
REMARK    5  A    between atoms: N_6  and  C_7
REMARK    6  A    between atoms: N_11  and  C_12
REMARK    7  A    between atoms: N_15  and  C_16
REMARK    8  A    between atoms: C_16  and  C_17
REMARK    9  A    between atoms: C_20  and  C_21
REMARK                            x       y       z     vdW  Elec       q    Type
REMARK                         _______ _______ _______ _____ _____    ______ ____
ROOT
ATOM      1  C   UNL     1       1.807   8.051  19.846  0.00  0.00    +0.000 A 
ATOM      2  C   UNL     1       1.654   7.748  21.186  0.00  0.00    +0.000 A 
ATOM      3  C   UNL     1       0.837   8.748  21.716  0.00  0.00    +0.000 A 
ATOM      4  N   UNL     1       0.504   9.658  20.805  0.00  0.00    +0.000 NA
ATOM      5  N   UNL     1       1.082   9.226  19.664  0.00  0.00    +0.000 N 
ENDROOT
BRANCH   5   6
ATOM      6  C   UNL     1       0.842   9.991  18.434  0.00  0.00    +0.000 C 
ATOM      7  C   UNL     1       1.692  11.277  18.299  0.00  0.00    +0.000 C 
ATOM      8  C   UNL     1       1.239  12.423  19.230  0.00  0.00    +0.000 C 
ATOM      9  N   UNL     1      -0.211  12.690  19.196  0.00  0.00    +0.000 NA
ATOM     10  C   UNL     1      -1.018  11.459  19.283  0.00  0.00    +0.000 C 
ATOM     11  C   UNL     1      -0.622  10.393  18.266  0.00  0.00    +0.000 C 
BRANCH   9  12
ATOM     12  C   UNL     1      -0.605  13.538  20.357  0.00  0.00    +0.000 C 
BRANCH  12  13
ATOM     13  C   UNL     1      -1.447  12.908  21.411  0.00  0.00    +0.000 A 
ATOM     14  C   UNL     1      -1.224  12.172  22.556  0.00  0.00    +0.000 A 
ATOM     15  C   UNL     1      -2.488  12.009  23.185  0.00  0.00    +0.000 A 
ATOM     16  C   UNL     1      -3.405  12.659  22.387  0.00  0.00    +0.000 A 
ATOM     17  C   UNL     1      -4.853  12.927  22.497  0.00  0.00    +0.000 C 
ATOM     18  O   UNL     1      -2.782  13.186  21.300  0.00  0.00    +0.000 OA
ENDBRANCH  12  13
ENDBRANCH   9  12
ENDBRANCH   5   6
BRANCH   1  21
ATOM     19  C   UNL     1       2.731   5.877  18.994  0.00  0.00    +0.000 C 
ATOM     20  O   UNL     1       2.190   5.225  19.882  0.00  0.00    +0.000 OA
ATOM     21  N   UNL     1       2.542   7.323  18.910  0.00  0.00    +0.000 N 
ATOM     22  H   UNL     1       2.944   7.806  18.116  0.00  0.00    +0.000 HD
BRANCH  19  23
ATOM     23  C   UNL     1       3.658   5.222  17.951  0.00  0.00    +0.000 C 
BRANCH  23  24
ATOM     24  C   UNL     1       5.083   5.717  18.133  0.00  0.00    +0.000 A 
ATOM     25  C   UNL     1       5.882   5.218  19.175  0.00  0.00    +0.000 A 
ATOM     26  C   UNL     1       7.204   5.642  19.308  0.00  0.00    +0.000 A 
ATOM     27  C   UNL     1       7.743   6.557  18.404  0.00  0.00    +0.000 A 
ATOM     28  C   UNL     1       6.960   7.063  17.371  0.00  0.00    +0.000 A 
ATOM     29  C   UNL     1       5.637   6.650  17.239  0.00  0.00    +0.000 A 
ENDBRANCH  23  24
BRANCH  23  31
ATOM     30  C   UNL     1       2.716   3.178  17.141  0.00  0.00    +0.000 C 
ATOM     31  O   UNL     1       3.688   3.796  17.974  0.00  0.00    +0.000 OA
ENDBRANCH  23  31
ENDBRANCH  19  23
ENDBRANCH   1  21
TORSDOF 7
ENDMDL
