MODEL 1
REMARK VINA RESULT:      -6.7      0.000      0.000
REMARK  Name = 
REMARK  13 active torsions:
REMARK  status: ('A' for Active; 'I' for Inactive)
REMARK    1  A    between atoms: C_1  and  C_2
REMARK    2  A    between atoms: C_2  and  C_3
REMARK    3  A    between atoms: C_3  and  N_4
REMARK    4  A    between atoms: C_11  and  C_12
REMARK    5  A    between atoms: C_12  and  C_13
REMARK    6  A    between atoms: C_13  and  N_14
REMARK    7  A    between atoms: N_14  and  C_15
REMARK    8  A    between atoms: N_14  and  C_16
REMARK    9  A    between atoms: C_16  and  C_17
REMARK   10  A    between atoms: C_17  and  C_18
REMARK   11  A    between atoms: C_18  and  C_19
REMARK   12  A    between atoms: C_19  and  C_20
REMARK   13  A    between atoms: C_20  and  C_21
REMARK                            x       y       z     vdW  Elec       q    Type
REMARK                         _______ _______ _______ _____ _____    ______ ____
ROOT
ATOM      1  C   UNL     1       3.020   5.655  19.924  0.00  0.00    +0.000 C 
ENDROOT
BRANCH   1   9
ATOM      2  N   UNL     1      -0.855  12.763  20.356  0.00  0.00    +0.000 NA
ATOM      3  C   UNL     1      -0.393  11.873  21.448  0.00  0.00    +0.000 C 
ATOM      4  C   UNL     1      -0.338  10.412  20.995  0.00  0.00    +0.000 C 
ATOM      5  N   UNL     1       0.481  10.305  19.797  0.00  0.00    +0.000 N 
ATOM      6  C   UNL     1       1.255   9.130  19.567  0.00  0.00    +0.000 A 
ATOM      7  N   UNL     1       1.861   8.859  18.386  0.00  0.00    +0.000 NA
ATOM      8  C   UNL     1       2.497   7.661  18.408  0.00  0.00    +0.000 A 
ATOM      9  C   UNL     1       2.396   6.973  19.612  0.00  0.00    +0.000 A 
ATOM     10  S   UNL     1       1.480   7.881  20.682  0.00  0.00    +0.000 S 
ATOM     11  C   UNL     1       0.197  11.212  18.693  0.00  0.00    +0.000 C 
ATOM     12  C   UNL     1       0.083  12.657  19.215  0.00  0.00    +0.000 C 
BRANCH   2  13
ATOM     13  C   UNL     1      -2.270  12.564  19.943  0.00  0.00    +0.000 C 
BRANCH  13  15
ATOM     14  C   UNL     1      -3.500  14.410  21.190  0.00  0.00    +0.000 C 
ATOM     15  C   UNL     1      -3.279  12.906  21.053  0.00  0.00    +0.000 C 
ENDBRANCH  13  15
ENDBRANCH   2  13
ENDBRANCH   1   9
BRANCH   1  16
ATOM     16  C   UNL     1       2.187   4.961  21.010  0.00  0.00    +0.000 C 
BRANCH  16  17
ATOM     17  N   UNL     1       2.470   3.513  21.145  0.00  0.00    +0.000 NA
ATOM     18  C   UNL     1       1.246   2.707  20.976  0.00  0.00    +0.000 C 
BRANCH  17  19
ATOM     19  C   UNL     1       3.460   3.069  20.129  0.00  0.00    +0.000 C 
BRANCH  19  20
ATOM     20  C   UNL     1       2.836   2.289  18.961  0.00  0.00    +0.000 C 
BRANCH  20  21
ATOM     21  C   UNL     1       3.704   2.341  17.697  0.00  0.00    +0.000 C 
BRANCH  21  22
ATOM     22  C   UNL     1       3.635   3.744  17.099  0.00  0.00    +0.000 C 
BRANCH  22  23
ATOM     23  C   UNL     1       4.824   4.055  16.183  0.00  0.00    +0.000 C 
BRANCH  23  24
ATOM     24  C   UNL     1       5.766   4.993  16.894  0.00  0.00    +0.000 A 
ATOM     25  C   UNL     1       5.700   6.378  16.654  0.00  0.00    +0.000 A 
ATOM     26  C   UNL     1       6.598   7.246  17.277  0.00  0.00    +0.000 A 
ATOM     27  C   UNL     1       7.564   6.744  18.151  0.00  0.00    +0.000 A 
ATOM     28  C   UNL     1       7.631   5.371  18.407  0.00  0.00    +0.000 A 
ATOM     29  C   UNL     1       6.734   4.497  17.783  0.00  0.00    +0.000 A 
ENDBRANCH  23  24
ENDBRANCH  22  23
ENDBRANCH  21  22
ENDBRANCH  20  21
ENDBRANCH  19  20
ENDBRANCH  17  19
ENDBRANCH  16  17
ENDBRANCH   1  16
TORSDOF 11
ENDMDL
MODEL 2
REMARK VINA RESULT:      -6.6      1.536      2.337
REMARK  Name = 
REMARK  13 active torsions:
REMARK  status: ('A' for Active; 'I' for Inactive)
REMARK    1  A    between atoms: C_1  and  C_2
REMARK    2  A    between atoms: C_2  and  C_3
REMARK    3  A    between atoms: C_3  and  N_4
REMARK    4  A    between atoms: C_11  and  C_12
REMARK    5  A    between atoms: C_12  and  C_13
REMARK    6  A    between atoms: C_13  and  N_14
REMARK    7  A    between atoms: N_14  and  C_15
REMARK    8  A    between atoms: N_14  and  C_16
REMARK    9  A    between atoms: C_16  and  C_17
REMARK   10  A    between atoms: C_17  and  C_18
REMARK   11  A    between atoms: C_18  and  C_19
REMARK   12  A    between atoms: C_19  and  C_20
REMARK   13  A    between atoms: C_20  and  C_21
REMARK                            x       y       z     vdW  Elec       q    Type
REMARK                         _______ _______ _______ _____ _____    ______ ____
ROOT
ATOM      1  C   UNL     1       2.484   7.622  18.897  0.00  0.00    +0.000 C 
ENDROOT
BRANCH   1   9
ATOM      2  N   UNL     1      -2.052  13.358  22.397  0.00  0.00    +0.000 NA
ATOM      3  C   UNL     1      -1.030  12.468  22.997  0.00  0.00    +0.000 C 
ATOM      4  C   UNL     1      -0.910  11.152  22.225  0.00  0.00    +0.000 C 
ATOM      5  N   UNL     1      -0.657  11.434  20.820  0.00  0.00    +0.000 N 
ATOM      6  C   UNL     1       0.146  10.542  20.049  0.00  0.00    +0.000 A 
ATOM      7  N   UNL     1       0.245  10.609  18.701  0.00  0.00    +0.000 NA
ATOM      8  C   UNL     1       1.034   9.625  18.202  0.00  0.00    +0.000 A 
ATOM      9  C   UNL     1       1.564   8.768  19.159  0.00  0.00    +0.000 A 
ATOM     10  S   UNL     1       1.029   9.244  20.674  0.00  0.00    +0.000 S 
ATOM     11  C   UNL     1      -1.529  12.388  20.148  0.00  0.00    +0.000 C 
ATOM     12  C   UNL     1      -1.669  13.664  20.999  0.00  0.00    +0.000 C 
BRANCH   2  13
ATOM     13  C   UNL     1      -3.451  12.866  22.503  0.00  0.00    +0.000 C 
BRANCH  13  15
ATOM     14  C   UNL     1      -4.645  12.304  24.680  0.00  0.00    +0.000 C 
ATOM     15  C   UNL     1      -4.196  13.415  23.733  0.00  0.00    +0.000 C 
ENDBRANCH  13  15
ENDBRANCH   2  13
ENDBRANCH   1   9
BRANCH   1  16
ATOM     16  C   UNL     1       2.304   6.582  20.011  0.00  0.00    +0.000 C 
BRANCH  16  17
ATOM     17  N   UNL     1       3.288   5.476  19.960  0.00  0.00    +0.000 NA
ATOM     18  C   UNL     1       2.639   4.167  20.166  0.00  0.00    +0.000 C 
BRANCH  17  19
ATOM     19  C   UNL     1       3.982   5.446  18.646  0.00  0.00    +0.000 C 
BRANCH  19  20
ATOM     20  C   UNL     1       3.297   4.542  17.608  0.00  0.00    +0.000 C 
BRANCH  20  21
ATOM     21  C   UNL     1       4.280   3.569  16.944  0.00  0.00    +0.000 C 
BRANCH  21  22
ATOM     22  C   UNL     1       5.048   4.303  15.847  0.00  0.00    +0.000 C 
BRANCH  22  23
ATOM     23  C   UNL     1       6.566   4.133  15.975  0.00  0.00    +0.000 C 
BRANCH  23  24
ATOM     24  C   UNL     1       7.104   5.177  16.920  0.00  0.00    +0.000 A 
ATOM     25  C   UNL     1       7.601   4.801  18.182  0.00  0.00    +0.000 A 
ATOM     26  C   UNL     1       8.060   5.768  19.077  0.00  0.00    +0.000 A 
ATOM     27  C   UNL     1       8.036   7.118  18.721  0.00  0.00    +0.000 A 
ATOM     28  C   UNL     1       7.555   7.503  17.466  0.00  0.00    +0.000 A 
ATOM     29  C   UNL     1       7.093   6.537  16.566  0.00  0.00    +0.000 A 
ENDBRANCH  23  24
ENDBRANCH  22  23
ENDBRANCH  21  22
ENDBRANCH  20  21
ENDBRANCH  19  20
ENDBRANCH  17  19
ENDBRANCH  16  17
ENDBRANCH   1  16
TORSDOF 11
ENDMDL
MODEL 3
REMARK VINA RESULT:      -6.4      1.719      4.085
REMARK  Name = 
REMARK  13 active torsions:
REMARK  status: ('A' for Active; 'I' for Inactive)
REMARK    1  A    between atoms: C_1  and  C_2
REMARK    2  A    between atoms: C_2  and  C_3
REMARK    3  A    between atoms: C_3  and  N_4
REMARK    4  A    between atoms: C_11  and  C_12
REMARK    5  A    between atoms: C_12  and  C_13
REMARK    6  A    between atoms: C_13  and  N_14
REMARK    7  A    between atoms: N_14  and  C_15
REMARK    8  A    between atoms: N_14  and  C_16
REMARK    9  A    between atoms: C_16  and  C_17
REMARK   10  A    between atoms: C_17  and  C_18
REMARK   11  A    between atoms: C_18  and  C_19
REMARK   12  A    between atoms: C_19  and  C_20
REMARK   13  A    between atoms: C_20  and  C_21
REMARK                            x       y       z     vdW  Elec       q    Type
REMARK                         _______ _______ _______ _____ _____    ______ ____
ROOT
ATOM      1  C   UNL     1       3.034   6.414  19.140  0.00  0.00    +0.000 C 
ENDROOT
BRANCH   1   9
ATOM      2  N   UNL     1      -1.408  13.182  19.581  0.00  0.00    +0.000 NA
ATOM      3  C   UNL     1      -0.867  12.485  18.390  0.00  0.00    +0.000 C 
ATOM      4  C   UNL     1       0.404  11.702  18.726  0.00  0.00    +0.000 C 
ATOM      5  N   UNL     1       0.139  10.799  19.836  0.00  0.00    +0.000 N 
ATOM      6  C   UNL     1       0.815   9.545  19.909  0.00  0.00    +0.000 A 
ATOM      7  N   UNL     1       0.795   8.753  21.007  0.00  0.00    +0.000 NA
ATOM      8  C   UNL     1       1.548   7.639  20.840  0.00  0.00    +0.000 A 
ATOM      9  C   UNL     1       2.174   7.542  19.603  0.00  0.00    +0.000 A 
ATOM     10  S   UNL     1       1.783   8.891  18.689  0.00  0.00    +0.000 S 
ATOM     11  C   UNL     1      -0.500  11.347  21.025  0.00  0.00    +0.000 C 
ATOM     12  C   UNL     1      -1.732  12.181  20.624  0.00  0.00    +0.000 C 
BRANCH   2  13
ATOM     13  C   UNL     1      -0.554  14.283  20.103  0.00  0.00    +0.000 C 
BRANCH  13  15
ATOM     14  C   UNL     1       1.253  15.628  18.918  0.00  0.00    +0.000 C 
ATOM     15  C   UNL     1      -0.245  15.361  19.050  0.00  0.00    +0.000 C 
ENDBRANCH  13  15
ENDBRANCH   2  13
ENDBRANCH   1   9
BRANCH   1  16
ATOM     16  C   UNL     1       3.554   6.737  17.733  0.00  0.00    +0.000 C 
BRANCH  16  17
ATOM     17  N   UNL     1       5.031   6.735  17.627  0.00  0.00    +0.000 NA
ATOM     18  C   UNL     1       5.647   5.908  18.683  0.00  0.00    +0.000 C 
BRANCH  17  19
ATOM     19  C   UNL     1       5.467   6.201  16.310  0.00  0.00    +0.000 C 
BRANCH  19  20
ATOM     20  C   UNL     1       5.848   4.712  16.344  0.00  0.00    +0.000 C 
BRANCH  20  21
ATOM     21  C   UNL     1       4.651   3.798  16.053  0.00  0.00    +0.000 C 
BRANCH  21  22
ATOM     22  C   UNL     1       4.345   2.964  17.295  0.00  0.00    +0.000 C 
BRANCH  22  23
ATOM     23  C   UNL     1       2.864   2.580  17.399  0.00  0.00    +0.000 C 
BRANCH  23  24
ATOM     24  C   UNL     1       2.398   2.785  18.818  0.00  0.00    +0.000 A 
ATOM     25  C   UNL     1       1.110   3.291  19.073  0.00  0.00    +0.000 A 
ATOM     26  C   UNL     1       0.690   3.523  20.384  0.00  0.00    +0.000 A 
ATOM     27  C   UNL     1       1.545   3.246  21.452  0.00  0.00    +0.000 A 
ATOM     28  C   UNL     1       2.822   2.732  21.211  0.00  0.00    +0.000 A 
ATOM     29  C   UNL     1       3.249   2.499  19.899  0.00  0.00    +0.000 A 
ENDBRANCH  23  24
ENDBRANCH  22  23
ENDBRANCH  21  22
ENDBRANCH  20  21
ENDBRANCH  19  20
ENDBRANCH  17  19
ENDBRANCH  16  17
ENDBRANCH   1  16
TORSDOF 11
ENDMDL
MODEL 4
REMARK VINA RESULT:      -6.4      1.357      1.656
REMARK  Name = 
REMARK  13 active torsions:
REMARK  status: ('A' for Active; 'I' for Inactive)
REMARK    1  A    between atoms: C_1  and  C_2
REMARK    2  A    between atoms: C_2  and  C_3
REMARK    3  A    between atoms: C_3  and  N_4
REMARK    4  A    between atoms: C_11  and  C_12
REMARK    5  A    between atoms: C_12  and  C_13
REMARK    6  A    between atoms: C_13  and  N_14
REMARK    7  A    between atoms: N_14  and  C_15
REMARK    8  A    between atoms: N_14  and  C_16
REMARK    9  A    between atoms: C_16  and  C_17
REMARK   10  A    between atoms: C_17  and  C_18
REMARK   11  A    between atoms: C_18  and  C_19
REMARK   12  A    between atoms: C_19  and  C_20
REMARK   13  A    between atoms: C_20  and  C_21
REMARK                            x       y       z     vdW  Elec       q    Type
REMARK                         _______ _______ _______ _____ _____    ______ ____
ROOT
ATOM      1  C   UNL     1       2.949   7.028  18.665  0.00  0.00    +0.000 C 
ENDROOT
BRANCH   1   9
ATOM      2  N   UNL     1      -1.653  12.960  21.724  0.00  0.00    +0.000 NA
ATOM      3  C   UNL     1      -0.582  12.168  22.373  0.00  0.00    +0.000 C 
ATOM      4  C   UNL     1      -0.444  10.782  21.738  0.00  0.00    +0.000 C 
ATOM      5  N   UNL     1      -0.250  10.924  20.303  0.00  0.00    +0.000 N 
ATOM      6  C   UNL     1       0.556   9.981  19.598  0.00  0.00    +0.000 A 
ATOM      7  N   UNL     1       0.607   9.911  18.247  0.00  0.00    +0.000 NA
ATOM      8  C   UNL     1       1.410   8.904  17.823  0.00  0.00    +0.000 A 
ATOM      9  C   UNL     1       2.002   8.166  18.843  0.00  0.00    +0.000 A 
ATOM     10  S   UNL     1       1.503   8.782  20.319  0.00  0.00    +0.000 S 
ATOM     11  C   UNL     1      -1.175  11.776  19.569  0.00  0.00    +0.000 C 
ATOM     12  C   UNL     1      -1.329  13.129  20.289  0.00  0.00    +0.000 C 
BRANCH   2  13
ATOM     13  C   UNL     1      -3.031  12.439  21.933  0.00  0.00    +0.000 C 
BRANCH  13  15
ATOM     14  C   UNL     1      -4.093  12.511  24.245  0.00  0.00    +0.000 C 
ATOM     15  C   UNL     1      -3.845  13.268  22.942  0.00  0.00    +0.000 C 
ENDBRANCH  13  15
ENDBRANCH   2  13
ENDBRANCH   1   9
BRANCH   1  16
ATOM     16  C   UNL     1       2.140   5.730  18.537  0.00  0.00    +0.000 C 
BRANCH  16  17
ATOM     17  N   UNL     1       2.386   4.762  19.632  0.00  0.00    +0.000 NA
ATOM     18  C   UNL     1       1.167   4.531  20.431  0.00  0.00    +0.000 C 
BRANCH  17  19
ATOM     19  C   UNL     1       2.838   3.454  19.090  0.00  0.00    +0.000 C 
BRANCH  19  20
ATOM     20  C   UNL     1       4.259   3.489  18.504  0.00  0.00    +0.000 C 
BRANCH  20  21
ATOM     21  C   UNL     1       4.288   3.091  17.022  0.00  0.00    +0.000 C 
BRANCH  21  22
ATOM     22  C   UNL     1       4.811   4.266  16.199  0.00  0.00    +0.000 C 
BRANCH  22  23
ATOM     23  C   UNL     1       6.337   4.250  16.050  0.00  0.00    +0.000 C 
BRANCH  23  24
ATOM     24  C   UNL     1       6.938   5.262  16.992  0.00  0.00    +0.000 A 
ATOM     25  C   UNL     1       6.970   6.624  16.640  0.00  0.00    +0.000 A 
ATOM     26  C   UNL     1       7.563   7.558  17.490  0.00  0.00    +0.000 A 
ATOM     27  C   UNL     1       8.123   7.147  18.701  0.00  0.00    +0.000 A 
ATOM     28  C   UNL     1       8.086   5.798  19.066  0.00  0.00    +0.000 A 
ATOM     29  C   UNL     1       7.494   4.857  18.217  0.00  0.00    +0.000 A 
ENDBRANCH  23  24
ENDBRANCH  22  23
ENDBRANCH  21  22
ENDBRANCH  20  21
ENDBRANCH  19  20
ENDBRANCH  17  19
ENDBRANCH  16  17
ENDBRANCH   1  16
TORSDOF 11
ENDMDL
MODEL 5
REMARK VINA RESULT:      -6.4      1.482      2.045
REMARK  Name = 
REMARK  13 active torsions:
REMARK  status: ('A' for Active; 'I' for Inactive)
REMARK    1  A    between atoms: C_1  and  C_2
REMARK    2  A    between atoms: C_2  and  C_3
REMARK    3  A    between atoms: C_3  and  N_4
REMARK    4  A    between atoms: C_11  and  C_12
REMARK    5  A    between atoms: C_12  and  C_13
REMARK    6  A    between atoms: C_13  and  N_14
REMARK    7  A    between atoms: N_14  and  C_15
REMARK    8  A    between atoms: N_14  and  C_16
REMARK    9  A    between atoms: C_16  and  C_17
REMARK   10  A    between atoms: C_17  and  C_18
REMARK   11  A    between atoms: C_18  and  C_19
REMARK   12  A    between atoms: C_19  and  C_20
REMARK   13  A    between atoms: C_20  and  C_21
REMARK                            x       y       z     vdW  Elec       q    Type
REMARK                         _______ _______ _______ _____ _____    ______ ____
ROOT
ATOM      1  C   UNL     1       2.814   6.537  18.896  0.00  0.00    +0.000 C 
ENDROOT
BRANCH   1   9
ATOM      2  N   UNL     1      -1.375  13.421  19.786  0.00  0.00    +0.000 NA
ATOM      3  C   UNL     1      -1.003  12.698  18.548  0.00  0.00    +0.000 C 
ATOM      4  C   UNL     1       0.282  11.886  18.736  0.00  0.00    +0.000 C 
ATOM      5  N   UNL     1       0.134  11.002  19.882  0.00  0.00    +0.000 N 
ATOM      6  C   UNL     1       0.782   9.732  19.889  0.00  0.00    +0.000 A 
ATOM      7  N   UNL     1       0.879   8.953  20.992  0.00  0.00    +0.000 NA
ATOM      8  C   UNL     1       1.579   7.817  20.749  0.00  0.00    +0.000 A 
ATOM      9  C   UNL     1       2.045   7.692  19.445  0.00  0.00    +0.000 A 
ATOM     10  S   UNL     1       1.577   9.040  18.568  0.00  0.00    +0.000 S 
ATOM     11  C   UNL     1      -0.341  11.579  21.133  0.00  0.00    +0.000 C 
ATOM     12  C   UNL     1      -1.592  12.439  20.875  0.00  0.00    +0.000 C 
BRANCH   2  13
ATOM     13  C   UNL     1      -0.438  14.505  20.185  0.00  0.00    +0.000 C 
BRANCH  13  15
ATOM     14  C   UNL     1      -0.858  16.799  19.165  0.00  0.00    +0.000 C 
ATOM     15  C   UNL     1      -0.110  15.474  19.035  0.00  0.00    +0.000 C 
ENDBRANCH  13  15
ENDBRANCH   2  13
ENDBRANCH   1   9
BRANCH   1  16
ATOM     16  C   UNL     1       3.026   5.510  20.017  0.00  0.00    +0.000 C 
BRANCH  16  17
ATOM     17  N   UNL     1       2.266   4.253  19.826  0.00  0.00    +0.000 NA
ATOM     18  C   UNL     1       1.282   4.049  20.906  0.00  0.00    +0.000 C 
BRANCH  17  19
ATOM     19  C   UNL     1       1.535   4.267  18.532  0.00  0.00    +0.000 C 
BRANCH  19  20
ATOM     20  C   UNL     1       2.390   3.815  17.337  0.00  0.00    +0.000 C 
BRANCH  20  21
ATOM     21  C   UNL     1       3.489   2.826  17.748  0.00  0.00    +0.000 C 
BRANCH  21  22
ATOM     22  C   UNL     1       4.773   3.162  16.993  0.00  0.00    +0.000 C 
BRANCH  22  23
ATOM     23  C   UNL     1       4.781   4.596  16.450  0.00  0.00    +0.000 C 
BRANCH  23  24
ATOM     24  C   UNL     1       5.855   5.386  17.154  0.00  0.00    +0.000 A 
ATOM     25  C   UNL     1       6.070   6.737  16.823  0.00  0.00    +0.000 A 
ATOM     26  C   UNL     1       7.091   7.461  17.441  0.00  0.00    +0.000 A 
ATOM     27  C   UNL     1       7.902   6.849  18.399  0.00  0.00    +0.000 A 
ATOM     28  C   UNL     1       7.689   5.511  18.744  0.00  0.00    +0.000 A 
ATOM     29  C   UNL     1       6.668   4.781  18.126  0.00  0.00    +0.000 A 
ENDBRANCH  23  24
ENDBRANCH  22  23
ENDBRANCH  21  22
ENDBRANCH  20  21
ENDBRANCH  19  20
ENDBRANCH  17  19
ENDBRANCH  16  17
ENDBRANCH   1  16
TORSDOF 11
ENDMDL
MODEL 6
REMARK VINA RESULT:      -6.4      3.518      5.484
REMARK  Name = 
REMARK  13 active torsions:
REMARK  status: ('A' for Active; 'I' for Inactive)
REMARK    1  A    between atoms: C_1  and  C_2
REMARK    2  A    between atoms: C_2  and  C_3
REMARK    3  A    between atoms: C_3  and  N_4
REMARK    4  A    between atoms: C_11  and  C_12
REMARK    5  A    between atoms: C_12  and  C_13
REMARK    6  A    between atoms: C_13  and  N_14
REMARK    7  A    between atoms: N_14  and  C_15
REMARK    8  A    between atoms: N_14  and  C_16
REMARK    9  A    between atoms: C_16  and  C_17
REMARK   10  A    between atoms: C_17  and  C_18
REMARK   11  A    between atoms: C_18  and  C_19
REMARK   12  A    between atoms: C_19  and  C_20
REMARK   13  A    between atoms: C_20  and  C_21
REMARK                            x       y       z     vdW  Elec       q    Type
REMARK                         _______ _______ _______ _____ _____    ______ ____
ROOT
ATOM      1  C   UNL     1       4.661   4.558  17.834  0.00  0.00    +0.000 C 
ENDROOT
BRANCH   1   9
ATOM      2  N   UNL     1      -0.133  10.778  19.848  0.00  0.00    +0.000 NA
ATOM      3  C   UNL     1       0.324  10.334  18.510  0.00  0.00    +0.000 C 
ATOM      4  C   UNL     1       1.671   9.612  18.587  0.00  0.00    +0.000 C 
ATOM      5  N   UNL     1       1.581   8.518  19.543  0.00  0.00    +0.000 N 
ATOM      6  C   UNL     1       2.339   7.328  19.335  0.00  0.00    +0.000 A 
ATOM      7  N   UNL     1       2.484   6.366  20.276  0.00  0.00    +0.000 NA
ATOM      8  C   UNL     1       3.286   5.359  19.850  0.00  0.00    +0.000 A 
ATOM      9  C   UNL     1       3.784   5.520  18.562  0.00  0.00    +0.000 A 
ATOM     10  S   UNL     1       3.215   6.966  17.936  0.00  0.00    +0.000 S 
ATOM     11  C   UNL     1       1.036   8.808  20.862  0.00  0.00    +0.000 C 
ATOM     12  C   UNL     1      -0.282   9.594  20.727  0.00  0.00    +0.000 C 
BRANCH   2  13
ATOM     13  C   UNL     1       0.698  11.841  20.472  0.00  0.00    +0.000 C 
BRANCH  13  15
ATOM     14  C   UNL     1      -0.341  13.343  22.246  0.00  0.00    +0.000 C 
ATOM     15  C   UNL     1      -0.086  13.135  20.755  0.00  0.00    +0.000 C 
ENDBRANCH  13  15
ENDBRANCH   2  13
ENDBRANCH   1   9
BRANCH   1  16
ATOM     16  C   UNL     1       6.112   4.775  18.287  0.00  0.00    +0.000 C 
BRANCH  16  17
ATOM     17  N   UNL     1       7.071   4.920  17.168  0.00  0.00    +0.000 NA
ATOM     18  C   UNL     1       6.653   4.132  15.993  0.00  0.00    +0.000 C 
BRANCH  17  19
ATOM     19  C   UNL     1       7.189   6.343  16.753  0.00  0.00    +0.000 C 
BRANCH  19  20
ATOM     20  C   UNL     1       7.752   7.260  17.850  0.00  0.00    +0.000 C 
BRANCH  20  21
ATOM     21  C   UNL     1       7.309   8.719  17.674  0.00  0.00    +0.000 C 
BRANCH  21  22
ATOM     22  C   UNL     1       8.516   9.635  17.864  0.00  0.00    +0.000 C 
BRANCH  22  23
ATOM     23  C   UNL     1       9.049   9.618  19.302  0.00  0.00    +0.000 C 
BRANCH  23  24
ATOM     24  C   UNL     1       9.796  10.900  19.569  0.00  0.00    +0.000 A 
ATOM     25  C   UNL     1      10.724  11.386  18.630  0.00  0.00    +0.000 A 
ATOM     26  C   UNL     1      11.450  12.549  18.892  0.00  0.00    +0.000 A 
ATOM     27  C   UNL     1      11.251  13.243  20.087  0.00  0.00    +0.000 A 
ATOM     28  C   UNL     1      10.322  12.776  21.021  0.00  0.00    +0.000 A 
ATOM     29  C   UNL     1       9.594  11.610  20.764  0.00  0.00    +0.000 A 
ENDBRANCH  23  24
ENDBRANCH  22  23
ENDBRANCH  21  22
ENDBRANCH  20  21
ENDBRANCH  19  20
ENDBRANCH  17  19
ENDBRANCH  16  17
ENDBRANCH   1  16
TORSDOF 11
ENDMDL
MODEL 7
REMARK VINA RESULT:      -6.4      1.427      1.851
REMARK  Name = 
REMARK  13 active torsions:
REMARK  status: ('A' for Active; 'I' for Inactive)
REMARK    1  A    between atoms: C_1  and  C_2
REMARK    2  A    between atoms: C_2  and  C_3
REMARK    3  A    between atoms: C_3  and  N_4
REMARK    4  A    between atoms: C_11  and  C_12
REMARK    5  A    between atoms: C_12  and  C_13
REMARK    6  A    between atoms: C_13  and  N_14
REMARK    7  A    between atoms: N_14  and  C_15
REMARK    8  A    between atoms: N_14  and  C_16
REMARK    9  A    between atoms: C_16  and  C_17
REMARK   10  A    between atoms: C_17  and  C_18
REMARK   11  A    between atoms: C_18  and  C_19
REMARK   12  A    between atoms: C_19  and  C_20
REMARK   13  A    between atoms: C_20  and  C_21
REMARK                            x       y       z     vdW  Elec       q    Type
REMARK                         _______ _______ _______ _____ _____    ______ ____
ROOT
ATOM      1  C   UNL     1       2.588   7.049  19.832  0.00  0.00    +0.000 C 
ENDROOT
BRANCH   1   9
ATOM      2  N   UNL     1      -2.100  13.226  22.195  0.00  0.00    +0.000 NA
ATOM      3  C   UNL     1      -1.235  12.336  23.004  0.00  0.00    +0.000 C 
ATOM      4  C   UNL     1      -1.072  10.963  22.349  0.00  0.00    +0.000 C 
ATOM      5  N   UNL     1      -0.591  11.130  20.986  0.00  0.00    +0.000 N 
ATOM      6  C   UNL     1       0.270  10.148  20.410  0.00  0.00    +0.000 A 
ATOM      7  N   UNL     1       0.579  10.113  19.092  0.00  0.00    +0.000 NA
ATOM      8  C   UNL     1       1.378   9.060  18.789  0.00  0.00    +0.000 A 
ATOM      9  C   UNL     1       1.706   8.251  19.871  0.00  0.00    +0.000 A 
ATOM     10  S   UNL     1       0.972   8.861  21.249  0.00  0.00    +0.000 S 
ATOM     11  C   UNL     1      -1.293  12.071  20.124  0.00  0.00    +0.000 C 
ATOM     12  C   UNL     1      -1.490  13.411  20.858  0.00  0.00    +0.000 C 
BRANCH   2  13
ATOM     13  C   UNL     1      -3.525  12.807  22.111  0.00  0.00    +0.000 C 
BRANCH  13  15
ATOM     14  C   UNL     1      -4.029  14.734  23.696  0.00  0.00    +0.000 C 
ATOM     15  C   UNL     1      -4.372  13.301  23.297  0.00  0.00    +0.000 C 
ENDBRANCH  13  15
ENDBRANCH   2  13
ENDBRANCH   1   9
BRANCH   1  16
ATOM     16  C   UNL     1       1.890   5.901  20.575  0.00  0.00    +0.000 C 
BRANCH  16  17
ATOM     17  N   UNL     1       1.946   4.605  19.860  0.00  0.00    +0.000 NA
ATOM     18  C   UNL     1       0.849   3.712  20.278  0.00  0.00    +0.000 C 
BRANCH  17  19
ATOM     19  C   UNL     1       1.844   4.806  18.391  0.00  0.00    +0.000 C 
BRANCH  19  20
ATOM     20  C   UNL     1       2.152   3.541  17.574  0.00  0.00    +0.000 C 
BRANCH  20  21
ATOM     21  C   UNL     1       3.411   2.819  18.070  0.00  0.00    +0.000 C 
BRANCH  21  22
ATOM     22  C   UNL     1       4.641   3.647  17.704  0.00  0.00    +0.000 C 
BRANCH  22  23
ATOM     23  C   UNL     1       5.330   4.256  18.931  0.00  0.00    +0.000 C 
BRANCH  23  24
ATOM     24  C   UNL     1       6.121   5.466  18.505  0.00  0.00    +0.000 A 
ATOM     25  C   UNL     1       5.597   6.352  17.546  0.00  0.00    +0.000 A 
ATOM     26  C   UNL     1       6.344   7.450  17.117  0.00  0.00    +0.000 A 
ATOM     27  C   UNL     1       7.615   7.682  17.645  0.00  0.00    +0.000 A 
ATOM     28  C   UNL     1       8.141   6.815  18.608  0.00  0.00    +0.000 A 
ATOM     29  C   UNL     1       7.397   5.712  19.039  0.00  0.00    +0.000 A 
ENDBRANCH  23  24
ENDBRANCH  22  23
ENDBRANCH  21  22
ENDBRANCH  20  21
ENDBRANCH  19  20
ENDBRANCH  17  19
ENDBRANCH  16  17
ENDBRANCH   1  16
TORSDOF 11
ENDMDL
MODEL 8
REMARK VINA RESULT:      -6.4      3.467      5.331
REMARK  Name = 
REMARK  13 active torsions:
REMARK  status: ('A' for Active; 'I' for Inactive)
REMARK    1  A    between atoms: C_1  and  C_2
REMARK    2  A    between atoms: C_2  and  C_3
REMARK    3  A    between atoms: C_3  and  N_4
REMARK    4  A    between atoms: C_11  and  C_12
REMARK    5  A    between atoms: C_12  and  C_13
REMARK    6  A    between atoms: C_13  and  N_14
REMARK    7  A    between atoms: N_14  and  C_15
REMARK    8  A    between atoms: N_14  and  C_16
REMARK    9  A    between atoms: C_16  and  C_17
REMARK   10  A    between atoms: C_17  and  C_18
REMARK   11  A    between atoms: C_18  and  C_19
REMARK   12  A    between atoms: C_19  and  C_20
REMARK   13  A    between atoms: C_20  and  C_21
REMARK                            x       y       z     vdW  Elec       q    Type
REMARK                         _______ _______ _______ _____ _____    ______ ____
ROOT
ATOM      1  C   UNL     1       4.120   4.232  18.043  0.00  0.00    +0.000 C 
ENDROOT
BRANCH   1   9
ATOM      2  N   UNL     1      -0.032  10.924  19.969  0.00  0.00    +0.000 NA
ATOM      3  C   UNL     1       0.360  10.409  18.636  0.00  0.00    +0.000 C 
ATOM      4  C   UNL     1       1.633   9.563  18.712  0.00  0.00    +0.000 C 
ATOM      5  N   UNL     1       1.455   8.506  19.696  0.00  0.00    +0.000 N 
ATOM      6  C   UNL     1       2.094   7.244  19.506  0.00  0.00    +0.000 A 
ATOM      7  N   UNL     1       2.162   6.295  20.469  0.00  0.00    +0.000 NA
ATOM      8  C   UNL     1       2.858   5.206  20.057  0.00  0.00    +0.000 A 
ATOM      9  C   UNL     1       3.349   5.290  18.759  0.00  0.00    +0.000 A 
ATOM     10  S   UNL     1       2.909   6.769  18.105  0.00  0.00    +0.000 S 
ATOM     11  C   UNL     1       0.960   8.876  21.014  0.00  0.00    +0.000 C 
ATOM     12  C   UNL     1      -0.279   9.781  20.878  0.00  0.00    +0.000 C 
BRANCH   2  13
ATOM     13  C   UNL     1       0.905  11.918  20.556  0.00  0.00    +0.000 C 
BRANCH  13  15
ATOM     14  C   UNL     1      -1.164  13.389  20.742  0.00  0.00    +0.000 C 
ATOM     15  C   UNL     1       0.192  13.030  21.345  0.00  0.00    +0.000 C 
ENDBRANCH  13  15
ENDBRANCH   2  13
ENDBRANCH   1   9
BRANCH   1  16
ATOM     16  C   UNL     1       5.538   4.177  18.627  0.00  0.00    +0.000 C 
BRANCH  16  17
ATOM     17  N   UNL     1       6.554   4.860  17.793  0.00  0.00    +0.000 NA
ATOM     18  C   UNL     1       6.426   4.485  16.372  0.00  0.00    +0.000 C 
BRANCH  17  19
ATOM     19  C   UNL     1       6.416   6.337  17.895  0.00  0.00    +0.000 C 
BRANCH  19  20
ATOM     20  C   UNL     1       7.608   7.109  17.304  0.00  0.00    +0.000 C 
BRANCH  20  21
ATOM     21  C   UNL     1       8.434   7.819  18.385  0.00  0.00    +0.000 C 
BRANCH  21  22
ATOM     22  C   UNL     1       8.421   9.322  18.117  0.00  0.00    +0.000 C 
BRANCH  22  23
ATOM     23  C   UNL     1       9.143  10.122  19.208  0.00  0.00    +0.000 C 
BRANCH  23  24
ATOM     24  C   UNL     1       9.755  11.356  18.594  0.00  0.00    +0.000 A 
ATOM     25  C   UNL     1       8.995  12.534  18.466  0.00  0.00    +0.000 A 
ATOM     26  C   UNL     1       9.543  13.665  17.860  0.00  0.00    +0.000 A 
ATOM     27  C   UNL     1      10.855  13.637  17.383  0.00  0.00    +0.000 A 
ATOM     28  C   UNL     1      11.624  12.477  17.516  0.00  0.00    +0.000 A 
ATOM     29  C   UNL     1      11.078  11.340  18.121  0.00  0.00    +0.000 A 
ENDBRANCH  23  24
ENDBRANCH  22  23
ENDBRANCH  21  22
ENDBRANCH  20  21
ENDBRANCH  19  20
ENDBRANCH  17  19
ENDBRANCH  16  17
ENDBRANCH   1  16
TORSDOF 11
ENDMDL
MODEL 9
REMARK VINA RESULT:      -6.3      3.230      4.824
REMARK  Name = 
REMARK  13 active torsions:
REMARK  status: ('A' for Active; 'I' for Inactive)
REMARK    1  A    between atoms: C_1  and  C_2
REMARK    2  A    between atoms: C_2  and  C_3
REMARK    3  A    between atoms: C_3  and  N_4
REMARK    4  A    between atoms: C_11  and  C_12
REMARK    5  A    between atoms: C_12  and  C_13
REMARK    6  A    between atoms: C_13  and  N_14
REMARK    7  A    between atoms: N_14  and  C_15
REMARK    8  A    between atoms: N_14  and  C_16
REMARK    9  A    between atoms: C_16  and  C_17
REMARK   10  A    between atoms: C_17  and  C_18
REMARK   11  A    between atoms: C_18  and  C_19
REMARK   12  A    between atoms: C_19  and  C_20
REMARK   13  A    between atoms: C_20  and  C_21
REMARK                            x       y       z     vdW  Elec       q    Type
REMARK                         _______ _______ _______ _____ _____    ______ ____
ROOT
ATOM      1  C   UNL     1       2.880   7.525  17.898  0.00  0.00    +0.000 C 
ENDROOT
BRANCH   1   9
ATOM      2  N   UNL     1      -1.673  13.081  21.658  0.00  0.00    +0.000 NA
ATOM      3  C   UNL     1      -1.418  12.894  20.210  0.00  0.00    +0.000 C 
ATOM      4  C   UNL     1      -0.061  12.232  19.960  0.00  0.00    +0.000 C 
ATOM      5  N   UNL     1       0.019  10.988  20.711  0.00  0.00    +0.000 N 
ATOM      6  C   UNL     1       0.760   9.887  20.188  0.00  0.00    +0.000 A 
ATOM      7  N   UNL     1       1.067   8.787  20.914  0.00  0.00    +0.000 NA
ATOM      8  C   UNL     1       1.814   7.906  20.204  0.00  0.00    +0.000 A 
ATOM      9  C   UNL     1       2.106   8.307  18.905  0.00  0.00    +0.000 A 
ATOM     10  S   UNL     1       1.418   9.811  18.634  0.00  0.00    +0.000 S 
ATOM     11  C   UNL     1      -0.323  11.023  22.127  0.00  0.00    +0.000 C 
ATOM     12  C   UNL     1      -1.661  11.759  22.328  0.00  0.00    +0.000 C 
BRANCH   2  13
ATOM     13  C   UNL     1      -0.777  14.060  22.330  0.00  0.00    +0.000 C 
BRANCH  13  15
ATOM     14  C   UNL     1      -0.859  15.826  24.161  0.00  0.00    +0.000 C 
ATOM     15  C   UNL     1      -1.216  14.395  23.767  0.00  0.00    +0.000 C 
ENDBRANCH  13  15
ENDBRANCH   2  13
ENDBRANCH   1   9
BRANCH   1  16
ATOM     16  C   UNL     1       3.243   6.163  18.507  0.00  0.00    +0.000 C 
BRANCH  16  17
ATOM     17  N   UNL     1       4.493   5.582  17.966  0.00  0.00    +0.000 NA
ATOM     18  C   UNL     1       4.215   4.609  16.892  0.00  0.00    +0.000 C 
BRANCH  17  19
ATOM     19  C   UNL     1       5.374   6.643  17.411  0.00  0.00    +0.000 C 
BRANCH  19  20
ATOM     20  C   UNL     1       6.798   6.627  17.991  0.00  0.00    +0.000 C 
BRANCH  20  21
ATOM     21  C   UNL     1       7.722   7.634  17.293  0.00  0.00    +0.000 C 
BRANCH  21  22
ATOM     22  C   UNL     1       8.432   8.477  18.350  0.00  0.00    +0.000 C 
BRANCH  22  23
ATOM     23  C   UNL     1       8.216   9.981  18.148  0.00  0.00    +0.000 C 
BRANCH  23  24
ATOM     24  C   UNL     1       9.402  10.730  18.700  0.00  0.00    +0.000 A 
ATOM     25  C   UNL     1       9.481  11.016  20.075  0.00  0.00    +0.000 A 
ATOM     26  C   UNL     1      10.556  11.747  20.584  0.00  0.00    +0.000 A 
ATOM     27  C   UNL     1      11.566  12.192  19.729  0.00  0.00    +0.000 A 
ATOM     28  C   UNL     1      11.504  11.904  18.363  0.00  0.00    +0.000 A 
ATOM     29  C   UNL     1      10.428  11.173  17.848  0.00  0.00    +0.000 A 
ENDBRANCH  23  24
ENDBRANCH  22  23
ENDBRANCH  21  22
ENDBRANCH  20  21
ENDBRANCH  19  20
ENDBRANCH  17  19
ENDBRANCH  16  17
ENDBRANCH   1  16
TORSDOF 11
ENDMDL
