MODEL 1
REMARK VINA RESULT:      -7.9      0.000      0.000
REMARK  Name = 
REMARK  8 active torsions:
REMARK  status: ('A' for Active; 'I' for Inactive)
REMARK    1  A    between atoms: N_1  and  S_2
REMARK    2  A    between atoms: S_2  and  C_5
REMARK    3  A    between atoms: C_8  and  C_9
REMARK    4  A    between atoms: C_9  and  C_10
REMARK    5  A    between atoms: C_10  and  N_11
REMARK    6  A    between atoms: C_12  and  C_14
REMARK    7  A    between atoms: N_22  and  S_23
REMARK    8  A    between atoms: S_23  and  C_26
REMARK                            x       y       z     vdW  Elec       q    Type
REMARK                         _______ _______ _______ _____ _____    ______ ____
ROOT
ATOM      1  N   UNL     1       0.033  10.226  18.958  0.00  0.00    +0.000 N 
ATOM      2  C   UNL     1       0.113  11.595  18.760  0.00  0.00    +0.000 C 
ATOM      3  O   UNL     1       1.186  12.180  18.637  0.00  0.00    +0.000 OA
ATOM      4  H   UNL     1      -0.808   9.887  19.431  0.00  0.00    +0.000 HD
ENDROOT
BRANCH   2   5
ATOM      5  C   UNL     1      -1.223  12.308  18.546  0.00  0.00    +0.000 C 
ATOM      6  C   UNL     1      -2.114  11.380  17.688  0.00  0.00    +0.000 C 
ATOM      7  C   UNL     1      -3.520  11.761  18.076  0.00  0.00    +0.000 C 
ATOM      8  C   UNL     1      -4.603  10.699  17.910  0.00  0.00    +0.000 C 
ATOM      9  C   UNL     1      -5.940  11.228  18.463  0.00  0.00    +0.000 C 
ATOM     10  C   UNL     1      -5.821  11.887  19.850  0.00  0.00    +0.000 C 
ATOM     11  C   UNL     1      -4.641  12.864  19.934  0.00  0.00    +0.000 C 
ATOM     12  C   UNL     1      -3.397  12.073  19.564  0.00  0.00    +0.000 C 
ATOM     13  N   UNL     1      -2.087  12.748  19.726  0.00  0.00    +0.000 NA
BRANCH  13  14
ATOM     14  S   UNL     1      -1.340  12.607  21.261  0.00  0.00    +0.000 S 
ATOM     15  O   UNL     1      -1.138  11.189  21.479  0.00  0.00    +0.000 OA
ATOM     16  O   UNL     1      -0.230  13.530  21.309  0.00  0.00    +0.000 OA
BRANCH  14  17
ATOM     17  C   UNL     1      -2.533  13.177  22.439  0.00  0.00    +0.000 A 
ATOM     18  C   UNL     1      -3.156  12.265  23.298  0.00  0.00    +0.000 A 
ATOM     19  C   UNL     1      -4.056  12.731  24.257  0.00  0.00    +0.000 A 
ATOM     20  C   UNL     1      -4.320  14.099  24.358  0.00  0.00    +0.000 A 
ATOM     21  C   UNL     1      -3.688  15.004  23.503  0.00  0.00    +0.000 A 
ATOM     22  C   UNL     1      -2.788  14.546  22.540  0.00  0.00    +0.000 A 
ENDBRANCH  14  17
ENDBRANCH  13  14
ENDBRANCH   2   5
BRANCH   1  23
ATOM     23  C   UNL     1       1.235   9.438  19.132  0.00  0.00    +0.000 C 
BRANCH  23  24
ATOM     24  C   UNL     1       1.667   8.783  17.819  0.00  0.00    +0.000 C 
BRANCH  24  28
ATOM     25  C   UNL     1       4.642   5.731  18.423  0.00  0.00    +0.000 A 
ATOM     26  C   UNL     1       4.762   6.608  17.343  0.00  0.00    +0.000 A 
ATOM     27  C   UNL     1       3.791   7.593  17.148  0.00  0.00    +0.000 A 
ATOM     28  C   UNL     1       2.703   7.705  18.027  0.00  0.00    +0.000 A 
ATOM     29  C   UNL     1       2.584   6.803  19.093  0.00  0.00    +0.000 A 
ATOM     30  C   UNL     1       3.552   5.818  19.293  0.00  0.00    +0.000 A 
BRANCH  25  31
ATOM     31  S   UNL     1       5.903   4.530  18.716  0.00  0.00    +0.000 S 
ATOM     32  O   UNL     1       6.666   4.339  17.508  0.00  0.00    +0.000 OA
ATOM     33  O   UNL     1       5.349   3.426  19.472  0.00  0.00    +0.000 OA
BRANCH  31  34
ATOM     34  N   UNL     1       6.908   5.333  19.796  0.00  0.00    +0.000 NA
ATOM     35  H   UNL     1       6.341   5.772  20.525  0.00  0.00    +0.000 HD
ATOM     36  H   UNL     1       7.512   5.988  19.296  0.00  0.00    +0.000 HD
ENDBRANCH  31  34
ENDBRANCH  25  31
ENDBRANCH  24  28
ENDBRANCH  23  24
ENDBRANCH   1  23
TORSDOF 8
ENDMDL
MODEL 2
REMARK VINA RESULT:      -7.9      1.446      1.758
REMARK  Name = 
REMARK  8 active torsions:
REMARK  status: ('A' for Active; 'I' for Inactive)
REMARK    1  A    between atoms: N_1  and  S_2
REMARK    2  A    between atoms: S_2  and  C_5
REMARK    3  A    between atoms: C_8  and  C_9
REMARK    4  A    between atoms: C_9  and  C_10
REMARK    5  A    between atoms: C_10  and  N_11
REMARK    6  A    between atoms: C_12  and  C_14
REMARK    7  A    between atoms: N_22  and  S_23
REMARK    8  A    between atoms: S_23  and  C_26
REMARK                            x       y       z     vdW  Elec       q    Type
REMARK                         _______ _______ _______ _____ _____    ______ ____
ROOT
ATOM      1  N   UNL     1       0.530   9.950  19.165  0.00  0.00    +0.000 N 
ATOM      2  C   UNL     1       0.724  11.317  19.037  0.00  0.00    +0.000 C 
ATOM      3  O   UNL     1       1.844  11.818  18.965  0.00  0.00    +0.000 OA
ATOM      4  H   UNL     1      -0.347   9.659  19.604  0.00  0.00    +0.000 HD
ENDROOT
BRANCH   2   5
ATOM      5  C   UNL     1      -0.544  12.145  18.830  0.00  0.00    +0.000 C 
ATOM      6  C   UNL     1      -1.455  11.367  17.851  0.00  0.00    +0.000 C 
ATOM      7  C   UNL     1      -2.847  11.817  18.210  0.00  0.00    +0.000 C 
ATOM      8  C   UNL     1      -3.994  10.860  17.898  0.00  0.00    +0.000 C 
ATOM      9  C   UNL     1      -5.316  11.437  18.438  0.00  0.00    +0.000 C 
ATOM     10  C   UNL     1      -5.221  11.959  19.884  0.00  0.00    +0.000 C 
ATOM     11  C   UNL     1      -3.981  12.832  20.111  0.00  0.00    +0.000 C 
ATOM     12  C   UNL     1      -2.779  11.985  19.725  0.00  0.00    +0.000 C 
ATOM     13  N   UNL     1      -1.434  12.542  20.007  0.00  0.00    +0.000 NA
BRANCH  13  14
ATOM     14  S   UNL     1      -0.779  12.208  21.554  0.00  0.00    +0.000 S 
ATOM     15  O   UNL     1      -0.801  10.766  21.696  0.00  0.00    +0.000 OA
ATOM     16  O   UNL     1       0.455  12.946  21.690  0.00  0.00    +0.000 OA
BRANCH  14  17
ATOM     17  C   UNL     1      -1.918  12.890  22.725  0.00  0.00    +0.000 A 
ATOM     18  C   UNL     1      -2.863  12.064  23.343  0.00  0.00    +0.000 A 
ATOM     19  C   UNL     1      -3.722  12.602  24.302  0.00  0.00    +0.000 A 
ATOM     20  C   UNL     1      -3.626  13.952  24.644  0.00  0.00    +0.000 A 
ATOM     21  C   UNL     1      -2.675  14.769  24.029  0.00  0.00    +0.000 A 
ATOM     22  C   UNL     1      -1.813  14.240  23.068  0.00  0.00    +0.000 A 
ENDBRANCH  14  17
ENDBRANCH  13  14
ENDBRANCH   2   5
BRANCH   1  23
ATOM     23  C   UNL     1       1.661   9.060  19.325  0.00  0.00    +0.000 C 
BRANCH  23  24
ATOM     24  C   UNL     1       1.405   8.025  20.421  0.00  0.00    +0.000 C 
BRANCH  24  28
ATOM     25  C   UNL     1       3.087   4.179  19.469  0.00  0.00    +0.000 A 
ATOM     26  C   UNL     1       3.428   5.292  18.697  0.00  0.00    +0.000 A 
ATOM     27  C   UNL     1       2.874   6.536  19.006  0.00  0.00    +0.000 A 
ATOM     28  C   UNL     1       1.985   6.673  20.083  0.00  0.00    +0.000 A 
ATOM     29  C   UNL     1       1.634   5.542  20.833  0.00  0.00    +0.000 A 
ATOM     30  C   UNL     1       2.184   4.297  20.529  0.00  0.00    +0.000 A 
BRANCH  25  31
ATOM     31  S   UNL     1       3.837   2.616  19.126  0.00  0.00    +0.000 S 
ATOM     32  O   UNL     1       2.809   1.658  18.804  0.00  0.00    +0.000 OA
ATOM     33  O   UNL     1       4.870   2.354  20.107  0.00  0.00    +0.000 OA
BRANCH  31  34
ATOM     34  N   UNL     1       4.665   2.930  17.699  0.00  0.00    +0.000 NA
ATOM     35  H   UNL     1       5.671   2.848  17.866  0.00  0.00    +0.000 HD
ATOM     36  H   UNL     1       4.385   3.837  17.321  0.00  0.00    +0.000 HD
ENDBRANCH  31  34
ENDBRANCH  25  31
ENDBRANCH  24  28
ENDBRANCH  23  24
ENDBRANCH   1  23
TORSDOF 8
ENDMDL
MODEL 3
REMARK VINA RESULT:      -7.9      0.813      1.296
REMARK  Name = 
REMARK  8 active torsions:
REMARK  status: ('A' for Active; 'I' for Inactive)
REMARK    1  A    between atoms: N_1  and  S_2
REMARK    2  A    between atoms: S_2  and  C_5
REMARK    3  A    between atoms: C_8  and  C_9
REMARK    4  A    between atoms: C_9  and  C_10
REMARK    5  A    between atoms: C_10  and  N_11
REMARK    6  A    between atoms: C_12  and  C_14
REMARK    7  A    between atoms: N_22  and  S_23
REMARK    8  A    between atoms: S_23  and  C_26
REMARK                            x       y       z     vdW  Elec       q    Type
REMARK                         _______ _______ _______ _____ _____    ______ ____
ROOT
ATOM      1  N   UNL     1      -0.031  10.313  19.018  0.00  0.00    +0.000 N 
ATOM      2  C   UNL     1      -0.002  11.673  18.752  0.00  0.00    +0.000 C 
ATOM      3  O   UNL     1       1.050  12.295  18.621  0.00  0.00    +0.000 OA
ATOM      4  H   UNL     1      -0.868   9.965  19.491  0.00  0.00    +0.000 HD
ENDROOT
BRANCH   2   5
ATOM      5  C   UNL     1      -1.359  12.320  18.476  0.00  0.00    +0.000 C 
ATOM      6  C   UNL     1      -2.191  11.318  17.640  0.00  0.00    +0.000 C 
ATOM      7  C   UNL     1      -3.620  11.656  17.979  0.00  0.00    +0.000 C 
ATOM      8  C   UNL     1      -4.654  10.544  17.835  0.00  0.00    +0.000 C 
ATOM      9  C   UNL     1      -6.025  11.040  18.334  0.00  0.00    +0.000 C 
ATOM     10  C   UNL     1      -5.967  11.763  19.692  0.00  0.00    +0.000 C 
ATOM     11  C   UNL     1      -4.831  12.791  19.760  0.00  0.00    +0.000 C 
ATOM     12  C   UNL     1      -3.546  12.038  19.454  0.00  0.00    +0.000 C 
ATOM     13  N   UNL     1      -2.269  12.774  19.616  0.00  0.00    +0.000 NA
BRANCH  13  14
ATOM     14  S   UNL     1      -1.556  12.731  21.172  0.00  0.00    +0.000 S 
ATOM     15  O   UNL     1      -1.337  11.331  21.474  0.00  0.00    +0.000 OA
ATOM     16  O   UNL     1      -0.460  13.673  21.192  0.00  0.00    +0.000 OA
BRANCH  14  17
ATOM     17  C   UNL     1      -2.783  13.347  22.290  0.00  0.00    +0.000 A 
ATOM     18  C   UNL     1      -3.401  12.477  23.195  0.00  0.00    +0.000 A 
ATOM     19  C   UNL     1      -4.329  12.982  24.106  0.00  0.00    +0.000 A 
ATOM     20  C   UNL     1      -4.627  14.346  24.114  0.00  0.00    +0.000 A 
ATOM     21  C   UNL     1      -4.000  15.209  23.213  0.00  0.00    +0.000 A 
ATOM     22  C   UNL     1      -3.072  14.712  22.298  0.00  0.00    +0.000 A 
ENDBRANCH  14  17
ENDBRANCH  13  14
ENDBRANCH   2   5
BRANCH   1  23
ATOM     23  C   UNL     1       1.198   9.585  19.255  0.00  0.00    +0.000 C 
BRANCH  23  24
ATOM     24  C   UNL     1       1.761   9.005  17.957  0.00  0.00    +0.000 C 
BRANCH  24  28
ATOM     25  C   UNL     1       4.123   5.469  18.622  0.00  0.00    +0.000 A 
ATOM     26  C   UNL     1       3.158   5.841  19.561  0.00  0.00    +0.000 A 
ATOM     27  C   UNL     1       2.398   6.992  19.343  0.00  0.00    +0.000 A 
ATOM     28  C   UNL     1       2.598   7.772  18.193  0.00  0.00    +0.000 A 
ATOM     29  C   UNL     1       3.587   7.398  17.273  0.00  0.00    +0.000 A 
ATOM     30  C   UNL     1       4.349   6.248  17.484  0.00  0.00    +0.000 A 
BRANCH  25  31
ATOM     31  S   UNL     1       5.038   3.975  18.857  0.00  0.00    +0.000 S 
ATOM     32  O   UNL     1       4.299   3.100  19.733  0.00  0.00    +0.000 OA
ATOM     33  O   UNL     1       6.434   4.295  19.069  0.00  0.00    +0.000 OA
BRANCH  31  34
ATOM     34  N   UNL     1       4.979   3.285  17.327  0.00  0.00    +0.000 NA
ATOM     35  H   UNL     1       4.451   3.896  16.699  0.00  0.00    +0.000 HD
ATOM     36  H   UNL     1       4.606   2.335  17.383  0.00  0.00    +0.000 HD
ENDBRANCH  31  34
ENDBRANCH  25  31
ENDBRANCH  24  28
ENDBRANCH  23  24
ENDBRANCH   1  23
TORSDOF 8
ENDMDL
MODEL 4
REMARK VINA RESULT:      -7.8      1.463      1.746
REMARK  Name = 
REMARK  8 active torsions:
REMARK  status: ('A' for Active; 'I' for Inactive)
REMARK    1  A    between atoms: N_1  and  S_2
REMARK    2  A    between atoms: S_2  and  C_5
REMARK    3  A    between atoms: C_8  and  C_9
REMARK    4  A    between atoms: C_9  and  C_10
REMARK    5  A    between atoms: C_10  and  N_11
REMARK    6  A    between atoms: C_12  and  C_14
REMARK    7  A    between atoms: N_22  and  S_23
REMARK    8  A    between atoms: S_23  and  C_26
REMARK                            x       y       z     vdW  Elec       q    Type
REMARK                         _______ _______ _______ _____ _____    ______ ____
ROOT
ATOM      1  N   UNL     1       0.334  10.024  19.333  0.00  0.00    +0.000 N 
ATOM      2  C   UNL     1       0.474  11.358  18.986  0.00  0.00    +0.000 C 
ATOM      3  O   UNL     1       1.573  11.890  18.850  0.00  0.00    +0.000 OA
ATOM      4  H   UNL     1      -0.539   9.769  19.800  0.00  0.00    +0.000 HD
ENDROOT
BRANCH   2   5
ATOM      5  C   UNL     1      -0.823  12.085  18.628  0.00  0.00    +0.000 C 
ATOM      6  C   UNL     1      -1.648  11.144  17.719  0.00  0.00    +0.000 C 
ATOM      7  C   UNL     1      -3.076  11.558  17.963  0.00  0.00    +0.000 C 
ATOM      8  C   UNL     1      -4.159  10.509  17.729  0.00  0.00    +0.000 C 
ATOM      9  C   UNL     1      -5.531  11.075  18.141  0.00  0.00    +0.000 C 
ATOM     10  C   UNL     1      -5.528  11.775  19.512  0.00  0.00    +0.000 C 
ATOM     11  C   UNL     1      -4.344  12.736  19.677  0.00  0.00    +0.000 C 
ATOM     12  C   UNL     1      -3.085  11.915  19.447  0.00  0.00    +0.000 C 
ATOM     13  N   UNL     1      -1.784  12.574  19.710  0.00  0.00    +0.000 NA
BRANCH  13  14
ATOM     14  S   UNL     1      -1.184  12.469  21.310  0.00  0.00    +0.000 S 
ATOM     15  O   UNL     1      -1.088  11.055  21.610  0.00  0.00    +0.000 OA
ATOM     16  O   UNL     1      -0.028  13.329  21.417  0.00  0.00    +0.000 OA
BRANCH  14  17
ATOM     17  C   UNL     1      -2.439  13.164  22.350  0.00  0.00    +0.000 A 
ATOM     18  C   UNL     1      -3.152  12.341  23.228  0.00  0.00    +0.000 A 
ATOM     19  C   UNL     1      -4.102  12.906  24.078  0.00  0.00    +0.000 A 
ATOM     20  C   UNL     1      -4.328  14.284  24.053  0.00  0.00    +0.000 A 
ATOM     21  C   UNL     1      -3.607  15.100  23.179  0.00  0.00    +0.000 A 
ATOM     22  C   UNL     1      -2.655  14.543  22.324  0.00  0.00    +0.000 A 
ENDBRANCH  14  17
ENDBRANCH  13  14
ENDBRANCH   2   5
BRANCH   1  23
ATOM     23  C   UNL     1       1.497   9.222  19.653  0.00  0.00    +0.000 C 
BRANCH  23  24
ATOM     24  C   UNL     1       1.948   8.391  18.452  0.00  0.00    +0.000 C 
BRANCH  24  28
ATOM     25  C   UNL     1       3.033   4.373  19.550  0.00  0.00    +0.000 A 
ATOM     26  C   UNL     1       2.296   5.157  20.440  0.00  0.00    +0.000 A 
ATOM     27  C   UNL     1       1.952   6.462  20.081  0.00  0.00    +0.000 A 
ATOM     28  C   UNL     1       2.340   6.986  18.839  0.00  0.00    +0.000 A 
ATOM     29  C   UNL     1       3.099   6.194  17.966  0.00  0.00    +0.000 A 
ATOM     30  C   UNL     1       3.445   4.889  18.318  0.00  0.00    +0.000 A 
BRANCH  25  31
ATOM     31  S   UNL     1       3.411   2.698  19.968  0.00  0.00    +0.000 S 
ATOM     32  O   UNL     1       2.770   1.818  19.023  0.00  0.00    +0.000 OA
ATOM     33  O   UNL     1       3.295   2.523  21.401  0.00  0.00    +0.000 OA
BRANCH  31  34
ATOM     34  N   UNL     1       5.059   2.622  19.654  0.00  0.00    +0.000 NA
ATOM     35  H   UNL     1       5.496   1.959  20.297  0.00  0.00    +0.000 HD
ATOM     36  H   UNL     1       5.468   3.558  19.688  0.00  0.00    +0.000 HD
ENDBRANCH  31  34
ENDBRANCH  25  31
ENDBRANCH  24  28
ENDBRANCH  23  24
ENDBRANCH   1  23
TORSDOF 8
ENDMDL
MODEL 5
REMARK VINA RESULT:      -7.7      1.651      2.228
REMARK  Name = 
REMARK  8 active torsions:
REMARK  status: ('A' for Active; 'I' for Inactive)
REMARK    1  A    between atoms: N_1  and  S_2
REMARK    2  A    between atoms: S_2  and  C_5
REMARK    3  A    between atoms: C_8  and  C_9
REMARK    4  A    between atoms: C_9  and  C_10
REMARK    5  A    between atoms: C_10  and  N_11
REMARK    6  A    between atoms: C_12  and  C_14
REMARK    7  A    between atoms: N_22  and  S_23
REMARK    8  A    between atoms: S_23  and  C_26
REMARK                            x       y       z     vdW  Elec       q    Type
REMARK                         _______ _______ _______ _____ _____    ______ ____
ROOT
ATOM      1  N   UNL     1       0.520  10.024  18.829  0.00  0.00    +0.000 N 
ATOM      2  C   UNL     1       0.713  11.395  18.892  0.00  0.00    +0.000 C 
ATOM      3  O   UNL     1       1.832  11.901  18.925  0.00  0.00    +0.000 OA
ATOM      4  H   UNL     1      -0.369   9.677  19.196  0.00  0.00    +0.000 HD
ENDROOT
BRANCH   2   5
ATOM      5  C   UNL     1      -0.551  12.245  18.759  0.00  0.00    +0.000 C 
ATOM      6  C   UNL     1      -1.500  11.517  17.778  0.00  0.00    +0.000 C 
ATOM      7  C   UNL     1      -2.876  11.966  18.197  0.00  0.00    +0.000 C 
ATOM      8  C   UNL     1      -4.043  11.034  17.883  0.00  0.00    +0.000 C 
ATOM      9  C   UNL     1      -5.341  11.603  18.487  0.00  0.00    +0.000 C 
ATOM     10  C   UNL     1      -5.196  12.064  19.949  0.00  0.00    +0.000 C 
ATOM     11  C   UNL     1      -3.939  12.915  20.172  0.00  0.00    +0.000 C 
ATOM     12  C   UNL     1      -2.759  12.072  19.715  0.00  0.00    +0.000 C 
ATOM     13  N   UNL     1      -1.400  12.603  19.978  0.00  0.00    +0.000 NA
BRANCH  13  14
ATOM     14  S   UNL     1      -0.702  12.200  21.488  0.00  0.00    +0.000 S 
ATOM     15  O   UNL     1      -0.726  10.753  21.568  0.00  0.00    +0.000 OA
ATOM     16  O   UNL     1       0.538  12.929  21.621  0.00  0.00    +0.000 OA
BRANCH  14  17
ATOM     17  C   UNL     1      -1.804  12.833  22.721  0.00  0.00    +0.000 A 
ATOM     18  C   UNL     1      -1.764  14.188  23.064  0.00  0.00    +0.000 A 
ATOM     19  C   UNL     1      -2.671  14.687  24.000  0.00  0.00    +0.000 A 
ATOM     20  C   UNL     1      -3.614  13.835  24.578  0.00  0.00    +0.000 A 
ATOM     21  C   UNL     1      -3.654  12.484  24.225  0.00  0.00    +0.000 A 
ATOM     22  C   UNL     1      -2.749  11.978  23.291  0.00  0.00    +0.000 A 
ENDBRANCH  14  17
ENDBRANCH  13  14
ENDBRANCH   2   5
BRANCH   1  23
ATOM     23  C   UNL     1       1.649   9.120  18.904  0.00  0.00    +0.000 C 
BRANCH  23  24
ATOM     24  C   UNL     1       1.541   8.193  20.115  0.00  0.00    +0.000 C 
BRANCH  24  28
ATOM     25  C   UNL     1       2.972   4.221  19.276  0.00  0.00    +0.000 A 
ATOM     26  C   UNL     1       2.253   4.463  20.449  0.00  0.00    +0.000 A 
ATOM     27  C   UNL     1       1.796   5.754  20.719  0.00  0.00    +0.000 A 
ATOM     28  C   UNL     1       2.053   6.804  19.824  0.00  0.00    +0.000 A 
ATOM     29  C   UNL     1       2.797   6.550  18.662  0.00  0.00    +0.000 A 
ATOM     30  C   UNL     1       3.255   5.261  18.386  0.00  0.00    +0.000 A 
BRANCH  25  31
ATOM     31  S   UNL     1       3.491   2.576  18.893  0.00  0.00    +0.000 S 
ATOM     32  O   UNL     1       4.256   2.052  19.997  0.00  0.00    +0.000 OA
ATOM     33  O   UNL     1       3.961   2.527  17.524  0.00  0.00    +0.000 OA
BRANCH  31  34
ATOM     34  N   UNL     1       2.033   1.742  18.881  0.00  0.00    +0.000 NA
ATOM     35  H   UNL     1       2.021   1.070  19.651  0.00  0.00    +0.000 HD
ATOM     36  H   UNL     1       1.877   1.319  17.964  0.00  0.00    +0.000 HD
ENDBRANCH  31  34
ENDBRANCH  25  31
ENDBRANCH  24  28
ENDBRANCH  23  24
ENDBRANCH   1  23
TORSDOF 8
ENDMDL
MODEL 6
REMARK VINA RESULT:      -7.7      0.733      1.397
REMARK  Name = 
REMARK  8 active torsions:
REMARK  status: ('A' for Active; 'I' for Inactive)
REMARK    1  A    between atoms: N_1  and  S_2
REMARK    2  A    between atoms: S_2  and  C_5
REMARK    3  A    between atoms: C_8  and  C_9
REMARK    4  A    between atoms: C_9  and  C_10
REMARK    5  A    between atoms: C_10  and  N_11
REMARK    6  A    between atoms: C_12  and  C_14
REMARK    7  A    between atoms: N_22  and  S_23
REMARK    8  A    between atoms: S_23  and  C_26
REMARK                            x       y       z     vdW  Elec       q    Type
REMARK                         _______ _______ _______ _____ _____    ______ ____
ROOT
ATOM      1  N   UNL     1       0.230  10.322  18.904  0.00  0.00    +0.000 N 
ATOM      2  C   UNL     1       0.233  11.704  18.794  0.00  0.00    +0.000 C 
ATOM      3  O   UNL     1       1.272  12.361  18.794  0.00  0.00    +0.000 OA
ATOM      4  H   UNL     1      -0.621   9.903  19.286  0.00  0.00    +0.000 HD
ENDROOT
BRANCH   2   5
ATOM      5  C   UNL     1      -1.126  12.345  18.513  0.00  0.00    +0.000 C 
ATOM      6  C   UNL     1      -1.931  11.363  17.630  0.00  0.00    +0.000 C 
ATOM      7  C   UNL     1      -3.369  11.675  17.952  0.00  0.00    +0.000 C 
ATOM      8  C   UNL     1      -4.389  10.557  17.754  0.00  0.00    +0.000 C 
ATOM      9  C   UNL     1      -5.774  11.023  18.242  0.00  0.00    +0.000 C 
ATOM     10  C   UNL     1      -5.749  11.703  19.624  0.00  0.00    +0.000 C 
ATOM     11  C   UNL     1      -4.625  12.740  19.746  0.00  0.00    +0.000 C 
ATOM     12  C   UNL     1      -3.327  12.010  19.440  0.00  0.00    +0.000 C 
ATOM     13  N   UNL     1      -2.062  12.753  19.649  0.00  0.00    +0.000 NA
BRANCH  13  14
ATOM     14  S   UNL     1      -1.376  12.668  21.216  0.00  0.00    +0.000 S 
ATOM     15  O   UNL     1      -1.151  11.261  21.478  0.00  0.00    +0.000 OA
ATOM     16  O   UNL     1      -0.290  13.617  21.286  0.00  0.00    +0.000 OA
BRANCH  14  17
ATOM     17  C   UNL     1      -2.630  13.237  22.330  0.00  0.00    +0.000 A 
ATOM     18  C   UNL     1      -3.038  14.575  22.297  0.00  0.00    +0.000 A 
ATOM     19  C   UNL     1      -4.061  15.001  23.144  0.00  0.00    +0.000 A 
ATOM     20  C   UNL     1      -4.674  14.092  24.009  0.00  0.00    +0.000 A 
ATOM     21  C   UNL     1      -4.266  12.756  24.031  0.00  0.00    +0.000 A 
ATOM     22  C   UNL     1      -3.243  12.322  23.188  0.00  0.00    +0.000 A 
ENDBRANCH  14  17
ENDBRANCH  13  14
ENDBRANCH   2   5
BRANCH   1  23
ATOM     23  C   UNL     1       1.465   9.601  19.129  0.00  0.00    +0.000 C 
BRANCH  23  24
ATOM     24  C   UNL     1       2.043   9.063  17.820  0.00  0.00    +0.000 C 
BRANCH  24  28
ATOM     25  C   UNL     1       4.049   5.288  18.330  0.00  0.00    +0.000 A 
ATOM     26  C   UNL     1       2.982   5.623  19.168  0.00  0.00    +0.000 A 
ATOM     27  C   UNL     1       2.339   6.851  19.002  0.00  0.00    +0.000 A 
ATOM     28  C   UNL     1       2.755   7.745  18.003  0.00  0.00    +0.000 A 
ATOM     29  C   UNL     1       3.842   7.404  17.186  0.00  0.00    +0.000 A 
ATOM     30  C   UNL     1       4.488   6.179  17.346  0.00  0.00    +0.000 A 
BRANCH  25  31
ATOM     31  S   UNL     1       4.821   3.707  18.489  0.00  0.00    +0.000 S 
ATOM     32  O   UNL     1       4.338   2.838  17.444  0.00  0.00    +0.000 OA
ATOM     33  O   UNL     1       4.837   3.318  19.883  0.00  0.00    +0.000 OA
BRANCH  31  34
ATOM     34  N   UNL     1       6.421   4.060  18.119  0.00  0.00    +0.000 NA
ATOM     35  H   UNL     1       6.732   3.458  17.353  0.00  0.00    +0.000 HD
ATOM     36  H   UNL     1       7.000   3.989  18.957  0.00  0.00    +0.000 HD
ENDBRANCH  31  34
ENDBRANCH  25  31
ENDBRANCH  24  28
ENDBRANCH  23  24
ENDBRANCH   1  23
TORSDOF 8
ENDMDL
MODEL 7
REMARK VINA RESULT:      -7.7      8.167      9.755
REMARK  Name = 
REMARK  8 active torsions:
REMARK  status: ('A' for Active; 'I' for Inactive)
REMARK    1  A    between atoms: N_1  and  S_2
REMARK    2  A    between atoms: S_2  and  C_5
REMARK    3  A    between atoms: C_8  and  C_9
REMARK    4  A    between atoms: C_9  and  C_10
REMARK    5  A    between atoms: C_10  and  N_11
REMARK    6  A    between atoms: C_12  and  C_14
REMARK    7  A    between atoms: N_22  and  S_23
REMARK    8  A    between atoms: S_23  and  C_26
REMARK                            x       y       z     vdW  Elec       q    Type
REMARK                         _______ _______ _______ _____ _____    ______ ____
ROOT
ATOM      1  N   UNL     1       8.446  10.466  18.317  0.00  0.00    +0.000 N 
ATOM      2  C   UNL     1       9.546  11.262  18.039  0.00  0.00    +0.000 C 
ATOM      3  O   UNL     1      10.657  10.792  17.808  0.00  0.00    +0.000 OA
ATOM      4  H   UNL     1       7.702  10.901  18.866  0.00  0.00    +0.000 HD
ENDROOT
BRANCH   2   5
ATOM      5  C   UNL     1       9.254  12.755  17.879  0.00  0.00    +0.000 C 
ATOM      6  C   UNL     1       7.831  12.891  17.287  0.00  0.00    +0.000 C 
ATOM      7  C   UNL     1       7.357  14.234  17.777  0.00  0.00    +0.000 C 
ATOM      8  C   UNL     1       5.850  14.439  17.907  0.00  0.00    +0.000 C 
ATOM      9  C   UNL     1       5.564  15.819  18.529  0.00  0.00    +0.000 C 
ATOM     10  C   UNL     1       6.416  16.127  19.774  0.00  0.00    +0.000 C 
ATOM     11  C   UNL     1       7.898  15.795  19.566  0.00  0.00    +0.000 C 
ATOM     12  C   UNL     1       7.962  14.327  19.175  0.00  0.00    +0.000 C 
ATOM     13  N   UNL     1       9.304  13.706  19.074  0.00  0.00    +0.000 NA
BRANCH  13  14
ATOM     14  S   UNL     1       9.942  13.028  20.511  0.00  0.00    +0.000 S 
ATOM     15  O   UNL     1       8.991  12.020  20.935  0.00  0.00    +0.000 OA
ATOM     16  O   UNL     1      11.326  12.688  20.274  0.00  0.00    +0.000 OA
BRANCH  14  17
ATOM     17  C   UNL     1       9.931  14.329  21.713  0.00  0.00    +0.000 A 
ATOM     18  C   UNL     1      10.786  15.426  21.562  0.00  0.00    +0.000 A 
ATOM     19  C   UNL     1      10.733  16.469  22.486  0.00  0.00    +0.000 A 
ATOM     20  C   UNL     1       9.826  16.415  23.546  0.00  0.00    +0.000 A 
ATOM     21  C   UNL     1       8.970  15.321  23.686  0.00  0.00    +0.000 A 
ATOM     22  C   UNL     1       9.017  14.273  22.766  0.00  0.00    +0.000 A 
ENDBRANCH  14  17
ENDBRANCH  13  14
ENDBRANCH   2   5
BRANCH   1  23
ATOM     23  C   UNL     1       8.594   9.031  18.450  0.00  0.00    +0.000 C 
BRANCH  23  24
ATOM     24  C   UNL     1       7.964   8.295  17.267  0.00  0.00    +0.000 C 
BRANCH  24  28
ATOM     25  C   UNL     1       5.511   4.994  18.539  0.00  0.00    +0.000 A 
ATOM     26  C   UNL     1       6.740   5.222  19.162  0.00  0.00    +0.000 A 
ATOM     27  C   UNL     1       7.535   6.290  18.741  0.00  0.00    +0.000 A 
ATOM     28  C   UNL     1       7.107   7.132  17.703  0.00  0.00    +0.000 A 
ATOM     29  C   UNL     1       5.882   6.876  17.072  0.00  0.00    +0.000 A 
ATOM     30  C   UNL     1       5.083   5.811  17.488  0.00  0.00    +0.000 A 
BRANCH  25  31
ATOM     31  S   UNL     1       4.469   3.688  19.113  0.00  0.00    +0.000 S 
ATOM     32  O   UNL     1       3.182   4.231  19.469  0.00  0.00    +0.000 OA
ATOM     33  O   UNL     1       5.224   2.825  19.997  0.00  0.00    +0.000 OA
BRANCH  31  34
ATOM     34  N   UNL     1       4.239   2.784  17.717  0.00  0.00    +0.000 NA
ATOM     35  H   UNL     1       4.262   1.788  17.950  0.00  0.00    +0.000 HD
ATOM     36  H   UNL     1       4.922   3.054  17.006  0.00  0.00    +0.000 HD
ENDBRANCH  31  34
ENDBRANCH  25  31
ENDBRANCH  24  28
ENDBRANCH  23  24
ENDBRANCH   1  23
TORSDOF 8
ENDMDL
MODEL 8
REMARK VINA RESULT:      -7.6      0.908      1.599
REMARK  Name = 
REMARK  8 active torsions:
REMARK  status: ('A' for Active; 'I' for Inactive)
REMARK    1  A    between atoms: N_1  and  S_2
REMARK    2  A    between atoms: S_2  and  C_5
REMARK    3  A    between atoms: C_8  and  C_9
REMARK    4  A    between atoms: C_9  and  C_10
REMARK    5  A    between atoms: C_10  and  N_11
REMARK    6  A    between atoms: C_12  and  C_14
REMARK    7  A    between atoms: N_22  and  S_23
REMARK    8  A    between atoms: S_23  and  C_26
REMARK                            x       y       z     vdW  Elec       q    Type
REMARK                         _______ _______ _______ _____ _____    ______ ____
ROOT
ATOM      1  N   UNL     1       0.185  10.198  19.409  0.00  0.00    +0.000 N 
ATOM      2  C   UNL     1       0.413  11.547  19.193  0.00  0.00    +0.000 C 
ATOM      3  O   UNL     1       1.539  12.003  19.011  0.00  0.00    +0.000 OA
ATOM      4  H   UNL     1      -0.665   9.961  19.926  0.00  0.00    +0.000 HD
ENDROOT
BRANCH   2   5
ATOM      5  C   UNL     1      -0.840  12.410  19.036  0.00  0.00    +0.000 C 
ATOM      6  C   UNL     1      -1.795  11.673  18.067  0.00  0.00    +0.000 C 
ATOM      7  C   UNL     1      -3.166  12.149  18.472  0.00  0.00    +0.000 C 
ATOM      8  C   UNL     1      -4.343  11.225  18.173  0.00  0.00    +0.000 C 
ATOM      9  C   UNL     1      -5.636  11.823  18.760  0.00  0.00    +0.000 C 
ATOM     10  C   UNL     1      -5.491  12.313  20.212  0.00  0.00    +0.000 C 
ATOM     11  C   UNL     1      -4.224  13.152  20.422  0.00  0.00    +0.000 C 
ATOM     12  C   UNL     1      -3.053  12.285  19.988  0.00  0.00    +0.000 C 
ATOM     13  N   UNL     1      -1.689  12.804  20.244  0.00  0.00    +0.000 NA
BRANCH  13  14
ATOM     14  S   UNL     1      -1.001  12.424  21.766  0.00  0.00    +0.000 S 
ATOM     15  O   UNL     1      -1.127  10.988  21.915  0.00  0.00    +0.000 OA
ATOM     16  O   UNL     1       0.289  13.067  21.851  0.00  0.00    +0.000 OA
BRANCH  14  17
ATOM     17  C   UNL     1      -2.039  13.192  22.978  0.00  0.00    +0.000 A 
ATOM     18  C   UNL     1      -1.891  14.554  23.262  0.00  0.00    +0.000 A 
ATOM     19  C   UNL     1      -2.748  15.160  24.181  0.00  0.00    +0.000 A 
ATOM     20  C   UNL     1      -3.748  14.408  24.802  0.00  0.00    +0.000 A 
ATOM     21  C   UNL     1      -3.895  13.051  24.507  0.00  0.00    +0.000 A 
ATOM     22  C   UNL     1      -3.041  12.437  23.590  0.00  0.00    +0.000 A 
ENDBRANCH  14  17
ENDBRANCH  13  14
ENDBRANCH   2   5
BRANCH   1  23
ATOM     23  C   UNL     1       1.295   9.276  19.531  0.00  0.00    +0.000 C 
BRANCH  23  24
ATOM     24  C   UNL     1       1.750   8.766  18.163  0.00  0.00    +0.000 C 
BRANCH  24  28
ATOM     25  C   UNL     1       4.454   5.430  18.462  0.00  0.00    +0.000 A 
ATOM     26  C   UNL     1       3.469   5.610  19.436  0.00  0.00    +0.000 A 
ATOM     27  C   UNL     1       2.598   6.697  19.337  0.00  0.00    +0.000 A 
ATOM     28  C   UNL     1       2.707   7.604  18.272  0.00  0.00    +0.000 A 
ATOM     29  C   UNL     1       3.716   7.423  17.316  0.00  0.00    +0.000 A 
ATOM     30  C   UNL     1       4.588   6.338  17.408  0.00  0.00    +0.000 A 
BRANCH  25  31
ATOM     31  S   UNL     1       5.513   4.018  18.542  0.00  0.00    +0.000 S 
ATOM     32  O   UNL     1       5.052   3.139  19.589  0.00  0.00    +0.000 OA
ATOM     33  O   UNL     1       6.892   4.445  18.431  0.00  0.00    +0.000 OA
BRANCH  31  34
ATOM     34  N   UNL     1       5.179   3.247  17.087  0.00  0.00    +0.000 NA
ATOM     35  H   UNL     1       4.251   2.821  17.135  0.00  0.00    +0.000 HD
ATOM     36  H   UNL     1       5.924   2.585  16.861  0.00  0.00    +0.000 HD
ENDBRANCH  31  34
ENDBRANCH  25  31
ENDBRANCH  24  28
ENDBRANCH  23  24
ENDBRANCH   1  23
TORSDOF 8
ENDMDL
MODEL 9
REMARK VINA RESULT:      -7.6      8.065      9.745
REMARK  Name = 
REMARK  8 active torsions:
REMARK  status: ('A' for Active; 'I' for Inactive)
REMARK    1  A    between atoms: N_1  and  S_2
REMARK    2  A    between atoms: S_2  and  C_5
REMARK    3  A    between atoms: C_8  and  C_9
REMARK    4  A    between atoms: C_9  and  C_10
REMARK    5  A    between atoms: C_10  and  N_11
REMARK    6  A    between atoms: C_12  and  C_14
REMARK    7  A    between atoms: N_22  and  S_23
REMARK    8  A    between atoms: S_23  and  C_26
REMARK                            x       y       z     vdW  Elec       q    Type
REMARK                         _______ _______ _______ _____ _____    ______ ____
ROOT
ATOM      1  N   UNL     1       8.433  10.579  18.460  0.00  0.00    +0.000 N 
ATOM      2  C   UNL     1       9.510  11.376  18.105  0.00  0.00    +0.000 C 
ATOM      3  O   UNL     1      10.613  10.907  17.832  0.00  0.00    +0.000 OA
ATOM      4  H   UNL     1       7.713  11.024  19.033  0.00  0.00    +0.000 HD
ENDROOT
BRANCH   2   5
ATOM      5  C   UNL     1       9.197  12.861  17.919  0.00  0.00    +0.000 C 
ATOM      6  C   UNL     1       7.765  12.967  17.343  0.00  0.00    +0.000 C 
ATOM      7  C   UNL     1       7.281  14.314  17.813  0.00  0.00    +0.000 C 
ATOM      8  C   UNL     1       5.773  14.503  17.958  0.00  0.00    +0.000 C 
ATOM      9  C   UNL     1       5.478  15.892  18.556  0.00  0.00    +0.000 C 
ATOM     10  C   UNL     1       6.342  16.236  19.784  0.00  0.00    +0.000 C 
ATOM     11  C   UNL     1       7.826  15.917  19.563  0.00  0.00    +0.000 C 
ATOM     12  C   UNL     1       7.903  14.443  19.200  0.00  0.00    +0.000 C 
ATOM     13  N   UNL     1       9.251  13.837  19.094  0.00  0.00    +0.000 NA
BRANCH  13  14
ATOM     14  S   UNL     1       9.916  13.196  20.536  0.00  0.00    +0.000 S 
ATOM     15  O   UNL     1       8.957  12.226  21.023  0.00  0.00    +0.000 OA
ATOM     16  O   UNL     1      11.285  12.816  20.272  0.00  0.00    +0.000 OA
BRANCH  14  17
ATOM     17  C   UNL     1       9.970  14.539  21.689  0.00  0.00    +0.000 A 
ATOM     18  C   UNL     1       9.143  14.523  22.817  0.00  0.00    +0.000 A 
ATOM     19  C   UNL     1       9.229  15.561  23.746  0.00  0.00    +0.000 A 
ATOM     20  C   UNL     1      10.142  16.599  23.547  0.00  0.00    +0.000 A 
ATOM     21  C   UNL     1      10.970  16.604  22.422  0.00  0.00    +0.000 A 
ATOM     22  C   UNL     1      10.889  15.571  21.488  0.00  0.00    +0.000 A 
ENDBRANCH  14  17
ENDBRANCH  13  14
ENDBRANCH   2   5
BRANCH   1  23
ATOM     23  C   UNL     1       8.599   9.150  18.624  0.00  0.00    +0.000 C 
BRANCH  23  24
ATOM     24  C   UNL     1       8.153   8.390  17.375  0.00  0.00    +0.000 C 
BRANCH  24  28
ATOM     25  C   UNL     1       5.406   5.212  18.317  0.00  0.00    +0.000 A 
ATOM     26  C   UNL     1       6.695   5.194  18.856  0.00  0.00    +0.000 A 
ATOM     27  C   UNL     1       7.584   6.224  18.542  0.00  0.00    +0.000 A 
ATOM     28  C   UNL     1       7.192   7.271  17.694  0.00  0.00    +0.000 A 
ATOM     29  C   UNL     1       5.903   7.262  17.143  0.00  0.00    +0.000 A 
ATOM     30  C   UNL     1       5.010   6.237  17.453  0.00  0.00    +0.000 A 
BRANCH  25  31
ATOM     31  S   UNL     1       4.254   3.950  18.766  0.00  0.00    +0.000 S 
ATOM     32  O   UNL     1       3.812   3.267  17.575  0.00  0.00    +0.000 OA
ATOM     33  O   UNL     1       3.334   4.470  19.755  0.00  0.00    +0.000 OA
BRANCH  31  34
ATOM     34  N   UNL     1       5.228   2.869  19.605  0.00  0.00    +0.000 NA
ATOM     35  H   UNL     1       4.675   2.411  20.334  0.00  0.00    +0.000 HD
ATOM     36  H   UNL     1       6.059   3.346  19.960  0.00  0.00    +0.000 HD
ENDBRANCH  31  34
ENDBRANCH  25  31
ENDBRANCH  24  28
ENDBRANCH  23  24
ENDBRANCH   1  23
TORSDOF 8
ENDMDL
