MODEL 1
REMARK VINA RESULT:      -7.0      0.000      0.000
REMARK  Name = 
REMARK  7 active torsions:
REMARK  status: ('A' for Active; 'I' for Inactive)
REMARK    1  A    between atoms: C_1  and  C_2
REMARK    2  A    between atoms: C_2  and  N_3
REMARK    3  A    between atoms: C_7  and  C_8
REMARK    4  A    between atoms: C_9  and  C_10
REMARK    5  A    between atoms: N_18  and  C_19
REMARK    6  A    between atoms: C_19  and  C_20
REMARK    7  A    between atoms: C_20  and  C_21
REMARK                            x       y       z     vdW  Elec       q    Type
REMARK                         _______ _______ _______ _____ _____    ______ ____
ROOT
ATOM      1  C   UNL     1       3.701   6.157  18.527  0.00  0.00    +0.000 A 
ATOM      2  C   UNL     1       3.585   4.713  18.556  0.00  0.00    +0.000 A 
ATOM      3  N   UNL     1       4.404   3.989  17.615  0.00  0.00    +0.000 NA
ATOM      4  C   UNL     1       4.340   2.598  17.608  0.00  0.00    +0.000 A 
ATOM      5  N   UNL     1       4.534   6.819  17.629  0.00  0.00    +0.000 N 
ENDROOT
BRANCH   2   6
ATOM      6  C   UNL     1       2.685   4.011  19.543  0.00  0.00    +0.000 A 
ATOM      7  C   UNL     1       3.147   3.571  20.797  0.00  0.00    +0.000 A 
ATOM      8  C   UNL     1       2.325   2.855  21.678  0.00  0.00    +0.000 A 
ATOM      9  C   UNL     1       0.984   2.653  21.375  0.00  0.00    +0.000 A 
ATOM     10  C   UNL     1       0.482   3.124  20.169  0.00  0.00    +0.000 A 
ATOM     11  C   UNL     1       1.335   3.749  19.248  0.00  0.00    +0.000 A 
ENDBRANCH   2   6
BRANCH   1  16
ATOM     12  N   UNL     1       2.038   8.209  19.144  0.00  0.00    +0.000 N 
ATOM     13  C   UNL     1       1.107   8.686  20.077  0.00  0.00    +0.000 A 
ATOM     14  N   UNL     1       1.325   8.407  21.325  0.00  0.00    +0.000 NA
ATOM     15  C   UNL     1       0.556   9.134  22.230  0.00  0.00    +0.000 A 
ATOM     16  C   UNL     1       2.863   6.951  19.515  0.00  0.00    +0.000 A 
BRANCH  12  18
ATOM     17  C   UNL     1       1.782  10.389  17.948  0.00  0.00    +0.000 C 
ATOM     18  C   UNL     1       2.139   8.915  17.866  0.00  0.00    +0.000 C 
ENDBRANCH  12  18
ENDBRANCH   1  16
BRANCH   5  19
ATOM     19  C   UNL     1       4.763   6.561  16.175  0.00  0.00    +0.000 C 
BRANCH  19  20
ATOM     20  C   UNL     1       6.279   6.287  16.034  0.00  0.00    +0.000 C 
BRANCH  20  21
ATOM     21  C   UNL     1       7.154   6.725  17.159  0.00  0.00    +0.000 A 
ATOM     22  C   UNL     1       7.620   6.033  18.256  0.00  0.00    +0.000 A 
ATOM     23  N   UNL     1       8.380   6.940  18.944  0.00  0.00    +0.000 N 
ATOM     24  C   UNL     1       8.318   8.136  18.294  0.00  0.00    +0.000 A 
ATOM     25  N   UNL     1       7.577   8.039  17.204  0.00  0.00    +0.000 NA
ATOM     26  H   UNL     1       8.852   6.753  19.829  0.00  0.00    +0.000 HD
ENDBRANCH  20  21
ENDBRANCH  19  20
ENDBRANCH   5  19
TORSDOF 6
ENDMDL
MODEL 2
REMARK VINA RESULT:      -6.9      1.680      2.573
REMARK  Name = 
REMARK  7 active torsions:
REMARK  status: ('A' for Active; 'I' for Inactive)
REMARK    1  A    between atoms: C_1  and  C_2
REMARK    2  A    between atoms: C_2  and  N_3
REMARK    3  A    between atoms: C_7  and  C_8
REMARK    4  A    between atoms: C_9  and  C_10
REMARK    5  A    between atoms: N_18  and  C_19
REMARK    6  A    between atoms: C_19  and  C_20
REMARK    7  A    between atoms: C_20  and  C_21
REMARK                            x       y       z     vdW  Elec       q    Type
REMARK                         _______ _______ _______ _____ _____    ______ ____
ROOT
ATOM      1  C   UNL     1       3.801   6.068  18.463  0.00  0.00    +0.000 A 
ATOM      2  C   UNL     1       3.618   4.631  18.464  0.00  0.00    +0.000 A 
ATOM      3  N   UNL     1       4.376   3.892  17.484  0.00  0.00    +0.000 NA
ATOM      4  C   UNL     1       4.247   2.506  17.449  0.00  0.00    +0.000 A 
ATOM      5  N   UNL     1       4.639   6.712  17.557  0.00  0.00    +0.000 N 
ENDROOT
BRANCH   2   6
ATOM      6  C   UNL     1       2.713   3.949  19.460  0.00  0.00    +0.000 A 
ATOM      7  C   UNL     1       1.344   3.743  19.211  0.00  0.00    +0.000 A 
ATOM      8  C   UNL     1       0.495   3.174  20.170  0.00  0.00    +0.000 A 
ATOM      9  C   UNL     1       1.013   2.698  21.368  0.00  0.00    +0.000 A 
ATOM     10  C   UNL     1       2.371   2.835  21.622  0.00  0.00    +0.000 A 
ATOM     11  C   UNL     1       3.196   3.497  20.702  0.00  0.00    +0.000 A 
ENDBRANCH   2   6
BRANCH   1  16
ATOM     12  N   UNL     1       2.111   8.077  19.145  0.00  0.00    +0.000 N 
ATOM     13  C   UNL     1       1.255   8.562  20.144  0.00  0.00    +0.000 A 
ATOM     14  N   UNL     1       1.609   8.360  21.376  0.00  0.00    +0.000 NA
ATOM     15  C   UNL     1       0.900   9.101  22.317  0.00  0.00    +0.000 A 
ATOM     16  C   UNL     1       3.028   6.877  19.491  0.00  0.00    +0.000 A 
BRANCH  12  18
ATOM     17  C   UNL     1       1.791  10.213  17.887  0.00  0.00    +0.000 C 
ATOM     18  C   UNL     1       2.050   8.717  17.831  0.00  0.00    +0.000 C 
ENDBRANCH  12  18
ENDBRANCH   1  16
BRANCH   5  19
ATOM     19  C   UNL     1       4.817   6.477  16.093  0.00  0.00    +0.000 C 
BRANCH  19  20
ATOM     20  C   UNL     1       6.236   5.881  15.935  0.00  0.00    +0.000 C 
BRANCH  20  21
ATOM     21  C   UNL     1       6.500   5.074  14.710  0.00  0.00    +0.000 A 
ATOM     22  C   UNL     1       5.884   3.937  14.234  0.00  0.00    +0.000 A 
ATOM     23  N   UNL     1       6.543   3.644  13.070  0.00  0.00    +0.000 N 
ATOM     24  C   UNL     1       7.543   4.554  12.900  0.00  0.00    +0.000 A 
ATOM     25  N   UNL     1       7.545   5.437  13.882  0.00  0.00    +0.000 NA
ATOM     26  H   UNL     1       6.348   2.838  12.477  0.00  0.00    +0.000 HD
ENDBRANCH  20  21
ENDBRANCH  19  20
ENDBRANCH   5  19
TORSDOF 6
ENDMDL
MODEL 3
REMARK VINA RESULT:      -6.6      0.666      1.225
REMARK  Name = 
REMARK  7 active torsions:
REMARK  status: ('A' for Active; 'I' for Inactive)
REMARK    1  A    between atoms: C_1  and  C_2
REMARK    2  A    between atoms: C_2  and  N_3
REMARK    3  A    between atoms: C_7  and  C_8
REMARK    4  A    between atoms: C_9  and  C_10
REMARK    5  A    between atoms: N_18  and  C_19
REMARK    6  A    between atoms: C_19  and  C_20
REMARK    7  A    between atoms: C_20  and  C_21
REMARK                            x       y       z     vdW  Elec       q    Type
REMARK                         _______ _______ _______ _____ _____    ______ ____
ROOT
ATOM      1  C   UNL     1       3.767   6.053  18.471  0.00  0.00    +0.000 A 
ATOM      2  C   UNL     1       3.585   4.616  18.470  0.00  0.00    +0.000 A 
ATOM      3  N   UNL     1       4.344   3.879  17.490  0.00  0.00    +0.000 NA
ATOM      4  C   UNL     1       4.216   2.492  17.453  0.00  0.00    +0.000 A 
ATOM      5  N   UNL     1       4.605   6.698  17.566  0.00  0.00    +0.000 N 
ENDROOT
BRANCH   2   6
ATOM      6  C   UNL     1       2.680   3.932  19.464  0.00  0.00    +0.000 A 
ATOM      7  C   UNL     1       1.304   3.752  19.227  0.00  0.00    +0.000 A 
ATOM      8  C   UNL     1       0.456   3.182  20.186  0.00  0.00    +0.000 A 
ATOM      9  C   UNL     1       0.980   2.677  21.370  0.00  0.00    +0.000 A 
ATOM     10  C   UNL     1       2.343   2.787  21.611  0.00  0.00    +0.000 A 
ATOM     11  C   UNL     1       3.169   3.450  20.693  0.00  0.00    +0.000 A 
ENDBRANCH   2   6
BRANCH   1  16
ATOM     12  N   UNL     1       2.109   8.087  19.159  0.00  0.00    +0.000 N 
ATOM     13  C   UNL     1       1.245   8.573  20.150  0.00  0.00    +0.000 A 
ATOM     14  N   UNL     1       1.571   8.340  21.384  0.00  0.00    +0.000 NA
ATOM     15  C   UNL     1       0.860   9.079  22.326  0.00  0.00    +0.000 A 
ATOM     16  C   UNL     1       2.992   6.860  19.499  0.00  0.00    +0.000 A 
BRANCH  12  18
ATOM     17  C   UNL     1       1.236  10.010  17.821  0.00  0.00    +0.000 C 
ATOM     18  C   UNL     1       2.087   8.752  17.856  0.00  0.00    +0.000 C 
ENDBRANCH  12  18
ENDBRANCH   1  16
BRANCH   5  19
ATOM     19  C   UNL     1       4.784   6.465  16.101  0.00  0.00    +0.000 C 
BRANCH  19  20
ATOM     20  C   UNL     1       6.291   6.171  15.907  0.00  0.00    +0.000 C 
BRANCH  20  21
ATOM     21  C   UNL     1       7.076   5.827  17.126  0.00  0.00    +0.000 A 
ATOM     22  C   UNL     1       7.498   4.607  17.607  0.00  0.00    +0.000 A 
ATOM     23  N   UNL     1       8.180   4.902  18.758  0.00  0.00    +0.000 N 
ATOM     24  C   UNL     1       8.115   6.247  18.964  0.00  0.00    +0.000 A 
ATOM     25  N   UNL     1       7.448   6.839  17.989  0.00  0.00    +0.000 NA
ATOM     26  H   UNL     1       8.602   4.211  19.378  0.00  0.00    +0.000 HD
ENDBRANCH  20  21
ENDBRANCH  19  20
ENDBRANCH   5  19
TORSDOF 6
ENDMDL
MODEL 4
REMARK VINA RESULT:      -6.2      1.857      3.175
REMARK  Name = 
REMARK  7 active torsions:
REMARK  status: ('A' for Active; 'I' for Inactive)
REMARK    1  A    between atoms: C_1  and  C_2
REMARK    2  A    between atoms: C_2  and  N_3
REMARK    3  A    between atoms: C_7  and  C_8
REMARK    4  A    between atoms: C_9  and  C_10
REMARK    5  A    between atoms: N_18  and  C_19
REMARK    6  A    between atoms: C_19  and  C_20
REMARK    7  A    between atoms: C_20  and  C_21
REMARK                            x       y       z     vdW  Elec       q    Type
REMARK                         _______ _______ _______ _____ _____    ______ ____
ROOT
ATOM      1  C   UNL     1       4.883   5.165  19.224  0.00  0.00    +0.000 A 
ATOM      2  C   UNL     1       4.376   3.828  19.457  0.00  0.00    +0.000 A 
ATOM      3  N   UNL     1       5.365   2.792  19.626  0.00  0.00    +0.000 NA
ATOM      4  C   UNL     1       4.932   1.490  19.864  0.00  0.00    +0.000 A 
ATOM      5  N   UNL     1       6.245   5.440  19.142  0.00  0.00    +0.000 N 
ENDROOT
BRANCH   2   6
ATOM      6  C   UNL     1       2.896   3.548  19.553  0.00  0.00    +0.000 A 
ATOM      7  C   UNL     1       2.120   3.219  18.427  0.00  0.00    +0.000 A 
ATOM      8  C   UNL     1       0.734   3.033  18.512  0.00  0.00    +0.000 A 
ATOM      9  C   UNL     1       0.100   3.066  19.748  0.00  0.00    +0.000 A 
ATOM     10  C   UNL     1       0.846   3.332  20.888  0.00  0.00    +0.000 A 
ATOM     11  C   UNL     1       2.214   3.619  20.782  0.00  0.00    +0.000 A 
ENDBRANCH   2   6
BRANCH   1  16
ATOM     12  N   UNL     1       3.860   7.280  17.869  0.00  0.00    +0.000 N 
ATOM     13  C   UNL     1       2.727   8.085  17.693  0.00  0.00    +0.000 A 
ATOM     14  N   UNL     1       2.008   8.334  18.744  0.00  0.00    +0.000 NA
ATOM     15  C   UNL     1       1.079   9.359  18.588  0.00  0.00    +0.000 A 
ATOM     16  C   UNL     1       3.868   6.283  19.055  0.00  0.00    +0.000 A 
BRANCH  12  18
ATOM     17  C   UNL     1       4.556   7.000  15.484  0.00  0.00    +0.000 C 
ATOM     18  C   UNL     1       4.943   7.412  16.894  0.00  0.00    +0.000 C 
ENDBRANCH  12  18
ENDBRANCH   1  16
BRANCH   5  19
ATOM     19  C   UNL     1       7.330   4.681  18.450  0.00  0.00    +0.000 C 
BRANCH  19  20
ATOM     20  C   UNL     1       7.577   5.427  17.118  0.00  0.00    +0.000 C 
BRANCH  20  21
ATOM     21  C   UNL     1       7.077   4.777  15.874  0.00  0.00    +0.000 A 
ATOM     22  C   UNL     1       6.204   3.724  15.699  0.00  0.00    +0.000 A 
ATOM     23  N   UNL     1       6.115   3.566  14.342  0.00  0.00    +0.000 N 
ATOM     24  C   UNL     1       6.946   4.467  13.747  0.00  0.00    +0.000 A 
ATOM     25  N   UNL     1       7.548   5.217  14.653  0.00  0.00    +0.000 NA
ATOM     26  H   UNL     1       5.564   2.846  13.875  0.00  0.00    +0.000 HD
ENDBRANCH  20  21
ENDBRANCH  19  20
ENDBRANCH   5  19
TORSDOF 6
ENDMDL
MODEL 5
REMARK VINA RESULT:      -6.1      2.050      6.233
REMARK  Name = 
REMARK  7 active torsions:
REMARK  status: ('A' for Active; 'I' for Inactive)
REMARK    1  A    between atoms: C_1  and  C_2
REMARK    2  A    between atoms: C_2  and  N_3
REMARK    3  A    between atoms: C_7  and  C_8
REMARK    4  A    between atoms: C_9  and  C_10
REMARK    5  A    between atoms: N_18  and  C_19
REMARK    6  A    between atoms: C_19  and  C_20
REMARK    7  A    between atoms: C_20  and  C_21
REMARK                            x       y       z     vdW  Elec       q    Type
REMARK                         _______ _______ _______ _____ _____    ______ ____
ROOT
ATOM      1  C   UNL     1       3.041   6.156  17.991  0.00  0.00    +0.000 A 
ATOM      2  C   UNL     1       2.564   5.121  18.886  0.00  0.00    +0.000 A 
ATOM      3  N   UNL     1       1.497   5.496  19.781  0.00  0.00    +0.000 NA
ATOM      4  C   UNL     1       0.993   4.536  20.655  0.00  0.00    +0.000 A 
ATOM      5  N   UNL     1       2.522   7.448  18.003  0.00  0.00    +0.000 N 
ENDROOT
BRANCH   2   6
ATOM      6  C   UNL     1       3.131   3.723  18.852  0.00  0.00    +0.000 A 
ATOM      7  C   UNL     1       2.788   2.799  17.848  0.00  0.00    +0.000 A 
ATOM      8  C   UNL     1       3.261   1.480  17.865  0.00  0.00    +0.000 A 
ATOM      9  C   UNL     1       4.176   1.078  18.829  0.00  0.00    +0.000 A 
ATOM     10  C   UNL     1       4.580   1.982  19.802  0.00  0.00    +0.000 A 
ATOM     11  C   UNL     1       4.024   3.269  19.840  0.00  0.00    +0.000 A 
ENDBRANCH   2   6
BRANCH   1  16
ATOM     12  N   UNL     1       5.632   5.574  17.440  0.00  0.00    +0.000 N 
ATOM     13  C   UNL     1       6.499   4.987  16.507  0.00  0.00    +0.000 A 
ATOM     14  N   UNL     1       6.199   5.125  15.252  0.00  0.00    +0.000 NA
ATOM     15  C   UNL     1       7.221   4.791  14.367  0.00  0.00    +0.000 A 
ATOM     16  C   UNL     1       4.155   5.792  17.024  0.00  0.00    +0.000 A 
BRANCH  12  18
ATOM     17  C   UNL     1       7.687   5.767  18.850  0.00  0.00    +0.000 C 
ATOM     18  C   UNL     1       6.177   5.905  18.756  0.00  0.00    +0.000 C 
ENDBRANCH  12  18
ENDBRANCH   1  16
BRANCH   5  19
ATOM     19  C   UNL     1       2.168   8.320  19.163  0.00  0.00    +0.000 C 
BRANCH  19  20
ATOM     20  C   UNL     1       1.306   9.464  18.576  0.00  0.00    +0.000 C 
BRANCH  20  21
ATOM     21  C   UNL     1       0.413  10.192  19.522  0.00  0.00    +0.000 A 
ATOM     22  C   UNL     1       0.154   9.977  20.858  0.00  0.00    +0.000 A 
ATOM     23  N   UNL     1      -0.741  10.955  21.202  0.00  0.00    +0.000 N 
ATOM     24  C   UNL     1      -1.030  11.686  20.089  0.00  0.00    +0.000 A 
ATOM     25  N   UNL     1      -0.345  11.245  19.049  0.00  0.00    +0.000 NA
ATOM     26  H   UNL     1      -1.161  11.062  22.125  0.00  0.00    +0.000 HD
ENDBRANCH  20  21
ENDBRANCH  19  20
ENDBRANCH   5  19
TORSDOF 6
ENDMDL
MODEL 6
REMARK VINA RESULT:      -6.0      2.029      5.762
REMARK  Name = 
REMARK  7 active torsions:
REMARK  status: ('A' for Active; 'I' for Inactive)
REMARK    1  A    between atoms: C_1  and  C_2
REMARK    2  A    between atoms: C_2  and  N_3
REMARK    3  A    between atoms: C_7  and  C_8
REMARK    4  A    between atoms: C_9  and  C_10
REMARK    5  A    between atoms: N_18  and  C_19
REMARK    6  A    between atoms: C_19  and  C_20
REMARK    7  A    between atoms: C_20  and  C_21
REMARK                            x       y       z     vdW  Elec       q    Type
REMARK                         _______ _______ _______ _____ _____    ______ ____
ROOT
ATOM      1  C   UNL     1       2.988   6.236  18.077  0.00  0.00    +0.000 A 
ATOM      2  C   UNL     1       2.498   5.188  18.947  0.00  0.00    +0.000 A 
ATOM      3  N   UNL     1       1.447   5.560  19.863  0.00  0.00    +0.000 NA
ATOM      4  C   UNL     1       0.930   4.588  20.715  0.00  0.00    +0.000 A 
ATOM      5  N   UNL     1       2.498   7.539  18.129  0.00  0.00    +0.000 N 
ENDROOT
BRANCH   2   6
ATOM      6  C   UNL     1       3.033   3.780  18.870  0.00  0.00    +0.000 A 
ATOM      7  C   UNL     1       3.962   3.278  19.800  0.00  0.00    +0.000 A 
ATOM      8  C   UNL     1       4.510   1.994  19.679  0.00  0.00    +0.000 A 
ATOM      9  C   UNL     1       4.063   1.135  18.683  0.00  0.00    +0.000 A 
ATOM     10  C   UNL     1       3.105   1.578  17.782  0.00  0.00    +0.000 A 
ATOM     11  C   UNL     1       2.637   2.898  17.847  0.00  0.00    +0.000 A 
ENDBRANCH   2   6
BRANCH   1  16
ATOM     12  N   UNL     1       5.565   5.633  17.482  0.00  0.00    +0.000 N 
ATOM     13  C   UNL     1       6.413   5.052  16.529  0.00  0.00    +0.000 A 
ATOM     14  N   UNL     1       6.099   5.214  15.281  0.00  0.00    +0.000 NA
ATOM     15  C   UNL     1       7.105   4.884  14.377  0.00  0.00    +0.000 A 
ATOM     16  C   UNL     1       4.086   5.876  17.090  0.00  0.00    +0.000 A 
BRANCH  12  18
ATOM     17  C   UNL     1       7.627   5.690  18.895  0.00  0.00    +0.000 C 
ATOM     18  C   UNL     1       6.131   5.936  18.797  0.00  0.00    +0.000 C 
ENDBRANCH  12  18
ENDBRANCH   1  16
BRANCH   5  19
ATOM     19  C   UNL     1       2.173   8.386  19.316  0.00  0.00    +0.000 C 
BRANCH  19  20
ATOM     20  C   UNL     1       1.063   9.356  18.845  0.00  0.00    +0.000 C 
BRANCH  20  21
ATOM     21  C   UNL     1       1.476  10.749  18.515  0.00  0.00    +0.000 A 
ATOM     22  C   UNL     1       2.509  11.219  17.733  0.00  0.00    +0.000 A 
ATOM     23  N   UNL     1       2.400  12.583  17.793  0.00  0.00    +0.000 N 
ATOM     24  C   UNL     1       1.366  12.897  18.623  0.00  0.00    +0.000 A 
ATOM     25  N   UNL     1       0.784  11.803  19.081  0.00  0.00    +0.000 NA
ATOM     26  H   UNL     1       3.036  13.238  17.339  0.00  0.00    +0.000 HD
ENDBRANCH  20  21
ENDBRANCH  19  20
ENDBRANCH   5  19
TORSDOF 6
ENDMDL
MODEL 7
REMARK VINA RESULT:      -6.0      1.972      6.061
REMARK  Name = 
REMARK  7 active torsions:
REMARK  status: ('A' for Active; 'I' for Inactive)
REMARK    1  A    between atoms: C_1  and  C_2
REMARK    2  A    between atoms: C_2  and  N_3
REMARK    3  A    between atoms: C_7  and  C_8
REMARK    4  A    between atoms: C_9  and  C_10
REMARK    5  A    between atoms: N_18  and  C_19
REMARK    6  A    between atoms: C_19  and  C_20
REMARK    7  A    between atoms: C_20  and  C_21
REMARK                            x       y       z     vdW  Elec       q    Type
REMARK                         _______ _______ _______ _____ _____    ______ ____
ROOT
ATOM      1  C   UNL     1       3.274   6.469  17.597  0.00  0.00    +0.000 A 
ATOM      2  C   UNL     1       2.775   5.621  18.659  0.00  0.00    +0.000 A 
ATOM      3  N   UNL     1       1.860   6.236  19.589  0.00  0.00    +0.000 NA
ATOM      4  C   UNL     1       1.340   5.462  20.624  0.00  0.00    +0.000 A 
ATOM      5  N   UNL     1       2.917   7.811  17.485  0.00  0.00    +0.000 N 
ENDROOT
BRANCH   2   6
ATOM      6  C   UNL     1       3.164   4.166  18.759  0.00  0.00    +0.000 A 
ATOM      7  C   UNL     1       4.170   3.718  19.635  0.00  0.00    +0.000 A 
ATOM      8  C   UNL     1       4.576   2.377  19.669  0.00  0.00    +0.000 A 
ATOM      9  C   UNL     1       3.913   1.426  18.904  0.00  0.00    +0.000 A 
ATOM     10  C   UNL     1       2.877   1.826  18.070  0.00  0.00    +0.000 A 
ATOM     11  C   UNL     1       2.545   3.184  17.964  0.00  0.00    +0.000 A 
ENDBRANCH   2   6
BRANCH   1  16
ATOM     12  N   UNL     1       5.748   5.663  16.832  0.00  0.00    +0.000 N 
ATOM     13  C   UNL     1       6.461   4.845  15.944  0.00  0.00    +0.000 A 
ATOM     14  N   UNL     1       5.981   4.713  14.746  0.00  0.00    +0.000 NA
ATOM     15  C   UNL     1       6.857   4.146  13.825  0.00  0.00    +0.000 A 
ATOM     16  C   UNL     1       4.229   5.850  16.590  0.00  0.00    +0.000 A 
BRANCH  12  18
ATOM     17  C   UNL     1       7.516   7.287  17.528  0.00  0.00    +0.000 C 
ATOM     18  C   UNL     1       6.485   6.253  17.949  0.00  0.00    +0.000 C 
ENDBRANCH  12  18
ENDBRANCH   1  16
BRANCH   5  19
ATOM     19  C   UNL     1       2.793   8.854  18.547  0.00  0.00    +0.000 C 
BRANCH  19  20
ATOM     20  C   UNL     1       1.516   9.654  18.198  0.00  0.00    +0.000 C 
BRANCH  20  21
ATOM     21  C   UNL     1       0.650  10.076  19.336  0.00  0.00    +0.000 A 
ATOM     22  C   UNL     1       0.480   9.526  20.587  0.00  0.00    +0.000 A 
ATOM     23  N   UNL     1      -0.436  10.336  21.204  0.00  0.00    +0.000 N 
ATOM     24  C   UNL     1      -0.822  11.299  20.322  0.00  0.00    +0.000 A 
ATOM     25  N   UNL     1      -0.181  11.167  19.174  0.00  0.00    +0.000 NA
ATOM     26  H   UNL     1      -0.804  10.189  22.144  0.00  0.00    +0.000 HD
ENDBRANCH  20  21
ENDBRANCH  19  20
ENDBRANCH   5  19
TORSDOF 6
ENDMDL
MODEL 8
REMARK VINA RESULT:      -6.0      2.082      5.937
REMARK  Name = 
REMARK  7 active torsions:
REMARK  status: ('A' for Active; 'I' for Inactive)
REMARK    1  A    between atoms: C_1  and  C_2
REMARK    2  A    between atoms: C_2  and  N_3
REMARK    3  A    between atoms: C_7  and  C_8
REMARK    4  A    between atoms: C_9  and  C_10
REMARK    5  A    between atoms: N_18  and  C_19
REMARK    6  A    between atoms: C_19  and  C_20
REMARK    7  A    between atoms: C_20  and  C_21
REMARK                            x       y       z     vdW  Elec       q    Type
REMARK                         _______ _______ _______ _____ _____    ______ ____
ROOT
ATOM      1  C   UNL     1       3.030   6.212  18.003  0.00  0.00    +0.000 A 
ATOM      2  C   UNL     1       2.542   5.172  18.886  0.00  0.00    +0.000 A 
ATOM      3  N   UNL     1       1.479   5.547  19.786  0.00  0.00    +0.000 NA
ATOM      4  C   UNL     1       0.965   4.582  20.648  0.00  0.00    +0.000 A 
ATOM      5  N   UNL     1       2.525   7.510  18.031  0.00  0.00    +0.000 N 
ENDROOT
BRANCH   2   6
ATOM      6  C   UNL     1       3.094   3.769  18.835  0.00  0.00    +0.000 A 
ATOM      7  C   UNL     1       2.720   2.852  17.836  0.00  0.00    +0.000 A 
ATOM      8  C   UNL     1       3.180   1.528  17.837  0.00  0.00    +0.000 A 
ATOM      9  C   UNL     1       4.112   1.113  18.780  0.00  0.00    +0.000 A 
ATOM     10  C   UNL     1       4.545   2.010  19.748  0.00  0.00    +0.000 A 
ATOM     11  C   UNL     1       4.004   3.302  19.802  0.00  0.00    +0.000 A 
ENDBRANCH   2   6
BRANCH   1  16
ATOM     12  N   UNL     1       5.615   5.611  17.445  0.00  0.00    +0.000 N 
ATOM     13  C   UNL     1       6.476   5.026  16.506  0.00  0.00    +0.000 A 
ATOM     14  N   UNL     1       6.177   5.181  15.252  0.00  0.00    +0.000 NA
ATOM     15  C   UNL     1       7.195   4.847  14.363  0.00  0.00    +0.000 A 
ATOM     16  C   UNL     1       4.141   5.849  17.032  0.00  0.00    +0.000 A 
BRANCH  12  18
ATOM     17  C   UNL     1       7.677   5.819  18.842  0.00  0.00    +0.000 C 
ATOM     18  C   UNL     1       6.164   5.922  18.765  0.00  0.00    +0.000 C 
ENDBRANCH  12  18
ENDBRANCH   1  16
BRANCH   5  19
ATOM     19  C   UNL     1       2.180   8.372  19.201  0.00  0.00    +0.000 C 
BRANCH  19  20
ATOM     20  C   UNL     1       1.188   9.430  18.662  0.00  0.00    +0.000 C 
BRANCH  20  21
ATOM     21  C   UNL     1       1.262  10.794  19.258  0.00  0.00    +0.000 A 
ATOM     22  C   UNL     1       0.772  11.280  20.451  0.00  0.00    +0.000 A 
ATOM     23  N   UNL     1       1.141  12.598  20.469  0.00  0.00    +0.000 N 
ATOM     24  C   UNL     1       1.784  12.882  19.301  0.00  0.00    +0.000 A 
ATOM     25  N   UNL     1       1.872  11.805  18.542  0.00  0.00    +0.000 NA
ATOM     26  H   UNL     1       0.908  13.259  21.210  0.00  0.00    +0.000 HD
ENDBRANCH  20  21
ENDBRANCH  19  20
ENDBRANCH   5  19
TORSDOF 6
ENDMDL
MODEL 9
REMARK VINA RESULT:      -5.9      6.867     11.015
REMARK  Name = 
REMARK  7 active torsions:
REMARK  status: ('A' for Active; 'I' for Inactive)
REMARK    1  A    between atoms: C_1  and  C_2
REMARK    2  A    between atoms: C_2  and  N_3
REMARK    3  A    between atoms: C_7  and  C_8
REMARK    4  A    between atoms: C_9  and  C_10
REMARK    5  A    between atoms: N_18  and  C_19
REMARK    6  A    between atoms: C_19  and  C_20
REMARK    7  A    between atoms: C_20  and  C_21
REMARK                            x       y       z     vdW  Elec       q    Type
REMARK                         _______ _______ _______ _____ _____    ______ ____
ROOT
ATOM      1  C   UNL     1      -3.371  12.579  19.806  0.00  0.00    +0.000 A 
ATOM      2  C   UNL     1      -4.239  11.766  18.979  0.00  0.00    +0.000 A 
ATOM      3  N   UNL     1      -5.613  11.664  19.407  0.00  0.00    +0.000 NA
ATOM      4  C   UNL     1      -6.494  10.904  18.642  0.00  0.00    +0.000 A 
ATOM      5  N   UNL     1      -3.820  13.209  20.964  0.00  0.00    +0.000 N 
ENDROOT
BRANCH   2   6
ATOM      6  C   UNL     1      -3.738  11.098  17.723  0.00  0.00    +0.000 A 
ATOM      7  C   UNL     1      -2.905   9.965  17.757  0.00  0.00    +0.000 A 
ATOM      8  C   UNL     1      -2.385   9.394  16.587  0.00  0.00    +0.000 A 
ATOM      9  C   UNL     1      -2.770   9.877  15.343  0.00  0.00    +0.000 A 
ATOM     10  C   UNL     1      -3.636  10.960  15.272  0.00  0.00    +0.000 A 
ATOM     11  C   UNL     1      -4.071  11.590  16.447  0.00  0.00    +0.000 A 
ENDBRANCH   2   6
BRANCH   1  16
ATOM     12  N   UNL     1      -0.751  11.895  19.973  0.00  0.00    +0.000 N 
ATOM     13  C   UNL     1       0.484  11.929  19.311  0.00  0.00    +0.000 A 
ATOM     14  N   UNL     1       0.741  12.977  18.590  0.00  0.00    +0.000 NA
ATOM     15  C   UNL     1       2.070  13.105  18.197  0.00  0.00    +0.000 A 
ATOM     16  C   UNL     1      -1.920  12.719  19.377  0.00  0.00    +0.000 A 
BRANCH  12  18
ATOM     17  C   UNL     1      -0.242   9.672  20.998  0.00  0.00    +0.000 C 
ATOM     18  C   UNL     1      -0.859  11.051  21.163  0.00  0.00    +0.000 C 
ENDBRANCH  12  18
ENDBRANCH   1  16
BRANCH   5  19
ATOM     19  C   UNL     1      -4.714  12.692  22.043  0.00  0.00    +0.000 C 
BRANCH  19  20
ATOM     20  C   UNL     1      -3.902  12.821  23.354  0.00  0.00    +0.000 C 
BRANCH  20  21
ATOM     21  C   UNL     1      -3.947  14.137  24.052  0.00  0.00    +0.000 A 
ATOM     22  C   UNL     1      -4.927  15.105  24.082  0.00  0.00    +0.000 A 
ATOM     23  N   UNL     1      -4.419  16.092  24.884  0.00  0.00    +0.000 N 
ATOM     24  C   UNL     1      -3.163  15.731  25.269  0.00  0.00    +0.000 A 
ATOM     25  N   UNL     1      -2.845  14.547  24.777  0.00  0.00    +0.000 NA
ATOM     26  H   UNL     1      -4.890  16.972  25.094  0.00  0.00    +0.000 HD
ENDBRANCH  20  21
ENDBRANCH  19  20
ENDBRANCH   5  19
TORSDOF 6
ENDMDL
