MODEL 1
REMARK VINA RESULT:      -6.7      0.000      0.000
REMARK  Name = 
REMARK  12 active torsions:
REMARK  status: ('A' for Active; 'I' for Inactive)
REMARK    1  A    between atoms: C_1  and  N_2
REMARK    2  A    between atoms: N_4  and  C_5
REMARK    3  A    between atoms: C_5  and  C_6
REMARK    4  A    between atoms: C_6  and  C_7
REMARK    5  A    between atoms: C_7  and  O_8
REMARK    6  A    between atoms: O_8  and  C_9
REMARK    7  A    between atoms: C_9  and  C_10
REMARK    8  A    between atoms: N_15  and  C_16
REMARK    9  A    between atoms: C_16  and  C_17
REMARK   10  A    between atoms: C_20  and  N_21
REMARK   11  A    between atoms: N_21  and  C_22
REMARK   12  A    between atoms: N_21  and  C_23
REMARK                            x       y       z     vdW  Elec       q    Type
REMARK                         _______ _______ _______ _____ _____    ______ ____
ROOT
ATOM      1  C   UNL     1       5.924   3.972  15.187  0.00  0.00    +0.000 C 
ATOM      2  N   UNL     1       5.070   4.947  15.841  0.00  0.00    +0.000 NA
ATOM      3  C   UNL     1       4.830   4.854  17.103  0.00  0.00    +0.000 C 
ATOM      4  N   UNL     1       5.368   3.955  17.974  0.00  0.00    +0.000 N 
ATOM      5  N   UNL     1       3.994   5.746  17.717  0.00  0.00    +0.000 N 
ATOM      6  H   UNL     1       6.068   3.349  17.564  0.00  0.00    +0.000 HD
ATOM      7  H   UNL     1       4.049   5.722  18.725  0.00  0.00    +0.000 HD
ENDROOT
BRANCH   4   8
ATOM      8  C   UNL     1       4.677   3.328  19.090  0.00  0.00    +0.000 C 
BRANCH   8   9
ATOM      9  C   UNL     1       4.055   2.003  18.645  0.00  0.00    +0.000 C 
BRANCH   9  10
ATOM     10  C   UNL     1       2.931   2.229  17.642  0.00  0.00    +0.000 C 
BRANCH  10  11
ATOM     11  O   UNL     1       1.961   3.098  18.220  0.00  0.00    +0.000 OA
BRANCH  11  12
ATOM     12  C   UNL     1       1.011   2.386  19.012  0.00  0.00    +0.000 C 
BRANCH  12  13
ATOM     13  C   UNL     1       0.644   3.203  20.257  0.00  0.00    +0.000 C 
ATOM     14  C   UNL     1       1.020   2.529  21.567  0.00  0.00    +0.000 C 
ATOM     15  C   UNL     1       2.431   3.009  21.790  0.00  0.00    +0.000 C 
ATOM     16  C   UNL     1       2.387   4.416  21.233  0.00  0.00    +0.000 C 
ATOM     17  O   UNL     1       1.369   4.446  20.222  0.00  0.00    +0.000 OA
ENDBRANCH  12  13
ENDBRANCH  11  12
ENDBRANCH  10  11
ENDBRANCH   9  10
ENDBRANCH   8   9
ENDBRANCH   4   8
BRANCH   5  18
ATOM     18  C   UNL     1       3.834   7.106  17.228  0.00  0.00    +0.000 C 
BRANCH  18  19
ATOM     19  C   UNL     1       2.853   7.855  18.097  0.00  0.00    +0.000 A 
ATOM     20  C   UNL     1       2.293   9.059  17.667  0.00  0.00    +0.000 A 
ATOM     21  C   UNL     1       1.376   9.752  18.475  0.00  0.00    +0.000 A 
ATOM     22  C   UNL     1       0.980   9.286  19.741  0.00  0.00    +0.000 A 
ATOM     23  C   UNL     1       1.583   8.091  20.164  0.00  0.00    +0.000 A 
ATOM     24  C   UNL     1       2.503   7.388  19.367  0.00  0.00    +0.000 A 
BRANCH  22  25
ATOM     25  N   UNL     1       0.090  10.003  20.528  0.00  0.00    +0.000 N 
ATOM     26  C   UNL     1      -0.872  10.925  19.927  0.00  0.00    +0.000 C 
ATOM     27  C   UNL     1      -0.205   9.632  21.908  0.00  0.00    +0.000 C 
ENDBRANCH  22  25
ENDBRANCH  18  19
ENDBRANCH   5  18
TORSDOF 9
ENDMDL
MODEL 2
REMARK VINA RESULT:      -6.5      6.647      9.246
REMARK  Name = 
REMARK  12 active torsions:
REMARK  status: ('A' for Active; 'I' for Inactive)
REMARK    1  A    between atoms: C_1  and  N_2
REMARK    2  A    between atoms: N_4  and  C_5
REMARK    3  A    between atoms: C_5  and  C_6
REMARK    4  A    between atoms: C_6  and  C_7
REMARK    5  A    between atoms: C_7  and  O_8
REMARK    6  A    between atoms: O_8  and  C_9
REMARK    7  A    between atoms: C_9  and  C_10
REMARK    8  A    between atoms: N_15  and  C_16
REMARK    9  A    between atoms: C_16  and  C_17
REMARK   10  A    between atoms: C_20  and  N_21
REMARK   11  A    between atoms: N_21  and  C_22
REMARK   12  A    between atoms: N_21  and  C_23
REMARK                            x       y       z     vdW  Elec       q    Type
REMARK                         _______ _______ _______ _____ _____    ______ ____
ROOT
ATOM      1  C   UNL     1       8.145   5.508  19.427  0.00  0.00    +0.000 C 
ATOM      2  N   UNL     1       7.177   5.840  18.398  0.00  0.00    +0.000 NA
ATOM      3  C   UNL     1       7.241   6.973  17.790  0.00  0.00    +0.000 C 
ATOM      4  N   UNL     1       8.202   7.927  17.938  0.00  0.00    +0.000 N 
ATOM      5  N   UNL     1       6.307   7.308  16.848  0.00  0.00    +0.000 N 
ATOM      6  H   UNL     1       8.960   7.660  18.554  0.00  0.00    +0.000 HD
ATOM      7  H   UNL     1       6.570   8.103  16.284  0.00  0.00    +0.000 HD
ENDROOT
BRANCH   4   8
ATOM      8  C   UNL     1       7.989   9.366  17.913  0.00  0.00    +0.000 C 
BRANCH   8   9
ATOM      9  C   UNL     1       8.975  10.058  18.856  0.00  0.00    +0.000 C 
BRANCH   9  10
ATOM     10  C   UNL     1       9.809  11.099  18.118  0.00  0.00    +0.000 C 
BRANCH  10  11
ATOM     11  O   UNL     1      10.984  11.373  18.876  0.00  0.00    +0.000 OA
BRANCH  11  12
ATOM     12  C   UNL     1      11.699  12.497  18.363  0.00  0.00    +0.000 C 
BRANCH  12  13
ATOM     13  C   UNL     1      10.719  13.608  17.966  0.00  0.00    +0.000 C 
ATOM     14  C   UNL     1      10.603  14.721  18.998  0.00  0.00    +0.000 C 
ATOM     15  C   UNL     1      11.695  15.672  18.578  0.00  0.00    +0.000 C 
ATOM     16  C   UNL     1      11.678  15.543  17.070  0.00  0.00    +0.000 C 
ATOM     17  O   UNL     1      11.191  14.230  16.757  0.00  0.00    +0.000 OA
ENDBRANCH  12  13
ENDBRANCH  11  12
ENDBRANCH  10  11
ENDBRANCH   9  10
ENDBRANCH   8   9
ENDBRANCH   4   8
BRANCH   5  18
ATOM     18  C   UNL     1       5.626   6.299  16.053  0.00  0.00    +0.000 C 
BRANCH  18  19
ATOM     19  C   UNL     1       4.523   5.660  16.862  0.00  0.00    +0.000 A 
ATOM     20  C   UNL     1       4.357   4.275  16.875  0.00  0.00    +0.000 A 
ATOM     21  C   UNL     1       3.333   3.683  17.632  0.00  0.00    +0.000 A 
ATOM     22  C   UNL     1       2.430   4.435  18.403  0.00  0.00    +0.000 A 
ATOM     23  C   UNL     1       2.597   5.828  18.347  0.00  0.00    +0.000 A 
ATOM     24  C   UNL     1       3.617   6.434  17.591  0.00  0.00    +0.000 A 
BRANCH  22  25
ATOM     25  N   UNL     1       1.413   3.826  19.124  0.00  0.00    +0.000 N 
ATOM     26  C   UNL     1       0.890   2.518  18.729  0.00  0.00    +0.000 C 
ATOM     27  C   UNL     1       1.063   4.235  20.480  0.00  0.00    +0.000 C 
ENDBRANCH  22  25
ENDBRANCH  18  19
ENDBRANCH   5  18
TORSDOF 9
ENDMDL
MODEL 3
REMARK VINA RESULT:      -6.5      1.717      2.675
REMARK  Name = 
REMARK  12 active torsions:
REMARK  status: ('A' for Active; 'I' for Inactive)
REMARK    1  A    between atoms: C_1  and  N_2
REMARK    2  A    between atoms: N_4  and  C_5
REMARK    3  A    between atoms: C_5  and  C_6
REMARK    4  A    between atoms: C_6  and  C_7
REMARK    5  A    between atoms: C_7  and  O_8
REMARK    6  A    between atoms: O_8  and  C_9
REMARK    7  A    between atoms: C_9  and  C_10
REMARK    8  A    between atoms: N_15  and  C_16
REMARK    9  A    between atoms: C_16  and  C_17
REMARK   10  A    between atoms: C_20  and  N_21
REMARK   11  A    between atoms: N_21  and  C_22
REMARK   12  A    between atoms: N_21  and  C_23
REMARK                            x       y       z     vdW  Elec       q    Type
REMARK                         _______ _______ _______ _____ _____    ______ ____
ROOT
ATOM      1  C   UNL     1       5.583   4.504  15.103  0.00  0.00    +0.000 C 
ATOM      2  N   UNL     1       4.745   5.411  15.867  0.00  0.00    +0.000 NA
ATOM      3  C   UNL     1       5.280   6.335  16.586  0.00  0.00    +0.000 C 
ATOM      4  N   UNL     1       6.604   6.645  16.667  0.00  0.00    +0.000 N 
ATOM      5  N   UNL     1       4.498   7.167  17.339  0.00  0.00    +0.000 N 
ATOM      6  H   UNL     1       7.194   6.112  16.040  0.00  0.00    +0.000 HD
ATOM      7  H   UNL     1       4.987   7.981  17.682  0.00  0.00    +0.000 HD
ENDROOT
BRANCH   4   8
ATOM      8  C   UNL     1       7.311   7.071  17.865  0.00  0.00    +0.000 C 
BRANCH   8   9
ATOM      9  C   UNL     1       7.662   5.856  18.726  0.00  0.00    +0.000 C 
BRANCH   9  10
ATOM     10  C   UNL     1       6.431   5.305  19.435  0.00  0.00    +0.000 C 
BRANCH  10  11
ATOM     11  O   UNL     1       6.055   4.074  18.823  0.00  0.00    +0.000 OA
BRANCH  11  12
ATOM     12  C   UNL     1       4.878   3.524  19.413  0.00  0.00    +0.000 C 
BRANCH  12  13
ATOM     13  C   UNL     1       3.845   3.201  18.325  0.00  0.00    +0.000 C 
ATOM     14  C   UNL     1       3.112   1.886  18.545  0.00  0.00    +0.000 C 
ATOM     15  C   UNL     1       1.940   2.302  19.395  0.00  0.00    +0.000 C 
ATOM     16  C   UNL     1       1.620   3.680  18.856  0.00  0.00    +0.000 C 
ATOM     17  O   UNL     1       2.836   4.228  18.328  0.00  0.00    +0.000 OA
ENDBRANCH  12  13
ENDBRANCH  11  12
ENDBRANCH  10  11
ENDBRANCH   9  10
ENDBRANCH   8   9
ENDBRANCH   4   8
BRANCH   5  18
ATOM     18  C   UNL     1       3.135   7.494  16.953  0.00  0.00    +0.000 C 
BRANCH  18  19
ATOM     19  C   UNL     1       2.404   8.122  18.115  0.00  0.00    +0.000 A 
ATOM     20  C   UNL     1       1.809   9.378  17.990  0.00  0.00    +0.000 A 
ATOM     21  C   UNL     1       1.125   9.957  19.071  0.00  0.00    +0.000 A 
ATOM     22  C   UNL     1       1.005   9.322  20.320  0.00  0.00    +0.000 A 
ATOM     23  C   UNL     1       1.641   8.075  20.430  0.00  0.00    +0.000 A 
ATOM     24  C   UNL     1       2.331   7.484  19.356  0.00  0.00    +0.000 A 
BRANCH  22  25
ATOM     25  N   UNL     1       0.344   9.928  21.378  0.00  0.00    +0.000 N 
ATOM     26  C   UNL     1      -0.231  11.265  21.239  0.00  0.00    +0.000 C 
ATOM     27  C   UNL     1      -0.143   9.175  22.529  0.00  0.00    +0.000 C 
ENDBRANCH  22  25
ENDBRANCH  18  19
ENDBRANCH   5  18
TORSDOF 9
ENDMDL
MODEL 4
REMARK VINA RESULT:      -6.4      2.621      5.267
REMARK  Name = 
REMARK  12 active torsions:
REMARK  status: ('A' for Active; 'I' for Inactive)
REMARK    1  A    between atoms: C_1  and  N_2
REMARK    2  A    between atoms: N_4  and  C_5
REMARK    3  A    between atoms: C_5  and  C_6
REMARK    4  A    between atoms: C_6  and  C_7
REMARK    5  A    between atoms: C_7  and  O_8
REMARK    6  A    between atoms: O_8  and  C_9
REMARK    7  A    between atoms: C_9  and  C_10
REMARK    8  A    between atoms: N_15  and  C_16
REMARK    9  A    between atoms: C_16  and  C_17
REMARK   10  A    between atoms: C_20  and  N_21
REMARK   11  A    between atoms: N_21  and  C_22
REMARK   12  A    between atoms: N_21  and  C_23
REMARK                            x       y       z     vdW  Elec       q    Type
REMARK                         _______ _______ _______ _____ _____    ______ ____
ROOT
ATOM      1  C   UNL     1       0.917   3.513  20.189  0.00  0.00    +0.000 C 
ATOM      2  N   UNL     1       1.274   4.839  20.660  0.00  0.00    +0.000 NA
ATOM      3  C   UNL     1       2.086   5.570  19.979  0.00  0.00    +0.000 C 
ATOM      4  N   UNL     1       2.626   5.279  18.763  0.00  0.00    +0.000 N 
ATOM      5  N   UNL     1       2.458   6.804  20.438  0.00  0.00    +0.000 N 
ATOM      6  H   UNL     1       2.286   4.417  18.354  0.00  0.00    +0.000 HD
ATOM      7  H   UNL     1       2.910   7.375  19.739  0.00  0.00    +0.000 HD
ENDROOT
BRANCH   4   8
ATOM      8  C   UNL     1       3.974   5.605  18.325  0.00  0.00    +0.000 C 
BRANCH   8   9
ATOM      9  C   UNL     1       4.985   4.680  19.004  0.00  0.00    +0.000 C 
BRANCH   9  10
ATOM     10  C   UNL     1       6.283   5.414  19.319  0.00  0.00    +0.000 C 
BRANCH  10  11
ATOM     11  O   UNL     1       7.306   4.943  18.445  0.00  0.00    +0.000 OA
BRANCH  11  12
ATOM     12  C   UNL     1       7.202   5.521  17.144  0.00  0.00    +0.000 C 
BRANCH  12  13
ATOM     13  C   UNL     1       7.358   4.436  16.071  0.00  0.00    +0.000 C 
ATOM     14  C   UNL     1       6.062   3.710  15.741  0.00  0.00    +0.000 C 
ATOM     15  C   UNL     1       5.476   4.566  14.647  0.00  0.00    +0.000 C 
ATOM     16  C   UNL     1       6.709   5.038  13.908  0.00  0.00    +0.000 C 
ATOM     17  O   UNL     1       7.794   5.056  14.848  0.00  0.00    +0.000 OA
ENDBRANCH  12  13
ENDBRANCH  11  12
ENDBRANCH  10  11
ENDBRANCH   9  10
ENDBRANCH   8   9
ENDBRANCH   4   8
BRANCH   5  18
ATOM     18  C   UNL     1       1.586   7.599  21.287  0.00  0.00    +0.000 C 
BRANCH  18  19
ATOM     19  C   UNL     1       0.953   8.709  20.483  0.00  0.00    +0.000 A 
ATOM     20  C   UNL     1      -0.092   9.468  21.012  0.00  0.00    +0.000 A 
ATOM     21  C   UNL     1      -0.675  10.503  20.264  0.00  0.00    +0.000 A 
ATOM     22  C   UNL     1      -0.254  10.828  18.962  0.00  0.00    +0.000 A 
ATOM     23  C   UNL     1       0.775  10.028  18.441  0.00  0.00    +0.000 A 
ATOM     24  C   UNL     1       1.368   8.988  19.178  0.00  0.00    +0.000 A 
BRANCH  22  25
ATOM     25  N   UNL     1      -0.864  11.841  18.237  0.00  0.00    +0.000 N 
ATOM     26  C   UNL     1      -2.118  11.603  17.522  0.00  0.00    +0.000 C 
ATOM     27  C   UNL     1      -0.532  13.248  18.429  0.00  0.00    +0.000 C 
ENDBRANCH  22  25
ENDBRANCH  18  19
ENDBRANCH   5  18
TORSDOF 9
ENDMDL
MODEL 5
REMARK VINA RESULT:      -6.4      2.327      4.379
REMARK  Name = 
REMARK  12 active torsions:
REMARK  status: ('A' for Active; 'I' for Inactive)
REMARK    1  A    between atoms: C_1  and  N_2
REMARK    2  A    between atoms: N_4  and  C_5
REMARK    3  A    between atoms: C_5  and  C_6
REMARK    4  A    between atoms: C_6  and  C_7
REMARK    5  A    between atoms: C_7  and  O_8
REMARK    6  A    between atoms: O_8  and  C_9
REMARK    7  A    between atoms: C_9  and  C_10
REMARK    8  A    between atoms: N_15  and  C_16
REMARK    9  A    between atoms: C_16  and  C_17
REMARK   10  A    between atoms: C_20  and  N_21
REMARK   11  A    between atoms: N_21  and  C_22
REMARK   12  A    between atoms: N_21  and  C_23
REMARK                            x       y       z     vdW  Elec       q    Type
REMARK                         _______ _______ _______ _____ _____    ______ ____
ROOT
ATOM      1  C   UNL     1       1.903   3.185  21.832  0.00  0.00    +0.000 C 
ATOM      2  N   UNL     1       2.248   4.491  21.300  0.00  0.00    +0.000 NA
ATOM      3  C   UNL     1       1.966   4.787  20.079  0.00  0.00    +0.000 C 
ATOM      4  N   UNL     1       1.273   4.022  19.190  0.00  0.00    +0.000 N 
ATOM      5  N   UNL     1       2.324   6.001  19.561  0.00  0.00    +0.000 N 
ATOM      6  H   UNL     1       0.907   3.162  19.581  0.00  0.00    +0.000 HD
ATOM      7  H   UNL     1       1.869   6.217  18.685  0.00  0.00    +0.000 HD
ENDROOT
BRANCH   4   8
ATOM      8  C   UNL     1       1.541   3.913  17.765  0.00  0.00    +0.000 C 
BRANCH   8   9
ATOM      9  C   UNL     1       2.424   2.695  17.488  0.00  0.00    +0.000 C 
BRANCH   9  10
ATOM     10  C   UNL     1       3.902   3.067  17.509  0.00  0.00    +0.000 C 
BRANCH  10  11
ATOM     11  O   UNL     1       4.117   4.167  16.629  0.00  0.00    +0.000 OA
BRANCH  11  12
ATOM     12  C   UNL     1       5.021   5.123  17.182  0.00  0.00    +0.000 C 
BRANCH  12  13
ATOM     13  C   UNL     1       6.135   4.407  17.957  0.00  0.00    +0.000 C 
ATOM     14  C   UNL     1       7.537   4.756  17.481  0.00  0.00    +0.000 C 
ATOM     15  C   UNL     1       7.874   5.968  18.311  0.00  0.00    +0.000 C 
ATOM     16  C   UNL     1       7.187   5.663  19.625  0.00  0.00    +0.000 C 
ATOM     17  O   UNL     1       6.068   4.811  19.337  0.00  0.00    +0.000 OA
ENDBRANCH  12  13
ENDBRANCH  11  12
ENDBRANCH  10  11
ENDBRANCH   9  10
ENDBRANCH   8   9
ENDBRANCH   4   8
BRANCH   5  18
ATOM     18  C   UNL     1       2.448   7.184  20.396  0.00  0.00    +0.000 C 
BRANCH  18  19
ATOM     19  C   UNL     1       1.594   8.300  19.844  0.00  0.00    +0.000 A 
ATOM     20  C   UNL     1       0.650   8.941  20.647  0.00  0.00    +0.000 A 
ATOM     21  C   UNL     1      -0.139   9.983  20.131  0.00  0.00    +0.000 A 
ATOM     22  C   UNL     1      -0.030  10.429  18.803  0.00  0.00    +0.000 A 
ATOM     23  C   UNL     1       0.903   9.746  18.007  0.00  0.00    +0.000 A 
ATOM     24  C   UNL     1       1.698   8.701  18.509  0.00  0.00    +0.000 A 
BRANCH  22  25
ATOM     25  N   UNL     1      -0.839  11.445  18.313  0.00  0.00    +0.000 N 
ATOM     26  C   UNL     1      -2.265  11.222  18.076  0.00  0.00    +0.000 C 
ATOM     27  C   UNL     1      -0.443  12.849  18.357  0.00  0.00    +0.000 C 
ENDBRANCH  22  25
ENDBRANCH  18  19
ENDBRANCH   5  18
TORSDOF 9
ENDMDL
MODEL 6
REMARK VINA RESULT:      -6.3      2.646      4.704
REMARK  Name = 
REMARK  12 active torsions:
REMARK  status: ('A' for Active; 'I' for Inactive)
REMARK    1  A    between atoms: C_1  and  N_2
REMARK    2  A    between atoms: N_4  and  C_5
REMARK    3  A    between atoms: C_5  and  C_6
REMARK    4  A    between atoms: C_6  and  C_7
REMARK    5  A    between atoms: C_7  and  O_8
REMARK    6  A    between atoms: O_8  and  C_9
REMARK    7  A    between atoms: C_9  and  C_10
REMARK    8  A    between atoms: N_15  and  C_16
REMARK    9  A    between atoms: C_16  and  C_17
REMARK   10  A    between atoms: C_20  and  N_21
REMARK   11  A    between atoms: N_21  and  C_22
REMARK   12  A    between atoms: N_21  and  C_23
REMARK                            x       y       z     vdW  Elec       q    Type
REMARK                         _______ _______ _______ _____ _____    ______ ____
ROOT
ATOM      1  C   UNL     1       1.807   2.613  21.518  0.00  0.00    +0.000 C 
ATOM      2  N   UNL     1       2.091   4.005  21.217  0.00  0.00    +0.000 NA
ATOM      3  C   UNL     1       1.927   4.455  20.022  0.00  0.00    +0.000 C 
ATOM      4  N   UNL     1       1.415   3.778  18.956  0.00  0.00    +0.000 N 
ATOM      5  N   UNL     1       2.232   5.754  19.723  0.00  0.00    +0.000 N 
ATOM      6  H   UNL     1       1.086   2.846  19.176  0.00  0.00    +0.000 HD
ATOM      7  H   UNL     1       1.864   6.061  18.833  0.00  0.00    +0.000 HD
ENDROOT
BRANCH   4   8
ATOM      8  C   UNL     1       1.856   3.898  17.575  0.00  0.00    +0.000 C 
BRANCH   8   9
ATOM      9  C   UNL     1       3.301   3.417  17.441  0.00  0.00    +0.000 C 
BRANCH   9  10
ATOM     10  C   UNL     1       4.137   4.393  16.623  0.00  0.00    +0.000 C 
BRANCH  10  11
ATOM     11  O   UNL     1       5.445   3.854  16.452  0.00  0.00    +0.000 OA
BRANCH  11  12
ATOM     12  C   UNL     1       6.438   4.877  16.382  0.00  0.00    +0.000 C 
BRANCH  12  13
ATOM     13  C   UNL     1       6.083   6.022  17.338  0.00  0.00    +0.000 C 
ATOM     14  C   UNL     1       6.713   5.890  18.717  0.00  0.00    +0.000 C 
ATOM     15  C   UNL     1       8.040   6.583  18.539  0.00  0.00    +0.000 C 
ATOM     16  C   UNL     1       7.698   7.696  17.572  0.00  0.00    +0.000 C 
ATOM     17  O   UNL     1       6.581   7.255  16.786  0.00  0.00    +0.000 OA
ENDBRANCH  12  13
ENDBRANCH  11  12
ENDBRANCH  10  11
ENDBRANCH   9  10
ENDBRANCH   8   9
ENDBRANCH   4   8
BRANCH   5  18
ATOM     18  C   UNL     1       2.150   6.809  20.720  0.00  0.00    +0.000 C 
BRANCH  18  19
ATOM     19  C   UNL     1       1.557   8.055  20.108  0.00  0.00    +0.000 A 
ATOM     20  C   UNL     1       0.829   8.956  20.887  0.00  0.00    +0.000 A 
ATOM     21  C   UNL     1       0.282  10.117  20.316  0.00  0.00    +0.000 A 
ATOM     22  C   UNL     1       0.429  10.433  18.954  0.00  0.00    +0.000 A 
ATOM     23  C   UNL     1       1.137   9.494  18.186  0.00  0.00    +0.000 A 
ATOM     24  C   UNL     1       1.687   8.327  18.744  0.00  0.00    +0.000 A 
BRANCH  22  25
ATOM     25  N   UNL     1      -0.141  11.576  18.412  0.00  0.00    +0.000 N 
ATOM     26  C   UNL     1      -1.567  11.624  18.089  0.00  0.00    +0.000 C 
ATOM     27  C   UNL     1       0.512  12.879  18.472  0.00  0.00    +0.000 C 
ENDBRANCH  22  25
ENDBRANCH  18  19
ENDBRANCH   5  18
TORSDOF 9
ENDMDL
MODEL 7
REMARK VINA RESULT:      -6.3      2.545      5.530
REMARK  Name = 
REMARK  12 active torsions:
REMARK  status: ('A' for Active; 'I' for Inactive)
REMARK    1  A    between atoms: C_1  and  N_2
REMARK    2  A    between atoms: N_4  and  C_5
REMARK    3  A    between atoms: C_5  and  C_6
REMARK    4  A    between atoms: C_6  and  C_7
REMARK    5  A    between atoms: C_7  and  O_8
REMARK    6  A    between atoms: O_8  and  C_9
REMARK    7  A    between atoms: C_9  and  C_10
REMARK    8  A    between atoms: N_15  and  C_16
REMARK    9  A    between atoms: C_16  and  C_17
REMARK   10  A    between atoms: C_20  and  N_21
REMARK   11  A    between atoms: N_21  and  C_22
REMARK   12  A    between atoms: N_21  and  C_23
REMARK                            x       y       z     vdW  Elec       q    Type
REMARK                         _______ _______ _______ _____ _____    ______ ____
ROOT
ATOM      1  C   UNL     1       4.027   1.411  18.739  0.00  0.00    +0.000 C 
ATOM      2  N   UNL     1       3.735   2.706  19.327  0.00  0.00    +0.000 NA
ATOM      3  C   UNL     1       4.351   3.758  18.914  0.00  0.00    +0.000 C 
ATOM      4  N   UNL     1       5.235   3.836  17.880  0.00  0.00    +0.000 N 
ATOM      5  N   UNL     1       4.110   4.974  19.493  0.00  0.00    +0.000 N 
ATOM      6  H   UNL     1       5.352   2.969  17.369  0.00  0.00    +0.000 HD
ATOM      7  H   UNL     1       4.468   5.753  18.958  0.00  0.00    +0.000 HD
ENDROOT
BRANCH   4   8
ATOM      8  C   UNL     1       6.424   4.673  17.832  0.00  0.00    +0.000 C 
BRANCH   8   9
ATOM      9  C   UNL     1       6.697   5.113  16.393  0.00  0.00    +0.000 C 
BRANCH   9  10
ATOM     10  C   UNL     1       5.403   5.242  15.598  0.00  0.00    +0.000 C 
BRANCH  10  11
ATOM     11  O   UNL     1       5.292   4.133  14.710  0.00  0.00    +0.000 OA
BRANCH  11  12
ATOM     12  C   UNL     1       6.518   3.870  14.029  0.00  0.00    +0.000 C 
BRANCH  12  13
ATOM     13  C   UNL     1       6.326   4.041  12.516  0.00  0.00    +0.000 C 
ATOM     14  C   UNL     1       6.870   2.882  11.694  0.00  0.00    +0.000 C 
ATOM     15  C   UNL     1       5.694   1.941  11.636  0.00  0.00    +0.000 C 
ATOM     16  C   UNL     1       4.518   2.893  11.580  0.00  0.00    +0.000 C 
ATOM     17  O   UNL     1       4.916   4.106  12.234  0.00  0.00    +0.000 OA
ENDBRANCH  12  13
ENDBRANCH  11  12
ENDBRANCH  10  11
ENDBRANCH   9  10
ENDBRANCH   8   9
ENDBRANCH   4   8
BRANCH   5  18
ATOM     18  C   UNL     1       2.827   5.293  20.098  0.00  0.00    +0.000 C 
BRANCH  18  19
ATOM     19  C   UNL     1       2.391   6.678  19.686  0.00  0.00    +0.000 A 
ATOM     20  C   UNL     1       1.647   7.480  20.553  0.00  0.00    +0.000 A 
ATOM     21  C   UNL     1       1.247   8.770  20.170  0.00  0.00    +0.000 A 
ATOM     22  C   UNL     1       1.561   9.319  18.914  0.00  0.00    +0.000 A 
ATOM     23  C   UNL     1       2.281   8.480  18.048  0.00  0.00    +0.000 A 
ATOM     24  C   UNL     1       2.686   7.186  18.418  0.00  0.00    +0.000 A 
BRANCH  22  25
ATOM     25  N   UNL     1       1.133  10.588  18.552  0.00  0.00    +0.000 N 
ATOM     26  C   UNL     1      -0.233  11.029  18.833  0.00  0.00    +0.000 C 
ATOM     27  C   UNL     1       2.064  11.664  18.228  0.00  0.00    +0.000 C 
ENDBRANCH  22  25
ENDBRANCH  18  19
ENDBRANCH   5  18
TORSDOF 9
ENDMDL
MODEL 8
REMARK VINA RESULT:      -6.3      6.445      9.079
REMARK  Name = 
REMARK  12 active torsions:
REMARK  status: ('A' for Active; 'I' for Inactive)
REMARK    1  A    between atoms: C_1  and  N_2
REMARK    2  A    between atoms: N_4  and  C_5
REMARK    3  A    between atoms: C_5  and  C_6
REMARK    4  A    between atoms: C_6  and  C_7
REMARK    5  A    between atoms: C_7  and  O_8
REMARK    6  A    between atoms: O_8  and  C_9
REMARK    7  A    between atoms: C_9  and  C_10
REMARK    8  A    between atoms: N_15  and  C_16
REMARK    9  A    between atoms: C_16  and  C_17
REMARK   10  A    between atoms: C_20  and  N_21
REMARK   11  A    between atoms: N_21  and  C_22
REMARK   12  A    between atoms: N_21  and  C_23
REMARK                            x       y       z     vdW  Elec       q    Type
REMARK                         _______ _______ _______ _____ _____    ______ ____
ROOT
ATOM      1  C   UNL     1       8.148   5.215  18.972  0.00  0.00    +0.000 C 
ATOM      2  N   UNL     1       7.068   5.626  18.093  0.00  0.00    +0.000 NA
ATOM      3  C   UNL     1       7.083   6.795  17.553  0.00  0.00    +0.000 C 
ATOM      4  N   UNL     1       8.077   7.722  17.637  0.00  0.00    +0.000 N 
ATOM      5  N   UNL     1       6.048   7.203  16.756  0.00  0.00    +0.000 N 
ATOM      6  H   UNL     1       8.899   7.405  18.135  0.00  0.00    +0.000 HD
ATOM      7  H   UNL     1       6.258   8.028  16.213  0.00  0.00    +0.000 HD
ENDROOT
BRANCH   4   8
ATOM      8  C   UNL     1       7.897   9.163  17.725  0.00  0.00    +0.000 C 
BRANCH   8   9
ATOM      9  C   UNL     1       8.876   9.752  18.742  0.00  0.00    +0.000 C 
BRANCH   9  10
ATOM     10  C   UNL     1       9.152  11.223  18.457  0.00  0.00    +0.000 C 
BRANCH  10  11
ATOM     11  O   UNL     1      10.353  11.331  17.696  0.00  0.00    +0.000 OA
BRANCH  11  12
ATOM     12  C   UNL     1      11.463  11.717  18.505  0.00  0.00    +0.000 C 
BRANCH  12  13
ATOM     13  C   UNL     1      12.140  12.960  17.912  0.00  0.00    +0.000 C 
ATOM     14  C   UNL     1      11.315  13.655  16.839  0.00  0.00    +0.000 C 
ATOM     15  C   UNL     1      10.478  14.617  17.641  0.00  0.00    +0.000 C 
ATOM     16  C   UNL     1      11.420  15.017  18.756  0.00  0.00    +0.000 C 
ATOM     17  O   UNL     1      12.330  13.927  18.961  0.00  0.00    +0.000 OA
ENDBRANCH  12  13
ENDBRANCH  11  12
ENDBRANCH  10  11
ENDBRANCH   9  10
ENDBRANCH   8   9
ENDBRANCH   4   8
BRANCH   5  18
ATOM     18  C   UNL     1       5.250   6.257  15.993  0.00  0.00    +0.000 C 
BRANCH  18  19
ATOM     19  C   UNL     1       4.326   5.497  16.914  0.00  0.00    +0.000 A 
ATOM     20  C   UNL     1       3.514   6.173  17.827  0.00  0.00    +0.000 A 
ATOM     21  C   UNL     1       2.652   5.464  18.678  0.00  0.00    +0.000 A 
ATOM     22  C   UNL     1       2.559   4.061  18.666  0.00  0.00    +0.000 A 
ATOM     23  C   UNL     1       3.410   3.404  17.763  0.00  0.00    +0.000 A 
ATOM     24  C   UNL     1       4.280   4.101  16.906  0.00  0.00    +0.000 A 
BRANCH  22  25
ATOM     25  N   UNL     1       1.715   3.385  19.536  0.00  0.00    +0.000 N 
ATOM     26  C   UNL     1       0.706   2.453  19.032  0.00  0.00    +0.000 C 
ATOM     27  C   UNL     1       2.000   3.258  20.961  0.00  0.00    +0.000 C 
ENDBRANCH  22  25
ENDBRANCH  18  19
ENDBRANCH   5  18
TORSDOF 9
ENDMDL
MODEL 9
REMARK VINA RESULT:      -6.3      2.536      4.686
REMARK  Name = 
REMARK  12 active torsions:
REMARK  status: ('A' for Active; 'I' for Inactive)
REMARK    1  A    between atoms: C_1  and  N_2
REMARK    2  A    between atoms: N_4  and  C_5
REMARK    3  A    between atoms: C_5  and  C_6
REMARK    4  A    between atoms: C_6  and  C_7
REMARK    5  A    between atoms: C_7  and  O_8
REMARK    6  A    between atoms: O_8  and  C_9
REMARK    7  A    between atoms: C_9  and  C_10
REMARK    8  A    between atoms: N_15  and  C_16
REMARK    9  A    between atoms: C_16  and  C_17
REMARK   10  A    between atoms: C_20  and  N_21
REMARK   11  A    between atoms: N_21  and  C_22
REMARK   12  A    between atoms: N_21  and  C_23
REMARK                            x       y       z     vdW  Elec       q    Type
REMARK                         _______ _______ _______ _____ _____    ______ ____
ROOT
ATOM      1  C   UNL     1       2.198   2.875  21.597  0.00  0.00    +0.000 C 
ATOM      2  N   UNL     1       2.226   4.303  21.338  0.00  0.00    +0.000 NA
ATOM      3  C   UNL     1       1.851   4.760  20.194  0.00  0.00    +0.000 C 
ATOM      4  N   UNL     1       1.324   4.046  19.161  0.00  0.00    +0.000 N 
ATOM      5  N   UNL     1       1.914   6.101  19.930  0.00  0.00    +0.000 N 
ATOM      6  H   UNL     1       1.171   3.067  19.368  0.00  0.00    +0.000 HD
ATOM      7  H   UNL     1       1.398   6.374  19.106  0.00  0.00    +0.000 HD
ENDROOT
BRANCH   4   8
ATOM      8  C   UNL     1       1.570   4.281  17.746  0.00  0.00    +0.000 C 
BRANCH   8   9
ATOM      9  C   UNL     1       2.609   3.287  17.223  0.00  0.00    +0.000 C 
BRANCH   9  10
ATOM     10  C   UNL     1       3.933   3.979  16.919  0.00  0.00    +0.000 C 
BRANCH  10  11
ATOM     11  O   UNL     1       4.877   3.638  17.931  0.00  0.00    +0.000 OA
BRANCH  11  12
ATOM     12  C   UNL     1       5.277   4.777  18.692  0.00  0.00    +0.000 C 
BRANCH  12  13
ATOM     13  C   UNL     1       6.789   5.000  18.551  0.00  0.00    +0.000 C 
ATOM     14  C   UNL     1       7.348   4.582  17.198  0.00  0.00    +0.000 C 
ATOM     15  C   UNL     1       7.187   5.836  16.377  0.00  0.00    +0.000 C 
ATOM     16  C   UNL     1       7.433   6.927  17.396  0.00  0.00    +0.000 C 
ATOM     17  O   UNL     1       7.061   6.407  18.680  0.00  0.00    +0.000 OA
ENDBRANCH  12  13
ENDBRANCH  11  12
ENDBRANCH  10  11
ENDBRANCH   9  10
ENDBRANCH   8   9
ENDBRANCH   4   8
BRANCH   5  18
ATOM     18  C   UNL     1       1.793   7.095  20.983  0.00  0.00    +0.000 C 
BRANCH  18  19
ATOM     19  C   UNL     1       1.351   8.416  20.400  0.00  0.00    +0.000 A 
ATOM     20  C   UNL     1       0.609   9.321  21.161  0.00  0.00    +0.000 A 
ATOM     21  C   UNL     1       0.204  10.550  20.618  0.00  0.00    +0.000 A 
ATOM     22  C   UNL     1       0.511  10.934  19.301  0.00  0.00    +0.000 A 
ATOM     23  C   UNL     1       1.228   9.993  18.545  0.00  0.00    +0.000 A 
ATOM     24  C   UNL     1       1.638   8.757  19.076  0.00  0.00    +0.000 A 
BRANCH  22  25
ATOM     25  N   UNL     1       0.078  12.146  18.782  0.00  0.00    +0.000 N 
ATOM     26  C   UNL     1       1.034  13.181  18.390  0.00  0.00    +0.000 C 
ATOM     27  C   UNL     1      -1.269  12.333  18.253  0.00  0.00    +0.000 C 
ENDBRANCH  22  25
ENDBRANCH  18  19
ENDBRANCH   5  18
TORSDOF 9
ENDMDL
