MODEL 1
REMARK VINA RESULT:      -8.0      0.000      0.000
REMARK  Name = 
REMARK  3 active torsions:
REMARK  status: ('A' for Active; 'I' for Inactive)
REMARK    1  A    between atoms: C_2  and  C_3
REMARK    2  A    between atoms: C_2  and  C_14
REMARK    3  A    between atoms: C_7  and  C_8
REMARK                            x       y       z     vdW  Elec       q    Type
REMARK                         _______ _______ _______ _____ _____    ______ ____
ROOT
ATOM      1  O   UNL     1       3.656   7.621  17.129  0.00  0.00    +0.000 OA
ATOM      2  C   UNL     1       3.878   6.766  17.981  0.00  0.00    +0.000 C 
ENDROOT
BRANCH   2   3
ATOM      3  C   UNL     1       5.170   6.014  17.886  0.00  0.00    +0.000 A 
ATOM      4  C   UNL     1       5.972   5.978  19.067  0.00  0.00    +0.000 A 
ATOM      5  C   UNL     1       7.214   5.352  19.045  0.00  0.00    +0.000 A 
ATOM      6  C   UNL     1       7.629   4.736  17.868  0.00  0.00    +0.000 A 
ATOM      7  C   UNL     1       6.827   4.781  16.700  0.00  0.00    +0.000 A 
ATOM      8  C   UNL     1       7.333   4.358  15.484  0.00  0.00    +0.000 A 
ATOM      9  C   UNL     1       6.654   4.592  14.273  0.00  0.00    +0.000 A 
ATOM     10  C   UNL     1       5.348   4.203  14.217  0.00  0.00    +0.000 A 
ATOM     11  C   UNL     1       4.853   4.907  15.347  0.00  0.00    +0.000 A 
ATOM     12  C   UNL     1       5.536   5.273  16.663  0.00  0.00    +0.000 A 
ENDBRANCH   2   3
BRANCH   2  13
ATOM     13  C   UNL     1       2.888   6.472  19.049  0.00  0.00    +0.000 A 
ATOM     14  C   UNL     1       2.281   7.429  19.862  0.00  0.00    +0.000 A 
ATOM     15  N   UNL     1       1.518   6.813  20.831  0.00  0.00    +0.000 N 
ATOM     16  C   UNL     1       1.640   5.457  20.676  0.00  0.00    +0.000 A 
ATOM     17  C   UNL     1       2.420   5.220  19.555  0.00  0.00    +0.000 A 
ATOM     18  H   UNL     1       1.026   7.296  21.586  0.00  0.00    +0.000 HD
BRANCH  17  19
ATOM     19  C   UNL     1       2.804   3.893  19.161  0.00  0.00    +0.000 A 
ATOM     20  C   UNL     1       3.723   3.156  19.917  0.00  0.00    +0.000 A 
ATOM     21  C   UNL     1       4.172   1.916  19.473  0.00  0.00    +0.000 A 
ATOM     22  C   UNL     1       3.604   1.356  18.328  0.00  0.00    +0.000 A 
ATOM     23  C   UNL     1       2.664   2.072  17.582  0.00  0.00    +0.000 A 
ATOM     24  C   UNL     1       2.250   3.333  17.998  0.00  0.00    +0.000 A 
ENDBRANCH  17  19
ENDBRANCH   2  13
TORSDOF 3
ENDMDL
MODEL 2
REMARK VINA RESULT:      -7.9      2.508      6.039
REMARK  Name = 
REMARK  3 active torsions:
REMARK  status: ('A' for Active; 'I' for Inactive)
REMARK    1  A    between atoms: C_2  and  C_3
REMARK    2  A    between atoms: C_2  and  C_14
REMARK    3  A    between atoms: C_7  and  C_8
REMARK                            x       y       z     vdW  Elec       q    Type
REMARK                         _______ _______ _______ _____ _____    ______ ____
ROOT
ATOM      1  O   UNL     1       4.141   2.755  17.040  0.00  0.00    +0.000 OA
ATOM      2  C   UNL     1       4.393   3.926  16.775  0.00  0.00    +0.000 C 
ENDROOT
BRANCH   2   3
ATOM      3  C   UNL     1       3.681   4.984  17.563  0.00  0.00    +0.000 A 
ATOM      4  C   UNL     1       3.909   6.335  17.163  0.00  0.00    +0.000 A 
ATOM      5  C   UNL     1       3.333   7.378  17.881  0.00  0.00    +0.000 A 
ATOM      6  C   UNL     1       2.508   7.071  18.959  0.00  0.00    +0.000 A 
ATOM      7  C   UNL     1       2.292   5.725  19.350  0.00  0.00    +0.000 A 
ATOM      8  C   UNL     1       1.652   5.434  20.541  0.00  0.00    +0.000 A 
ATOM      9  C   UNL     1       1.615   4.129  21.068  0.00  0.00    +0.000 A 
ATOM     10  C   UNL     1       1.179   3.143  20.233  0.00  0.00    +0.000 A 
ATOM     11  C   UNL     1       2.078   3.346  19.152  0.00  0.00    +0.000 A 
ATOM     12  C   UNL     1       2.723   4.628  18.629  0.00  0.00    +0.000 A 
ENDBRANCH   2   3
BRANCH   2  13
ATOM     13  C   UNL     1       5.348   4.280  15.694  0.00  0.00    +0.000 A 
ATOM     14  C   UNL     1       5.286   3.801  14.385  0.00  0.00    +0.000 A 
ATOM     15  N   UNL     1       6.392   4.218  13.674  0.00  0.00    +0.000 N 
ATOM     16  C   UNL     1       7.192   4.945  14.515  0.00  0.00    +0.000 A 
ATOM     17  C   UNL     1       6.549   5.053  15.737  0.00  0.00    +0.000 A 
ATOM     18  H   UNL     1       6.609   3.945  12.713  0.00  0.00    +0.000 HD
BRANCH  17  19
ATOM     19  C   UNL     1       7.163   5.694  16.867  0.00  0.00    +0.000 A 
ATOM     20  C   UNL     1       7.557   4.954  17.987  0.00  0.00    +0.000 A 
ATOM     21  C   UNL     1       8.052   5.594  19.120  0.00  0.00    +0.000 A 
ATOM     22  C   UNL     1       8.266   6.972  19.085  0.00  0.00    +0.000 A 
ATOM     23  C   UNL     1       7.902   7.717  17.960  0.00  0.00    +0.000 A 
ATOM     24  C   UNL     1       7.362   7.085  16.844  0.00  0.00    +0.000 A 
ENDBRANCH  17  19
ENDBRANCH   2  13
TORSDOF 3
ENDMDL
MODEL 3
REMARK VINA RESULT:      -7.9      0.068      1.013
REMARK  Name = 
REMARK  3 active torsions:
REMARK  status: ('A' for Active; 'I' for Inactive)
REMARK    1  A    between atoms: C_2  and  C_3
REMARK    2  A    between atoms: C_2  and  C_14
REMARK    3  A    between atoms: C_7  and  C_8
REMARK                            x       y       z     vdW  Elec       q    Type
REMARK                         _______ _______ _______ _____ _____    ______ ____
ROOT
ATOM      1  O   UNL     1       3.684   7.667  17.111  0.00  0.00    +0.000 OA
ATOM      2  C   UNL     1       3.906   6.797  17.949  0.00  0.00    +0.000 C 
ENDROOT
BRANCH   2   3
ATOM      3  C   UNL     1       5.198   6.047  17.843  0.00  0.00    +0.000 A 
ATOM      4  C   UNL     1       6.013   6.017  19.014  0.00  0.00    +0.000 A 
ATOM      5  C   UNL     1       7.256   5.393  18.980  0.00  0.00    +0.000 A 
ATOM      6  C   UNL     1       7.658   4.771  17.801  0.00  0.00    +0.000 A 
ATOM      7  C   UNL     1       6.842   4.809  16.643  0.00  0.00    +0.000 A 
ATOM      8  C   UNL     1       7.333   4.381  15.423  0.00  0.00    +0.000 A 
ATOM      9  C   UNL     1       6.639   4.607  14.219  0.00  0.00    +0.000 A 
ATOM     10  C   UNL     1       5.334   4.216  14.181  0.00  0.00    +0.000 A 
ATOM     11  C   UNL     1       4.851   4.926  15.313  0.00  0.00    +0.000 A 
ATOM     12  C   UNL     1       5.550   5.299  16.619  0.00  0.00    +0.000 A 
ENDBRANCH   2   3
BRANCH   2  13
ATOM     13  C   UNL     1       2.914   6.484  19.010  0.00  0.00    +0.000 A 
ATOM     14  C   UNL     1       2.293   7.429  19.827  0.00  0.00    +0.000 A 
ATOM     15  N   UNL     1       1.532   6.798  20.788  0.00  0.00    +0.000 N 
ATOM     16  C   UNL     1       1.671   5.445  20.625  0.00  0.00    +0.000 A 
ATOM     17  C   UNL     1       2.459   5.225  19.506  0.00  0.00    +0.000 A 
ATOM     18  H   UNL     1       1.031   7.271  21.544  0.00  0.00    +0.000 HD
BRANCH  17  19
ATOM     19  C   UNL     1       2.859   3.904  19.106  0.00  0.00    +0.000 A 
ATOM     20  C   UNL     1       2.335   3.313  17.951  0.00  0.00    +0.000 A 
ATOM     21  C   UNL     1       2.643   1.995  17.627  0.00  0.00    +0.000 A 
ATOM     22  C   UNL     1       3.580   1.305  18.399  0.00  0.00    +0.000 A 
ATOM     23  C   UNL     1       4.131   1.898  19.539  0.00  0.00    +0.000 A 
ATOM     24  C   UNL     1       3.786   3.199  19.890  0.00  0.00    +0.000 A 
ENDBRANCH  17  19
ENDBRANCH   2  13
TORSDOF 3
ENDMDL
MODEL 4
REMARK VINA RESULT:      -7.8      2.509      6.092
REMARK  Name = 
REMARK  3 active torsions:
REMARK  status: ('A' for Active; 'I' for Inactive)
REMARK    1  A    between atoms: C_2  and  C_3
REMARK    2  A    between atoms: C_2  and  C_14
REMARK    3  A    between atoms: C_7  and  C_8
REMARK                            x       y       z     vdW  Elec       q    Type
REMARK                         _______ _______ _______ _____ _____    ______ ____
ROOT
ATOM      1  O   UNL     1       4.186   2.713  17.100  0.00  0.00    +0.000 OA
ATOM      2  C   UNL     1       4.412   3.891  16.840  0.00  0.00    +0.000 C 
ENDROOT
BRANCH   2   3
ATOM      3  C   UNL     1       3.675   4.928  17.631  0.00  0.00    +0.000 A 
ATOM      4  C   UNL     1       3.860   6.285  17.228  0.00  0.00    +0.000 A 
ATOM      5  C   UNL     1       3.260   7.313  17.949  0.00  0.00    +0.000 A 
ATOM      6  C   UNL     1       2.452   6.983  19.033  0.00  0.00    +0.000 A 
ATOM      7  C   UNL     1       2.278   5.632  19.428  0.00  0.00    +0.000 A 
ATOM      8  C   UNL     1       1.655   5.325  20.623  0.00  0.00    +0.000 A 
ATOM      9  C   UNL     1       1.661   4.020  21.152  0.00  0.00    +0.000 A 
ATOM     10  C   UNL     1       1.247   3.020  20.323  0.00  0.00    +0.000 A 
ATOM     11  C   UNL     1       2.132   3.248  19.235  0.00  0.00    +0.000 A 
ATOM     12  C   UNL     1       2.735   4.547  18.705  0.00  0.00    +0.000 A 
ENDBRANCH   2   3
BRANCH   2  13
ATOM     13  C   UNL     1       5.360   4.271  15.762  0.00  0.00    +0.000 A 
ATOM     14  C   UNL     1       5.327   3.777  14.458  0.00  0.00    +0.000 A 
ATOM     15  N   UNL     1       6.421   4.230  13.751  0.00  0.00    +0.000 N 
ATOM     16  C   UNL     1       7.186   4.997  14.589  0.00  0.00    +0.000 A 
ATOM     17  C   UNL     1       6.529   5.091  15.806  0.00  0.00    +0.000 A 
ATOM     18  H   UNL     1       6.656   3.956  12.794  0.00  0.00    +0.000 HD
BRANCH  17  19
ATOM     19  C   UNL     1       7.109   5.768  16.933  0.00  0.00    +0.000 A 
ATOM     20  C   UNL     1       7.310   7.152  16.915  0.00  0.00    +0.000 A 
ATOM     21  C   UNL     1       7.970   7.787  17.964  0.00  0.00    +0.000 A 
ATOM     22  C   UNL     1       8.321   7.046  19.094  0.00  0.00    +0.000 A 
ATOM     23  C   UNL     1       8.098   5.667  19.133  0.00  0.00    +0.000 A 
ATOM     24  C   UNL     1       7.482   5.024  18.065  0.00  0.00    +0.000 A 
ENDBRANCH  17  19
ENDBRANCH   2  13
TORSDOF 3
ENDMDL
MODEL 5
REMARK VINA RESULT:      -7.7      2.016      3.589
REMARK  Name = 
REMARK  3 active torsions:
REMARK  status: ('A' for Active; 'I' for Inactive)
REMARK    1  A    between atoms: C_2  and  C_3
REMARK    2  A    between atoms: C_2  and  C_14
REMARK    3  A    between atoms: C_7  and  C_8
REMARK                            x       y       z     vdW  Elec       q    Type
REMARK                         _______ _______ _______ _____ _____    ______ ____
ROOT
ATOM      1  O   UNL     1       5.432   2.899  20.258  0.00  0.00    +0.000 OA
ATOM      2  C   UNL     1       4.953   3.453  19.274  0.00  0.00    +0.000 C 
ENDROOT
BRANCH   2   3
ATOM      3  C   UNL     1       5.805   4.457  18.559  0.00  0.00    +0.000 A 
ATOM      4  C   UNL     1       6.549   5.357  19.380  0.00  0.00    +0.000 A 
ATOM      5  C   UNL     1       7.317   6.358  18.794  0.00  0.00    +0.000 A 
ATOM      6  C   UNL     1       7.373   6.429  17.405  0.00  0.00    +0.000 A 
ATOM      7  C   UNL     1       6.628   5.532  16.599  0.00  0.00    +0.000 A 
ATOM      8  C   UNL     1       6.516   5.739  15.237  0.00  0.00    +0.000 A 
ATOM      9  C   UNL     1       5.612   5.006  14.443  0.00  0.00    +0.000 A 
ATOM     10  C   UNL     1       5.667   3.648  14.546  0.00  0.00    +0.000 A 
ATOM     11  C   UNL     1       5.499   3.520  15.951  0.00  0.00    +0.000 A 
ATOM     12  C   UNL     1       5.937   4.440  17.089  0.00  0.00    +0.000 A 
ENDBRANCH   2   3
BRANCH   2  13
ATOM     13  C   UNL     1       3.567   3.159  18.826  0.00  0.00    +0.000 A 
ATOM     14  C   UNL     1       3.126   1.924  18.348  0.00  0.00    +0.000 A 
ATOM     15  N   UNL     1       1.827   2.026  17.898  0.00  0.00    +0.000 N 
ATOM     16  C   UNL     1       1.420   3.325  18.053  0.00  0.00    +0.000 A 
ATOM     17  C   UNL     1       2.440   4.025  18.676  0.00  0.00    +0.000 A 
ATOM     18  H   UNL     1       1.303   1.274  17.443  0.00  0.00    +0.000 HD
BRANCH  17  19
ATOM     19  C   UNL     1       2.358   5.439  18.914  0.00  0.00    +0.000 A 
ATOM     20  C   UNL     1       1.971   5.937  20.164  0.00  0.00    +0.000 A 
ATOM     21  C   UNL     1       1.789   7.303  20.357  0.00  0.00    +0.000 A 
ATOM     22  C   UNL     1       2.114   8.186  19.326  0.00  0.00    +0.000 A 
ATOM     23  C   UNL     1       2.528   7.700  18.082  0.00  0.00    +0.000 A 
ATOM     24  C   UNL     1       2.665   6.331  17.874  0.00  0.00    +0.000 A 
ENDBRANCH  17  19
ENDBRANCH   2  13
TORSDOF 3
ENDMDL
MODEL 6
REMARK VINA RESULT:      -7.7      1.749      5.381
REMARK  Name = 
REMARK  3 active torsions:
REMARK  status: ('A' for Active; 'I' for Inactive)
REMARK    1  A    between atoms: C_2  and  C_3
REMARK    2  A    between atoms: C_2  and  C_14
REMARK    3  A    between atoms: C_7  and  C_8
REMARK                            x       y       z     vdW  Elec       q    Type
REMARK                         _______ _______ _______ _____ _____    ______ ____
ROOT
ATOM      1  O   UNL     1       4.314   6.982  16.978  0.00  0.00    +0.000 OA
ATOM      2  C   UNL     1       4.473   6.156  17.872  0.00  0.00    +0.000 C 
ENDROOT
BRANCH   2   3
ATOM      3  C   UNL     1       3.294   5.842  18.741  0.00  0.00    +0.000 A 
ATOM      4  C   UNL     1       2.783   6.915  19.532  0.00  0.00    +0.000 A 
ATOM      5  C   UNL     1       1.729   6.690  20.411  0.00  0.00    +0.000 A 
ATOM      6  C   UNL     1       1.167   5.418  20.468  0.00  0.00    +0.000 A 
ATOM      7  C   UNL     1       1.684   4.358  19.681  0.00  0.00    +0.000 A 
ATOM      8  C   UNL     1       1.269   3.057  19.895  0.00  0.00    +0.000 A 
ATOM      9  C   UNL     1       1.915   1.960  19.294  0.00  0.00    +0.000 A 
ATOM     10  C   UNL     1       2.082   2.012  17.942  0.00  0.00    +0.000 A 
ATOM     11  C   UNL     1       2.761   3.256  17.845  0.00  0.00    +0.000 A 
ATOM     12  C   UNL     1       2.644   4.517  18.699  0.00  0.00    +0.000 A 
ENDBRANCH   2   3
BRANCH   2  13
ATOM     13  C   UNL     1       5.794   5.515  18.099  0.00  0.00    +0.000 A 
ATOM     14  C   UNL     1       6.500   5.544  19.301  0.00  0.00    +0.000 A 
ATOM     15  N   UNL     1       7.742   4.968  19.136  0.00  0.00    +0.000 N 
ATOM     16  C   UNL     1       7.866   4.585  17.826  0.00  0.00    +0.000 A 
ATOM     17  C   UNL     1       6.667   4.849  17.185  0.00  0.00    +0.000 A 
ATOM     18  H   UNL     1       8.470   4.926  19.853  0.00  0.00    +0.000 HD
BRANCH  17  19
ATOM     19  C   UNL     1       6.494   4.632  15.775  0.00  0.00    +0.000 A 
ATOM     20  C   UNL     1       5.372   3.956  15.284  0.00  0.00    +0.000 A 
ATOM     21  C   UNL     1       5.263   3.654  13.929  0.00  0.00    +0.000 A 
ATOM     22  C   UNL     1       6.226   4.141  13.044  0.00  0.00    +0.000 A 
ATOM     23  C   UNL     1       7.336   4.843  13.522  0.00  0.00    +0.000 A 
ATOM     24  C   UNL     1       7.470   5.103  14.882  0.00  0.00    +0.000 A 
ENDBRANCH  17  19
ENDBRANCH   2  13
TORSDOF 3
ENDMDL
MODEL 7
REMARK VINA RESULT:      -7.7      2.536      6.464
REMARK  Name = 
REMARK  3 active torsions:
REMARK  status: ('A' for Active; 'I' for Inactive)
REMARK    1  A    between atoms: C_2  and  C_3
REMARK    2  A    between atoms: C_2  and  C_14
REMARK    3  A    between atoms: C_7  and  C_8
REMARK                            x       y       z     vdW  Elec       q    Type
REMARK                         _______ _______ _______ _____ _____    ______ ____
ROOT
ATOM      1  O   UNL     1       2.482   5.905  20.774  0.00  0.00    +0.000 OA
ATOM      2  C   UNL     1       2.432   6.239  19.594  0.00  0.00    +0.000 C 
ENDROOT
BRANCH   2   3
ATOM      3  C   UNL     1       2.012   7.644  19.288  0.00  0.00    +0.000 A 
ATOM      4  C   UNL     1       2.395   8.158  18.013  0.00  0.00    +0.000 A 
ATOM      5  C   UNL     1       2.098   9.475  17.677  0.00  0.00    +0.000 A 
ATOM      6  C   UNL     1       1.389  10.252  18.589  0.00  0.00    +0.000 A 
ATOM      7  C   UNL     1       1.016   9.732  19.854  0.00  0.00    +0.000 A 
ATOM      8  C   UNL     1       0.507  10.565  20.833  0.00  0.00    +0.000 A 
ATOM      9  C   UNL     1       0.334  10.135  22.163  0.00  0.00    +0.000 A 
ATOM     10  C   UNL     1      -0.363   8.978  22.347  0.00  0.00    +0.000 A 
ATOM     11  C   UNL     1       0.400   8.117  21.514  0.00  0.00    +0.000 A 
ATOM     12  C   UNL     1       1.164   8.409  20.224  0.00  0.00    +0.000 A 
ENDBRANCH   2   3
BRANCH   2  13
ATOM     13  C   UNL     1       2.749   5.274  18.509  0.00  0.00    +0.000 A 
ATOM     14  C   UNL     1       1.862   4.327  17.997  0.00  0.00    +0.000 A 
ATOM     15  N   UNL     1       2.510   3.508  17.097  0.00  0.00    +0.000 N 
ATOM     16  C   UNL     1       3.823   3.893  17.035  0.00  0.00    +0.000 A 
ATOM     17  C   UNL     1       3.983   5.009  17.840  0.00  0.00    +0.000 A 
ATOM     18  H   UNL     1       2.092   2.697  16.633  0.00  0.00    +0.000 HD
BRANCH  17  19
ATOM     19  C   UNL     1       5.269   5.615  18.054  0.00  0.00    +0.000 A 
ATOM     20  C   UNL     1       5.736   6.627  17.209  0.00  0.00    +0.000 A 
ATOM     21  C   UNL     1       7.024   7.134  17.356  0.00  0.00    +0.000 A 
ATOM     22  C   UNL     1       7.804   6.710  18.433  0.00  0.00    +0.000 A 
ATOM     23  C   UNL     1       7.334   5.720  19.300  0.00  0.00    +0.000 A 
ATOM     24  C   UNL     1       6.065   5.178  19.125  0.00  0.00    +0.000 A 
ENDBRANCH  17  19
ENDBRANCH   2  13
TORSDOF 3
ENDMDL
MODEL 8
REMARK VINA RESULT:      -7.6      2.024      3.665
REMARK  Name = 
REMARK  3 active torsions:
REMARK  status: ('A' for Active; 'I' for Inactive)
REMARK    1  A    between atoms: C_2  and  C_3
REMARK    2  A    between atoms: C_2  and  C_14
REMARK    3  A    between atoms: C_7  and  C_8
REMARK                            x       y       z     vdW  Elec       q    Type
REMARK                         _______ _______ _______ _____ _____    ______ ____
ROOT
ATOM      1  O   UNL     1       5.404   2.917  20.309  0.00  0.00    +0.000 OA
ATOM      2  C   UNL     1       4.948   3.442  19.298  0.00  0.00    +0.000 C 
ENDROOT
BRANCH   2   3
ATOM      3  C   UNL     1       5.807   4.447  18.592  0.00  0.00    +0.000 A 
ATOM      4  C   UNL     1       6.557   5.335  19.421  0.00  0.00    +0.000 A 
ATOM      5  C   UNL     1       7.332   6.336  18.843  0.00  0.00    +0.000 A 
ATOM      6  C   UNL     1       7.387   6.420  17.455  0.00  0.00    +0.000 A 
ATOM      7  C   UNL     1       6.635   5.535  16.641  0.00  0.00    +0.000 A 
ATOM      8  C   UNL     1       6.523   5.755  15.281  0.00  0.00    +0.000 A 
ATOM      9  C   UNL     1       5.614   5.036  14.482  0.00  0.00    +0.000 A 
ATOM     10  C   UNL     1       5.661   3.677  14.572  0.00  0.00    +0.000 A 
ATOM     11  C   UNL     1       5.492   3.536  15.975  0.00  0.00    +0.000 A 
ATOM     12  C   UNL     1       5.937   4.443  17.121  0.00  0.00    +0.000 A 
ENDBRANCH   2   3
BRANCH   2  13
ATOM     13  C   UNL     1       3.584   3.113  18.810  0.00  0.00    +0.000 A 
ATOM     14  C   UNL     1       3.193   1.871  18.310  0.00  0.00    +0.000 A 
ATOM     15  N   UNL     1       1.904   1.940  17.824  0.00  0.00    +0.000 N 
ATOM     16  C   UNL     1       1.456   3.225  17.978  0.00  0.00    +0.000 A 
ATOM     17  C   UNL     1       2.438   3.948  18.635  0.00  0.00    +0.000 A 
ATOM     18  H   UNL     1       1.414   1.178  17.349  0.00  0.00    +0.000 HD
BRANCH  17  19
ATOM     19  C   UNL     1       2.309   5.358  18.882  0.00  0.00    +0.000 A 
ATOM     20  C   UNL     1       2.608   6.292  17.884  0.00  0.00    +0.000 A 
ATOM     21  C   UNL     1       2.585   7.656  18.161  0.00  0.00    +0.000 A 
ATOM     22  C   UNL     1       2.142   8.090  19.412  0.00  0.00    +0.000 A 
ATOM     23  C   UNL     1       1.814   7.164  20.406  0.00  0.00    +0.000 A 
ATOM     24  C   UNL     1       1.883   5.799  20.145  0.00  0.00    +0.000 A 
ENDBRANCH  17  19
ENDBRANCH   2  13
TORSDOF 3
ENDMDL
MODEL 9
REMARK VINA RESULT:      -7.6      1.754      5.340
REMARK  Name = 
REMARK  3 active torsions:
REMARK  status: ('A' for Active; 'I' for Inactive)
REMARK    1  A    between atoms: C_2  and  C_3
REMARK    2  A    between atoms: C_2  and  C_14
REMARK    3  A    between atoms: C_7  and  C_8
REMARK                            x       y       z     vdW  Elec       q    Type
REMARK                         _______ _______ _______ _____ _____    ______ ____
ROOT
ATOM      1  O   UNL     1       4.334   6.927  16.955  0.00  0.00    +0.000 OA
ATOM      2  C   UNL     1       4.490   6.132  17.876  0.00  0.00    +0.000 C 
ENDROOT
BRANCH   2   3
ATOM      3  C   UNL     1       3.307   5.839  18.747  0.00  0.00    +0.000 A 
ATOM      4  C   UNL     1       2.808   6.926  19.526  0.00  0.00    +0.000 A 
ATOM      5  C   UNL     1       1.750   6.721  20.407  0.00  0.00    +0.000 A 
ATOM      6  C   UNL     1       1.175   5.456  20.475  0.00  0.00    +0.000 A 
ATOM      7  C   UNL     1       1.680   4.382  19.699  0.00  0.00    +0.000 A 
ATOM      8  C   UNL     1       1.250   3.088  19.926  0.00  0.00    +0.000 A 
ATOM      9  C   UNL     1       1.884   1.978  19.337  0.00  0.00    +0.000 A 
ATOM     10  C   UNL     1       2.053   2.015  17.984  0.00  0.00    +0.000 A 
ATOM     11  C   UNL     1       2.747   3.250  17.876  0.00  0.00    +0.000 A 
ATOM     12  C   UNL     1       2.643   4.521  18.717  0.00  0.00    +0.000 A 
ENDBRANCH   2   3
BRANCH   2  13
ATOM     13  C   UNL     1       5.813   5.505  18.132  0.00  0.00    +0.000 A 
ATOM     14  C   UNL     1       6.507   5.569  19.340  0.00  0.00    +0.000 A 
ATOM     15  N   UNL     1       7.754   4.997  19.202  0.00  0.00    +0.000 N 
ATOM     16  C   UNL     1       7.894   4.582  17.904  0.00  0.00    +0.000 A 
ATOM     17  C   UNL     1       6.699   4.822  17.244  0.00  0.00    +0.000 A 
ATOM     18  H   UNL     1       8.475   4.977  19.927  0.00  0.00    +0.000 HD
BRANCH  17  19
ATOM     19  C   UNL     1       6.542   4.569  15.838  0.00  0.00    +0.000 A 
ATOM     20  C   UNL     1       7.494   5.019  14.916  0.00  0.00    +0.000 A 
ATOM     21  C   UNL     1       7.283   4.866  13.548  0.00  0.00    +0.000 A 
ATOM     22  C   UNL     1       6.170   4.148  13.107  0.00  0.00    +0.000 A 
ATOM     23  C   UNL     1       5.228   3.670  14.023  0.00  0.00    +0.000 A 
ATOM     24  C   UNL     1       5.414   3.864  15.387  0.00  0.00    +0.000 A 
ENDBRANCH  17  19
ENDBRANCH   2  13
TORSDOF 3
ENDMDL
