MODEL 1
REMARK VINA RESULT:      -9.2      0.000      0.000
REMARK  Name = 
REMARK  3 active torsions:
REMARK  status: ('A' for Active; 'I' for Inactive)
REMARK    1  A    between atoms: C_1  and  C_2
REMARK    2  A    between atoms: C_2  and  C_3
REMARK    3  A    between atoms: C_7  and  N_8
REMARK                            x       y       z     vdW  Elec       q    Type
REMARK                         _______ _______ _______ _____ _____    ______ ____
ROOT
ATOM      1  C   UNL     1       1.553   2.420  21.651  0.00  0.00    +0.000 C 
ATOM      2  C   UNL     1       2.019   3.212  20.421  0.00  0.00    +0.000 C 
ATOM      3  C   UNL     1       1.183   2.772  19.207  0.00  0.00    +0.000 C 
ATOM      4  C   UNL     1       1.938   4.740  20.660  0.00  0.00    +0.000 C 
ATOM      5  C   UNL     1       2.607   5.658  19.640  0.00  0.00    +0.000 A 
ATOM      6  C   UNL     1       3.648   5.190  18.784  0.00  0.00    +0.000 A 
ATOM      7  C   UNL     1       4.221   6.067  17.830  0.00  0.00    +0.000 A 
ATOM      8  N   UNL     1       3.853   7.337  17.685  0.00  0.00    +0.000 NA
ATOM      9  C   UNL     1       2.911   7.772  18.535  0.00  0.00    +0.000 A 
ATOM     10  S   UNL     1       2.430   9.388  18.438  0.00  0.00    +0.000 S 
ATOM     11  C   UNL     1       1.283   9.207  19.696  0.00  0.00    +0.000 A 
ATOM     12  C   UNL     1       0.407  10.144  20.256  0.00  0.00    +0.000 A 
ATOM     13  N   UNL     1       0.282  11.448  19.795  0.00  0.00    +0.000 N 
ATOM     14  C   UNL     1      -0.090  12.533  20.710  0.00  0.00    +0.000 C 
ATOM     15  C   UNL     1      -1.461  13.133  20.360  0.00  0.00    +0.000 C 
ATOM     16  O   UNL     1      -1.547  13.490  18.970  0.00  0.00    +0.000 OA
ATOM     17  C   UNL     1      -1.362  12.325  18.156  0.00  0.00    +0.000 C 
ATOM     18  C   UNL     1       0.028  11.706  18.370  0.00  0.00    +0.000 C 
ATOM     19  N   UNL     1      -0.283   9.712  21.341  0.00  0.00    +0.000 NA
ATOM     20  N   UNL     1      -0.194   8.470  21.790  0.00  0.00    +0.000 NA
ATOM     21  N   UNL     1       0.541   7.590  21.268  0.00  0.00    +0.000 NA
ATOM     22  C   UNL     1       1.323   7.917  20.217  0.00  0.00    +0.000 A 
ATOM     23  C   UNL     1       2.254   7.043  19.520  0.00  0.00    +0.000 A 
ATOM     24  C   UNL     1       4.062   3.733  18.725  0.00  0.00    +0.000 C 
ATOM     25  S   UNL     1       3.764   2.762  20.198  0.00  0.00    +0.000 S 
ENDROOT
BRANCH   7  26
ATOM     26  N   UNL     1       5.162   5.562  16.941  0.00  0.00    +0.000 N 
ATOM     27  C   UNL     1       5.041   5.893  15.512  0.00  0.00    +0.000 C 
ATOM     28  C   UNL     1       5.816   4.799  14.743  0.00  0.00    +0.000 C 
ATOM     29  O   UNL     1       7.187   4.677  15.184  0.00  0.00    +0.000 OA
ATOM     30  C   UNL     1       7.266   4.471  16.609  0.00  0.00    +0.000 C 
ATOM     31  C   UNL     1       6.573   5.626  17.352  0.00  0.00    +0.000 C 
ENDBRANCH   7  26
TORSDOF 1
ENDMDL
MODEL 2
REMARK VINA RESULT:      -6.7      4.465     10.996
REMARK  Name = 
REMARK  3 active torsions:
REMARK  status: ('A' for Active; 'I' for Inactive)
REMARK    1  A    between atoms: C_1  and  C_2
REMARK    2  A    between atoms: C_2  and  C_3
REMARK    3  A    between atoms: C_7  and  N_8
REMARK                            x       y       z     vdW  Elec       q    Type
REMARK                         _______ _______ _______ _____ _____    ______ ____
ROOT
ATOM      1  C   UNL     1      -7.701  13.015  18.630  0.00  0.00    +0.000 C 
ATOM      2  C   UNL     1      -6.647  13.209  19.730  0.00  0.00    +0.000 C 
ATOM      3  C   UNL     1      -7.073  12.400  20.967  0.00  0.00    +0.000 C 
ATOM      4  C   UNL     1      -5.230  12.821  19.240  0.00  0.00    +0.000 C 
ATOM      5  C   UNL     1      -4.042  13.201  20.120  0.00  0.00    +0.000 A 
ATOM      6  C   UNL     1      -4.131  14.252  21.081  0.00  0.00    +0.000 A 
ATOM      7  C   UNL     1      -3.013  14.553  21.899  0.00  0.00    +0.000 A 
ATOM      8  N   UNL     1      -1.851  13.912  21.819  0.00  0.00    +0.000 NA
ATOM      9  C   UNL     1      -1.772  12.963  20.874  0.00  0.00    +0.000 A 
ATOM     10  S   UNL     1      -0.307  12.141  20.686  0.00  0.00    +0.000 S 
ATOM     11  C   UNL     1      -0.929  11.155  19.432  0.00  0.00    +0.000 A 
ATOM     12  C   UNL     1      -0.307  10.142  18.693  0.00  0.00    +0.000 A 
ATOM     13  N   UNL     1       0.990   9.707  18.929  0.00  0.00    +0.000 N 
ATOM     14  C   UNL     1       1.813   9.179  17.834  0.00  0.00    +0.000 C 
ATOM     15  C   UNL     1       2.139   7.690  18.029  0.00  0.00    +0.000 C 
ATOM     16  O   UNL     1       2.674   7.428  19.337  0.00  0.00    +0.000 OA
ATOM     17  C   UNL     1       1.718   7.798  20.337  0.00  0.00    +0.000 C 
ATOM     18  C   UNL     1       1.399   9.300  20.281  0.00  0.00    +0.000 C 
ATOM     19  N   UNL     1      -1.042   9.642  17.668  0.00  0.00    +0.000 NA
ATOM     20  N   UNL     1      -2.286  10.028  17.433  0.00  0.00    +0.000 NA
ATOM     21  N   UNL     1      -2.890  10.894  18.120  0.00  0.00    +0.000 NA
ATOM     22  C   UNL     1      -2.241  11.508  19.132  0.00  0.00    +0.000 A 
ATOM     23  C   UNL     1      -2.769  12.552  19.998  0.00  0.00    +0.000 A 
ATOM     24  C   UNL     1      -5.432  14.964  21.394  0.00  0.00    +0.000 C 
ATOM     25  S   UNL     1      -6.657  14.989  20.090  0.00  0.00    +0.000 S 
ENDROOT
BRANCH   7  26
ATOM     26  N   UNL     1      -3.155  15.513  22.894  0.00  0.00    +0.000 N 
ATOM     27  C   UNL     1      -2.973  15.113  24.299  0.00  0.00    +0.000 C 
ATOM     28  C   UNL     1      -3.714  16.168  25.152  0.00  0.00    +0.000 C 
ATOM     29  O   UNL     1      -3.265  17.515  24.881  0.00  0.00    +0.000 OA
ATOM     30  C   UNL     1      -3.349  17.826  23.475  0.00  0.00    +0.000 C 
ATOM     31  C   UNL     1      -2.521  16.820  22.659  0.00  0.00    +0.000 C 
ENDBRANCH   7  26
TORSDOF 1
ENDMDL
MODEL 3
REMARK VINA RESULT:      -6.6      8.334     10.427
REMARK  Name = 
REMARK  3 active torsions:
REMARK  status: ('A' for Active; 'I' for Inactive)
REMARK    1  A    between atoms: C_1  and  C_2
REMARK    2  A    between atoms: C_2  and  C_3
REMARK    3  A    between atoms: C_7  and  N_8
REMARK                            x       y       z     vdW  Elec       q    Type
REMARK                         _______ _______ _______ _____ _____    ______ ____
ROOT
ATOM      1  C   UNL     1      10.028  18.558  23.307  0.00  0.00    +0.000 C 
ATOM      2  C   UNL     1       9.725  17.275  22.520  0.00  0.00    +0.000 C 
ATOM      3  C   UNL     1       9.501  16.126  23.518  0.00  0.00    +0.000 C 
ATOM      4  C   UNL     1       8.519  17.461  21.565  0.00  0.00    +0.000 C 
ATOM      5  C   UNL     1       8.255  16.372  20.529  0.00  0.00    +0.000 A 
ATOM      6  C   UNL     1       9.284  15.478  20.107  0.00  0.00    +0.000 A 
ATOM      7  C   UNL     1       8.989  14.461  19.164  0.00  0.00    +0.000 A 
ATOM      8  N   UNL     1       7.787  14.290  18.622  0.00  0.00    +0.000 NA
ATOM      9  C   UNL     1       6.848  15.173  18.991  0.00  0.00    +0.000 A 
ATOM     10  S   UNL     1       5.311  15.042  18.303  0.00  0.00    +0.000 S 
ATOM     11  C   UNL     1       4.706  16.367  19.203  0.00  0.00    +0.000 A 
ATOM     12  C   UNL     1       3.429  16.939  19.214  0.00  0.00    +0.000 A 
ATOM     13  N   UNL     1       2.358  16.437  18.487  0.00  0.00    +0.000 N 
ATOM     14  C   UNL     1       1.301  17.330  17.997  0.00  0.00    +0.000 C 
ATOM     15  C   UNL     1      -0.053  17.033  18.661  0.00  0.00    +0.000 C 
ATOM     16  O   UNL     1      -0.390  15.638  18.585  0.00  0.00    +0.000 OA
ATOM     17  C   UNL     1       0.606  14.859  19.260  0.00  0.00    +0.000 C 
ATOM     18  C   UNL     1       1.986  15.020  18.603  0.00  0.00    +0.000 C 
ATOM     19  N   UNL     1       3.312  18.076  19.945  0.00  0.00    +0.000 NA
ATOM     20  N   UNL     1       4.313  18.565  20.660  0.00  0.00    +0.000 NA
ATOM     21  N   UNL     1       5.455  18.037  20.716  0.00  0.00    +0.000 NA
ATOM     22  C   UNL     1       5.711  16.933  19.982  0.00  0.00    +0.000 A 
ATOM     23  C   UNL     1       6.976  16.219  19.897  0.00  0.00    +0.000 A 
ATOM     24  C   UNL     1      10.656  15.450  20.751  0.00  0.00    +0.000 C 
ATOM     25  S   UNL     1      11.206  16.973  21.513  0.00  0.00    +0.000 S 
ENDROOT
BRANCH   7  26
ATOM     26  N   UNL     1       9.980  13.542  18.844  0.00  0.00    +0.000 N 
ATOM     27  C   UNL     1       9.810  12.139  19.257  0.00  0.00    +0.000 C 
ATOM     28  C   UNL     1      11.224  11.517  19.284  0.00  0.00    +0.000 C 
ATOM     29  O   UNL     1      11.917  11.658  18.022  0.00  0.00    +0.000 OA
ATOM     30  C   UNL     1      11.958  13.035  17.596  0.00  0.00    +0.000 C 
ATOM     31  C   UNL     1      10.532  13.599  17.481  0.00  0.00    +0.000 C 
ENDBRANCH   7  26
TORSDOF 1
ENDMDL
