MODEL 1
REMARK VINA RESULT:      -9.4      0.000      0.000
REMARK  Name = 
REMARK  5 active torsions:
REMARK  status: ('A' for Active; 'I' for Inactive)
REMARK    1  A    between atoms: C_2  and  C_3
REMARK    2  A    between atoms: C_3  and  N_4
REMARK    3  A    between atoms: N_4  and  C_18
REMARK    4  A    between atoms: C_5  and  C_7
REMARK    5  A    between atoms: N_24  and  C_25
REMARK                            x       y       z     vdW  Elec       q    Type
REMARK                         _______ _______ _______ _____ _____    ______ ____
ROOT
ATOM      1  N   UNL     1       2.944   5.170  18.505  0.00  0.00    +0.000 N 
ATOM      2  C   UNL     1       3.318   6.532  18.460  0.00  0.00    +0.000 C 
ATOM      3  O   UNL     1       4.478   6.878  18.219  0.00  0.00    +0.000 OA
ENDROOT
BRANCH   2   4
ATOM      4  C   UNL     1       2.377   7.646  18.693  0.00  0.00    +0.000 A 
ATOM      5  C   UNL     1       1.910   8.485  17.696  0.00  0.00    +0.000 A 
ATOM      6  C   UNL     1       1.037   9.518  18.029  0.00  0.00    +0.000 A 
ATOM      7  C   UNL     1       0.683   9.756  19.360  0.00  0.00    +0.000 A 
ATOM      8  N   UNL     1      -0.160  10.787  19.689  0.00  0.00    +0.000 N 
ATOM      9  C   UNL     1      -0.429  11.143  21.073  0.00  0.00    +0.000 C 
ATOM     10  C   UNL     1      -1.636  12.065  20.927  0.00  0.00    +0.000 C 
ATOM     11  C   UNL     1      -1.333  12.842  19.652  0.00  0.00    +0.000 C 
ATOM     12  C   UNL     1      -0.524  11.874  18.789  0.00  0.00    +0.000 C 
ATOM     13  N   UNL     1       1.161   8.964  20.343  0.00  0.00    +0.000 NA
ATOM     14  C   UNL     1       1.984   7.936  19.997  0.00  0.00    +0.000 A 
ENDBRANCH   2   4
BRANCH   1  15
ATOM     15  C   UNL     1       1.609   4.634  18.948  0.00  0.00    +0.000 C 
ATOM     16  C   UNL     1       1.234   3.179  18.554  0.00  0.00    +0.000 C 
ATOM     17  C   UNL     1       1.901   2.084  19.392  0.00  0.00    +0.000 C 
ATOM     18  C   UNL     1       1.766   2.329  20.890  0.00  0.00    +0.000 C 
ATOM     19  C   UNL     1       2.145   3.752  21.276  0.00  0.00    +0.000 C 
ATOM     20  C   UNL     1       1.352   4.765  20.465  0.00  0.00    +0.000 C 
ENDBRANCH   1  15
BRANCH   1  21
ATOM     21  C   UNL     1       4.032   4.228  18.177  0.00  0.00    +0.000 C 
BRANCH  21  23
ATOM     22  O   UNL     1       3.691   3.498  15.916  0.00  0.00    +0.000 OA
ATOM     23  C   UNL     1       4.422   4.101  16.700  0.00  0.00    +0.000 C 
ATOM     24  N   UNL     1       5.687   4.579  16.380  0.00  0.00    +0.000 N 
ATOM     25  H   UNL     1       6.342   4.628  17.153  0.00  0.00    +0.000 HD
BRANCH  24  26
ATOM     26  C   UNL     1       6.214   4.436  15.073  0.00  0.00    +0.000 A 
ATOM     27  C   UNL     1       7.319   5.178  14.642  0.00  0.00    +0.000 A 
ATOM     28  C   UNL     1       7.742   5.096  13.317  0.00  0.00    +0.000 A 
ATOM     29  F   UNL     1       8.800   5.811  12.917  0.00  0.00    +0.000 F 
ATOM     30  C   UNL     1       7.081   4.286  12.406  0.00  0.00    +0.000 A 
ATOM     31  C   UNL     1       6.008   3.525  12.852  0.00  0.00    +0.000 A 
ATOM     32  F   UNL     1       5.339   2.763  11.977  0.00  0.00    +0.000 F 
ATOM     33  C   UNL     1       5.586   3.565  14.182  0.00  0.00    +0.000 A 
ENDBRANCH  24  26
ENDBRANCH  21  23
ENDBRANCH   1  21
TORSDOF 5
ENDMDL
MODEL 2
REMARK VINA RESULT:      -9.4      0.126      1.455
REMARK  Name = 
REMARK  5 active torsions:
REMARK  status: ('A' for Active; 'I' for Inactive)
REMARK    1  A    between atoms: C_2  and  C_3
REMARK    2  A    between atoms: C_3  and  N_4
REMARK    3  A    between atoms: N_4  and  C_18
REMARK    4  A    between atoms: C_5  and  C_7
REMARK    5  A    between atoms: N_24  and  C_25
REMARK                            x       y       z     vdW  Elec       q    Type
REMARK                         _______ _______ _______ _____ _____    ______ ____
ROOT
ATOM      1  N   UNL     1       2.924   5.201  18.481  0.00  0.00    +0.000 N 
ATOM      2  C   UNL     1       3.286   6.566  18.429  0.00  0.00    +0.000 C 
ATOM      3  O   UNL     1       4.437   6.922  18.161  0.00  0.00    +0.000 OA
ENDROOT
BRANCH   2   4
ATOM      4  C   UNL     1       2.342   7.673  18.686  0.00  0.00    +0.000 A 
ATOM      5  C   UNL     1       1.855   8.517  17.704  0.00  0.00    +0.000 A 
ATOM      6  C   UNL     1       0.980   9.541  18.058  0.00  0.00    +0.000 A 
ATOM      7  C   UNL     1       0.646   9.766  19.397  0.00  0.00    +0.000 A 
ATOM      8  N   UNL     1      -0.199  10.789  19.748  0.00  0.00    +0.000 N 
ATOM      9  C   UNL     1      -0.448  11.132  21.139  0.00  0.00    +0.000 C 
ATOM     10  C   UNL     1      -1.663  12.047  21.019  0.00  0.00    +0.000 C 
ATOM     11  C   UNL     1      -1.384  12.837  19.747  0.00  0.00    +0.000 C 
ATOM     12  C   UNL     1      -0.582  11.881  18.862  0.00  0.00    +0.000 C 
ATOM     13  N   UNL     1       1.143   8.969  20.366  0.00  0.00    +0.000 NA
ATOM     14  C   UNL     1       1.968   7.949  19.998  0.00  0.00    +0.000 A 
ENDBRANCH   2   4
BRANCH   1  15
ATOM     15  C   UNL     1       1.604   4.654  18.955  0.00  0.00    +0.000 C 
ATOM     16  C   UNL     1       1.247   3.186  18.597  0.00  0.00    +0.000 C 
ATOM     17  C   UNL     1       1.943   2.119  19.446  0.00  0.00    +0.000 C 
ATOM     18  C   UNL     1       1.827   2.392  20.941  0.00  0.00    +0.000 C 
ATOM     19  C   UNL     1       2.190   3.828  21.292  0.00  0.00    +0.000 C 
ATOM     20  C   UNL     1       1.368   4.812  20.474  0.00  0.00    +0.000 C 
ENDBRANCH   1  15
BRANCH   1  21
ATOM     21  C   UNL     1       4.012   4.269  18.126  0.00  0.00    +0.000 C 
BRANCH  21  23
ATOM     22  O   UNL     1       3.646   3.413  15.914  0.00  0.00    +0.000 OA
ATOM     23  C   UNL     1       4.344   4.121  16.638  0.00  0.00    +0.000 C 
ATOM     24  N   UNL     1       5.536   4.714  16.236  0.00  0.00    +0.000 N 
ATOM     25  H   UNL     1       6.217   4.862  16.974  0.00  0.00    +0.000 HD
BRANCH  24  26
ATOM     26  C   UNL     1       6.014   4.571  14.911  0.00  0.00    +0.000 A 
ATOM     27  C   UNL     1       5.444   3.654  14.020  0.00  0.00    +0.000 A 
ATOM     28  C   UNL     1       6.010   3.459  12.762  0.00  0.00    +0.000 A 
ATOM     29  F   UNL     1       5.456   2.578  11.920  0.00  0.00    +0.000 F 
ATOM     30  C   UNL     1       7.140   4.161  12.371  0.00  0.00    +0.000 A 
ATOM     31  C   UNL     1       7.675   5.095  13.247  0.00  0.00    +0.000 A 
ATOM     32  F   UNL     1       8.785   5.758  12.897  0.00  0.00    +0.000 F 
ATOM     33  C   UNL     1       7.108   5.333  14.501  0.00  0.00    +0.000 A 
ENDBRANCH  24  26
ENDBRANCH  21  23
ENDBRANCH   1  21
TORSDOF 5
ENDMDL
MODEL 3
REMARK VINA RESULT:      -9.2      0.553      1.837
REMARK  Name = 
REMARK  5 active torsions:
REMARK  status: ('A' for Active; 'I' for Inactive)
REMARK    1  A    between atoms: C_2  and  C_3
REMARK    2  A    between atoms: C_3  and  N_4
REMARK    3  A    between atoms: N_4  and  C_18
REMARK    4  A    between atoms: C_5  and  C_7
REMARK    5  A    between atoms: N_24  and  C_25
REMARK                            x       y       z     vdW  Elec       q    Type
REMARK                         _______ _______ _______ _____ _____    ______ ____
ROOT
ATOM      1  N   UNL     1       2.917   5.129  18.540  0.00  0.00    +0.000 N 
ATOM      2  C   UNL     1       3.334   6.479  18.538  0.00  0.00    +0.000 C 
ATOM      3  O   UNL     1       4.492   6.800  18.255  0.00  0.00    +0.000 OA
ENDROOT
BRANCH   2   4
ATOM      4  C   UNL     1       2.442   7.610  18.866  0.00  0.00    +0.000 A 
ATOM      5  C   UNL     1       1.981   7.886  20.141  0.00  0.00    +0.000 A 
ATOM      6  C   UNL     1       1.128   8.970  20.338  0.00  0.00    +0.000 A 
ATOM      7  C   UNL     1       0.682   9.734  19.256  0.00  0.00    +0.000 A 
ATOM      8  N   UNL     1      -0.176  10.789  19.447  0.00  0.00    +0.000 N 
ATOM      9  C   UNL     1      -0.765  11.508  18.330  0.00  0.00    +0.000 C 
ATOM     10  C   UNL     1      -1.328  12.746  19.020  0.00  0.00    +0.000 C 
ATOM     11  C   UNL     1      -1.844  12.205  20.347  0.00  0.00    +0.000 C 
ATOM     12  C   UNL     1      -0.917  11.034  20.678  0.00  0.00    +0.000 C 
ATOM     13  N   UNL     1       1.099   9.452  18.004  0.00  0.00    +0.000 NA
ATOM     14  C   UNL     1       1.962   8.412  17.834  0.00  0.00    +0.000 A 
ENDBRANCH   2   4
BRANCH   1  15
ATOM     15  C   UNL     1       1.588   4.614  19.024  0.00  0.00    +0.000 C 
ATOM     16  C   UNL     1       1.200   3.150  18.684  0.00  0.00    +0.000 C 
ATOM     17  C   UNL     1       1.876   2.079  19.544  0.00  0.00    +0.000 C 
ATOM     18  C   UNL     1       1.770   2.372  21.036  0.00  0.00    +0.000 C 
ATOM     19  C   UNL     1       2.162   3.805  21.369  0.00  0.00    +0.000 C 
ATOM     20  C   UNL     1       1.359   4.795  20.541  0.00  0.00    +0.000 C 
ENDBRANCH   1  15
BRANCH   1  21
ATOM     21  C   UNL     1       3.958   4.170  18.117  0.00  0.00    +0.000 C 
BRANCH  21  23
ATOM     22  O   UNL     1       3.501   3.552  15.843  0.00  0.00    +0.000 OA
ATOM     23  C   UNL     1       4.278   4.106  16.620  0.00  0.00    +0.000 C 
ATOM     24  N   UNL     1       5.536   4.577  16.264  0.00  0.00    +0.000 N 
ATOM     25  H   UNL     1       6.226   4.578  17.008  0.00  0.00    +0.000 HD
BRANCH  24  26
ATOM     26  C   UNL     1       6.000   4.485  14.929  0.00  0.00    +0.000 A 
ATOM     27  C   UNL     1       5.424   3.600  14.010  0.00  0.00    +0.000 A 
ATOM     28  C   UNL     1       5.976   3.454  12.740  0.00  0.00    +0.000 A 
ATOM     29  F   UNL     1       5.416   2.604  11.871  0.00  0.00    +0.000 F 
ATOM     30  C   UNL     1       7.100   4.174  12.364  0.00  0.00    +0.000 A 
ATOM     31  C   UNL     1       7.642   5.077  13.269  0.00  0.00    +0.000 A 
ATOM     32  F   UNL     1       8.746   5.756  12.932  0.00  0.00    +0.000 F 
ATOM     33  C   UNL     1       7.088   5.266  14.536  0.00  0.00    +0.000 A 
ENDBRANCH  24  26
ENDBRANCH  21  23
ENDBRANCH   1  21
TORSDOF 5
ENDMDL
MODEL 4
REMARK VINA RESULT:      -9.1      0.564      1.134
REMARK  Name = 
REMARK  5 active torsions:
REMARK  status: ('A' for Active; 'I' for Inactive)
REMARK    1  A    between atoms: C_2  and  C_3
REMARK    2  A    between atoms: C_3  and  N_4
REMARK    3  A    between atoms: N_4  and  C_18
REMARK    4  A    between atoms: C_5  and  C_7
REMARK    5  A    between atoms: N_24  and  C_25
REMARK                            x       y       z     vdW  Elec       q    Type
REMARK                         _______ _______ _______ _____ _____    ______ ____
ROOT
ATOM      1  N   UNL     1       2.907   5.131  18.619  0.00  0.00    +0.000 N 
ATOM      2  C   UNL     1       3.325   6.481  18.586  0.00  0.00    +0.000 C 
ATOM      3  O   UNL     1       4.483   6.793  18.298  0.00  0.00    +0.000 OA
ENDROOT
BRANCH   2   4
ATOM      4  C   UNL     1       2.434   7.620  18.887  0.00  0.00    +0.000 A 
ATOM      5  C   UNL     1       1.964   7.920  20.153  0.00  0.00    +0.000 A 
ATOM      6  C   UNL     1       1.113   9.010  20.323  0.00  0.00    +0.000 A 
ATOM      7  C   UNL     1       0.678   9.756  19.224  0.00  0.00    +0.000 A 
ATOM      8  N   UNL     1      -0.178  10.816  19.389  0.00  0.00    +0.000 N 
ATOM      9  C   UNL     1      -0.757  11.516  18.254  0.00  0.00    +0.000 C 
ATOM     10  C   UNL     1      -1.322  12.769  18.917  0.00  0.00    +0.000 C 
ATOM     11  C   UNL     1      -1.849  12.254  20.250  0.00  0.00    +0.000 C 
ATOM     12  C   UNL     1      -0.928  11.087  20.609  0.00  0.00    +0.000 C 
ATOM     13  N   UNL     1       1.104   9.449  17.981  0.00  0.00    +0.000 NA
ATOM     14  C   UNL     1       1.965   8.404  17.836  0.00  0.00    +0.000 A 
ENDBRANCH   2   4
BRANCH   1  15
ATOM     15  C   UNL     1       1.576   4.629  19.113  0.00  0.00    +0.000 C 
ATOM     16  C   UNL     1       1.155   3.181  18.746  0.00  0.00    +0.000 C 
ATOM     17  C   UNL     1       1.825   2.078  19.569  0.00  0.00    +0.000 C 
ATOM     18  C   UNL     1       1.749   2.338  21.069  0.00  0.00    +0.000 C 
ATOM     19  C   UNL     1       2.173   3.754  21.429  0.00  0.00    +0.000 C 
ATOM     20  C   UNL     1       1.375   4.778  20.637  0.00  0.00    +0.000 C 
ENDBRANCH   1  15
BRANCH   1  21
ATOM     21  C   UNL     1       3.946   4.161  18.220  0.00  0.00    +0.000 C 
BRANCH  21  23
ATOM     22  O   UNL     1       3.524   3.656  15.912  0.00  0.00    +0.000 OA
ATOM     23  C   UNL     1       4.317   4.111  16.734  0.00  0.00    +0.000 C 
ATOM     24  N   UNL     1       5.627   4.471  16.440  0.00  0.00    +0.000 N 
ATOM     25  H   UNL     1       6.284   4.385  17.208  0.00  0.00    +0.000 HD
BRANCH  24  26
ATOM     26  C   UNL     1       6.133   4.375  15.121  0.00  0.00    +0.000 A 
ATOM     27  C   UNL     1       7.253   5.108  14.709  0.00  0.00    +0.000 A 
ATOM     28  C   UNL     1       7.657   5.076  13.376  0.00  0.00    +0.000 A 
ATOM     29  F   UNL     1       8.729   5.781  12.996  0.00  0.00    +0.000 F 
ATOM     30  C   UNL     1       6.962   4.329  12.438  0.00  0.00    +0.000 A 
ATOM     31  C   UNL     1       5.874   3.577  12.863  0.00  0.00    +0.000 A 
ATOM     32  F   UNL     1       5.174   2.875  11.962  0.00  0.00    +0.000 F 
ATOM     33  C   UNL     1       5.470   3.565  14.199  0.00  0.00    +0.000 A 
ENDBRANCH  24  26
ENDBRANCH  21  23
ENDBRANCH   1  21
TORSDOF 5
ENDMDL
MODEL 5
REMARK VINA RESULT:      -9.0      1.069      1.820
REMARK  Name = 
REMARK  5 active torsions:
REMARK  status: ('A' for Active; 'I' for Inactive)
REMARK    1  A    between atoms: C_2  and  C_3
REMARK    2  A    between atoms: C_3  and  N_4
REMARK    3  A    between atoms: N_4  and  C_18
REMARK    4  A    between atoms: C_5  and  C_7
REMARK    5  A    between atoms: N_24  and  C_25
REMARK                            x       y       z     vdW  Elec       q    Type
REMARK                         _______ _______ _______ _____ _____    ______ ____
ROOT
ATOM      1  N   UNL     1       3.770   4.849  18.200  0.00  0.00    +0.000 N 
ATOM      2  C   UNL     1       4.050   6.166  18.630  0.00  0.00    +0.000 C 
ATOM      3  O   UNL     1       5.181   6.505  18.987  0.00  0.00    +0.000 OA
ENDROOT
BRANCH   2   4
ATOM      4  C   UNL     1       3.035   7.238  18.692  0.00  0.00    +0.000 A 
ATOM      5  C   UNL     1       2.763   8.104  17.648  0.00  0.00    +0.000 A 
ATOM      6  C   UNL     1       1.797   9.094  17.819  0.00  0.00    +0.000 A 
ATOM      7  C   UNL     1       1.153   9.261  19.048  0.00  0.00    +0.000 A 
ATOM      8  N   UNL     1       0.217  10.249  19.222  0.00  0.00    +0.000 N 
ATOM      9  C   UNL     1      -0.360  10.535  20.525  0.00  0.00    +0.000 C 
ATOM     10  C   UNL     1      -1.543  11.424  20.153  0.00  0.00    +0.000 C 
ATOM     11  C   UNL     1      -1.002  12.265  19.004  0.00  0.00    +0.000 C 
ATOM     12  C   UNL     1       0.014  11.363  18.304  0.00  0.00    +0.000 C 
ATOM     13  N   UNL     1       1.438   8.442  20.082  0.00  0.00    +0.000 NA
ATOM     14  C   UNL     1       2.358   7.457  19.888  0.00  0.00    +0.000 A 
ENDBRANCH   2   4
BRANCH   1  15
ATOM     15  C   UNL     1       2.405   4.287  17.903  0.00  0.00    +0.000 C 
ATOM     16  C   UNL     1       2.302   2.799  17.471  0.00  0.00    +0.000 C 
ATOM     17  C   UNL     1       2.425   1.779  18.607  0.00  0.00    +0.000 C 
ATOM     18  C   UNL     1       1.514   2.102  19.785  0.00  0.00    +0.000 C 
ATOM     19  C   UNL     1       1.625   3.558  20.215  0.00  0.00    +0.000 C 
ATOM     20  C   UNL     1       1.380   4.492  19.040  0.00  0.00    +0.000 C 
ENDBRANCH   1  15
BRANCH   1  21
ATOM     21  C   UNL     1       4.947   3.959  18.157  0.00  0.00    +0.000 C 
BRANCH  21  23
ATOM     22  O   UNL     1       7.022   4.197  16.975  0.00  0.00    +0.000 OA
ATOM     23  C   UNL     1       5.810   4.008  16.892  0.00  0.00    +0.000 C 
ATOM     24  N   UNL     1       5.106   3.970  15.694  0.00  0.00    +0.000 N 
ATOM     25  H   UNL     1       4.136   4.266  15.751  0.00  0.00    +0.000 HD
BRANCH  24  26
ATOM     26  C   UNL     1       5.769   4.107  14.451  0.00  0.00    +0.000 A 
ATOM     27  C   UNL     1       5.415   3.330  13.341  0.00  0.00    +0.000 A 
ATOM     28  C   UNL     1       6.161   3.410  12.167  0.00  0.00    +0.000 A 
ATOM     29  F   UNL     1       5.812   2.662  11.113  0.00  0.00    +0.000 F 
ATOM     30  C   UNL     1       7.260   4.250  12.075  0.00  0.00    +0.000 A 
ATOM     31  C   UNL     1       7.580   5.044  13.168  0.00  0.00    +0.000 A 
ATOM     32  F   UNL     1       8.658   5.837  13.106  0.00  0.00    +0.000 F 
ATOM     33  C   UNL     1       6.830   5.007  14.345  0.00  0.00    +0.000 A 
ENDBRANCH  24  26
ENDBRANCH  21  23
ENDBRANCH   1  21
TORSDOF 5
ENDMDL
MODEL 6
REMARK VINA RESULT:      -8.9      6.020     11.513
REMARK  Name = 
REMARK  5 active torsions:
REMARK  status: ('A' for Active; 'I' for Inactive)
REMARK    1  A    between atoms: C_2  and  C_3
REMARK    2  A    between atoms: C_3  and  N_4
REMARK    3  A    between atoms: N_4  and  C_18
REMARK    4  A    between atoms: C_5  and  C_7
REMARK    5  A    between atoms: N_24  and  C_25
REMARK                            x       y       z     vdW  Elec       q    Type
REMARK                         _______ _______ _______ _____ _____    ______ ____
ROOT
ATOM      1  N   UNL     1      -1.277  11.219  18.738  0.00  0.00    +0.000 N 
ATOM      2  C   UNL     1       0.112  11.191  18.997  0.00  0.00    +0.000 C 
ATOM      3  O   UNL     1       0.728  12.203  19.338  0.00  0.00    +0.000 OA
ENDROOT
BRANCH   2   4
ATOM      4  C   UNL     1       0.939   9.972  18.885  0.00  0.00    +0.000 A 
ATOM      5  C   UNL     1       1.600   9.589  17.732  0.00  0.00    +0.000 A 
ATOM      6  C   UNL     1       2.341   8.409  17.730  0.00  0.00    +0.000 A 
ATOM      7  C   UNL     1       2.366   7.579  18.855  0.00  0.00    +0.000 A 
ATOM      8  N   UNL     1       3.079   6.406  18.846  0.00  0.00    +0.000 N 
ATOM      9  C   UNL     1       3.007   5.459  19.947  0.00  0.00    +0.000 C 
ATOM     10  C   UNL     1       4.186   4.540  19.643  0.00  0.00    +0.000 C 
ATOM     11  C   UNL     1       4.165   4.432  18.124  0.00  0.00    +0.000 C 
ATOM     12  C   UNL     1       3.609   5.773  17.645  0.00  0.00    +0.000 C 
ATOM     13  N   UNL     1       1.697   7.928  19.974  0.00  0.00    +0.000 NA
ATOM     14  C   UNL     1       1.008   9.102  19.971  0.00  0.00    +0.000 A 
ENDBRANCH   2   4
BRANCH   1  15
ATOM     15  C   UNL     1      -2.092  10.092  18.162  0.00  0.00    +0.000 C 
ATOM     16  C   UNL     1      -3.629  10.107  18.386  0.00  0.00    +0.000 C 
ATOM     17  C   UNL     1      -4.410  11.071  17.489  0.00  0.00    +0.000 C 
ATOM     18  C   UNL     1      -4.044  10.928  16.017  0.00  0.00    +0.000 C 
ATOM     19  C   UNL     1      -2.538  10.925  15.797  0.00  0.00    +0.000 C 
ATOM     20  C   UNL     1      -1.866   9.862  16.651  0.00  0.00    +0.000 C 
ENDBRANCH   1  15
BRANCH   1  21
ATOM     21  C   UNL     1      -1.914  12.529  18.975  0.00  0.00    +0.000 C 
BRANCH  21  23
ATOM     22  O   UNL     1      -2.261  12.144  21.318  0.00  0.00    +0.000 OA
ATOM     23  C   UNL     1      -2.658  12.712  20.302  0.00  0.00    +0.000 C 
ATOM     24  N   UNL     1      -3.850  13.422  20.219  0.00  0.00    +0.000 N 
ATOM     25  H   UNL     1      -4.282  13.439  19.301  0.00  0.00    +0.000 HD
BRANCH  24  26
ATOM     26  C   UNL     1      -4.688  13.580  21.349  0.00  0.00    +0.000 A 
ATOM     27  C   UNL     1      -4.435  14.558  22.319  0.00  0.00    +0.000 A 
ATOM     28  C   UNL     1      -5.212  14.613  23.474  0.00  0.00    +0.000 A 
ATOM     29  F   UNL     1      -4.960  15.552  24.394  0.00  0.00    +0.000 F 
ATOM     30  C   UNL     1      -6.241  13.707  23.686  0.00  0.00    +0.000 A 
ATOM     31  C   UNL     1      -6.507  12.765  22.701  0.00  0.00    +0.000 A 
ATOM     32  F   UNL     1      -7.476  11.863  22.906  0.00  0.00    +0.000 F 
ATOM     33  C   UNL     1      -5.765  12.710  21.521  0.00  0.00    +0.000 A 
ENDBRANCH  24  26
ENDBRANCH  21  23
ENDBRANCH   1  21
TORSDOF 5
ENDMDL
MODEL 7
REMARK VINA RESULT:      -8.8      5.838     11.258
REMARK  Name = 
REMARK  5 active torsions:
REMARK  status: ('A' for Active; 'I' for Inactive)
REMARK    1  A    between atoms: C_2  and  C_3
REMARK    2  A    between atoms: C_3  and  N_4
REMARK    3  A    between atoms: N_4  and  C_18
REMARK    4  A    between atoms: C_5  and  C_7
REMARK    5  A    between atoms: N_24  and  C_25
REMARK                            x       y       z     vdW  Elec       q    Type
REMARK                         _______ _______ _______ _____ _____    ______ ____
ROOT
ATOM      1  N   UNL     1      -1.298  11.057  18.631  0.00  0.00    +0.000 N 
ATOM      2  C   UNL     1       0.061  10.989  19.014  0.00  0.00    +0.000 C 
ATOM      3  O   UNL     1       0.674  11.985  19.406  0.00  0.00    +0.000 OA
ENDROOT
BRANCH   2   4
ATOM      4  C   UNL     1       0.857   9.745  18.984  0.00  0.00    +0.000 A 
ATOM      5  C   UNL     1       1.035   8.915  20.075  0.00  0.00    +0.000 A 
ATOM      6  C   UNL     1       1.822   7.773  19.941  0.00  0.00    +0.000 A 
ATOM      7  C   UNL     1       2.485   7.497  18.742  0.00  0.00    +0.000 A 
ATOM      8  N   UNL     1       3.278   6.384  18.617  0.00  0.00    +0.000 N 
ATOM      9  C   UNL     1       4.088   6.151  17.433  0.00  0.00    +0.000 C 
ATOM     10  C   UNL     1       4.486   4.689  17.612  0.00  0.00    +0.000 C 
ATOM     11  C   UNL     1       4.710   4.567  19.114  0.00  0.00    +0.000 C 
ATOM     12  C   UNL     1       3.739   5.572  19.736  0.00  0.00    +0.000 C 
ATOM     13  N   UNL     1       2.345   8.321  17.682  0.00  0.00    +0.000 NA
ATOM     14  C   UNL     1       1.542   9.412  17.818  0.00  0.00    +0.000 A 
ENDBRANCH   2   4
BRANCH   1  15
ATOM     15  C   UNL     1      -2.091   9.951  17.987  0.00  0.00    +0.000 C 
ATOM     16  C   UNL     1      -3.628   9.925  18.208  0.00  0.00    +0.000 C 
ATOM     17  C   UNL     1      -4.426  10.925  17.367  0.00  0.00    +0.000 C 
ATOM     18  C   UNL     1      -4.055  10.875  15.890  0.00  0.00    +0.000 C 
ATOM     19  C   UNL     1      -2.549  10.913  15.674  0.00  0.00    +0.000 C 
ATOM     20  C   UNL     1      -1.859   9.814  16.466  0.00  0.00    +0.000 C 
ENDBRANCH   1  15
BRANCH   1  21
ATOM     21  C   UNL     1      -1.914  12.388  18.803  0.00  0.00    +0.000 C 
BRANCH  21  23
ATOM     22  O   UNL     1      -3.839  12.856  20.157  0.00  0.00    +0.000 OA
ATOM     23  C   UNL     1      -2.626  12.658  20.133  0.00  0.00    +0.000 C 
ATOM     24  N   UNL     1      -1.789  12.799  21.233  0.00  0.00    +0.000 N 
ATOM     25  H   UNL     1      -0.832  13.061  21.021  0.00  0.00    +0.000 HD
BRANCH  24  26
ATOM     26  C   UNL     1      -2.304  13.148  22.505  0.00  0.00    +0.000 A 
ATOM     27  C   UNL     1      -3.218  12.327  23.177  0.00  0.00    +0.000 A 
ATOM     28  C   UNL     1      -3.791  12.753  24.373  0.00  0.00    +0.000 A 
ATOM     29  F   UNL     1      -4.664  11.960  25.005  0.00  0.00    +0.000 F 
ATOM     30  C   UNL     1      -3.473  13.989  24.916  0.00  0.00    +0.000 A 
ATOM     31  C   UNL     1      -2.538  14.780  24.262  0.00  0.00    +0.000 A 
ATOM     32  F   UNL     1      -2.245  15.989  24.757  0.00  0.00    +0.000 F 
ATOM     33  C   UNL     1      -1.925  14.362  23.079  0.00  0.00    +0.000 A 
ENDBRANCH  24  26
ENDBRANCH  21  23
ENDBRANCH   1  21
TORSDOF 5
ENDMDL
MODEL 8
REMARK VINA RESULT:      -8.8      1.079      1.139
REMARK  Name = 
REMARK  5 active torsions:
REMARK  status: ('A' for Active; 'I' for Inactive)
REMARK    1  A    between atoms: C_2  and  C_3
REMARK    2  A    between atoms: C_3  and  N_4
REMARK    3  A    between atoms: N_4  and  C_18
REMARK    4  A    between atoms: C_5  and  C_7
REMARK    5  A    between atoms: N_24  and  C_25
REMARK                            x       y       z     vdW  Elec       q    Type
REMARK                         _______ _______ _______ _____ _____    ______ ____
ROOT
ATOM      1  N   UNL     1       3.757   4.868  18.250  0.00  0.00    +0.000 N 
ATOM      2  C   UNL     1       4.025   6.181  18.697  0.00  0.00    +0.000 C 
ATOM      3  O   UNL     1       5.145   6.516  19.093  0.00  0.00    +0.000 OA
ENDROOT
BRANCH   2   4
ATOM      4  C   UNL     1       3.012   7.256  18.730  0.00  0.00    +0.000 A 
ATOM      5  C   UNL     1       2.759   8.112  17.673  0.00  0.00    +0.000 A 
ATOM      6  C   UNL     1       1.791   9.104  17.816  0.00  0.00    +0.000 A 
ATOM      7  C   UNL     1       1.127   9.285  19.033  0.00  0.00    +0.000 A 
ATOM      8  N   UNL     1       0.189  10.276  19.180  0.00  0.00    +0.000 N 
ATOM      9  C   UNL     1      -0.410  10.576  20.470  0.00  0.00    +0.000 C 
ATOM     10  C   UNL     1      -1.585  11.463  20.068  0.00  0.00    +0.000 C 
ATOM     11  C   UNL     1      -1.023  12.292  18.920  0.00  0.00    +0.000 C 
ATOM     12  C   UNL     1       0.004  11.380  18.247  0.00  0.00    +0.000 C 
ATOM     13  N   UNL     1       1.392   8.476  20.080  0.00  0.00    +0.000 NA
ATOM     14  C   UNL     1       2.314   7.488  19.912  0.00  0.00    +0.000 A 
ENDBRANCH   2   4
BRANCH   1  15
ATOM     15  C   UNL     1       2.403   4.310  17.905  0.00  0.00    +0.000 C 
ATOM     16  C   UNL     1       2.315   2.833  17.432  0.00  0.00    +0.000 C 
ATOM     17  C   UNL     1       2.412   1.785  18.544  0.00  0.00    +0.000 C 
ATOM     18  C   UNL     1       1.470   2.076  19.706  0.00  0.00    +0.000 C 
ATOM     19  C   UNL     1       1.565   3.520  20.176  0.00  0.00    +0.000 C 
ATOM     20  C   UNL     1       1.348   4.484  19.020  0.00  0.00    +0.000 C 
ENDBRANCH   1  15
BRANCH   1  21
ATOM     21  C   UNL     1       4.934   3.975  18.242  0.00  0.00    +0.000 C 
BRANCH  21  23
ATOM     22  O   UNL     1       7.031   4.375  17.145  0.00  0.00    +0.000 OA
ATOM     23  C   UNL     1       5.852   4.046  17.018  0.00  0.00    +0.000 C 
ATOM     24  N   UNL     1       5.221   3.860  15.794  0.00  0.00    +0.000 N 
ATOM     25  H   UNL     1       4.224   4.048  15.786  0.00  0.00    +0.000 HD
BRANCH  24  26
ATOM     26  C   UNL     1       5.931   3.997  14.577  0.00  0.00    +0.000 A 
ATOM     27  C   UNL     1       7.018   4.871  14.455  0.00  0.00    +0.000 A 
ATOM     28  C   UNL     1       7.622   5.065  13.215  0.00  0.00    +0.000 A 
ATOM     29  F   UNL     1       8.660   5.903  13.112  0.00  0.00    +0.000 F 
ATOM     30  C   UNL     1       7.161   4.405  12.086  0.00  0.00    +0.000 A 
ATOM     31  C   UNL     1       6.107   3.513  12.223  0.00  0.00    +0.000 A 
ATOM     32  F   UNL     1       5.630   2.892  11.136  0.00  0.00    +0.000 F 
ATOM     33  C   UNL     1       5.506   3.275  13.460  0.00  0.00    +0.000 A 
ENDBRANCH  24  26
ENDBRANCH  21  23
ENDBRANCH   1  21
TORSDOF 5
ENDMDL
MODEL 9
REMARK VINA RESULT:      -8.8      4.250      7.436
REMARK  Name = 
REMARK  5 active torsions:
REMARK  status: ('A' for Active; 'I' for Inactive)
REMARK    1  A    between atoms: C_2  and  C_3
REMARK    2  A    between atoms: C_3  and  N_4
REMARK    3  A    between atoms: N_4  and  C_18
REMARK    4  A    between atoms: C_5  and  C_7
REMARK    5  A    between atoms: N_24  and  C_25
REMARK                            x       y       z     vdW  Elec       q    Type
REMARK                         _______ _______ _______ _____ _____    ______ ____
ROOT
ATOM      1  N   UNL     1       0.651  10.642  21.464  0.00  0.00    +0.000 N 
ATOM      2  C   UNL     1      -0.135  10.752  22.634  0.00  0.00    +0.000 C 
ATOM      3  O   UNL     1      -0.006   9.967  23.578  0.00  0.00    +0.000 OA
ENDROOT
BRANCH   2   4
ATOM      4  C   UNL     1      -1.161  11.795  22.834  0.00  0.00    +0.000 A 
ATOM      5  C   UNL     1      -0.889  13.151  22.865  0.00  0.00    +0.000 A 
ATOM      6  C   UNL     1      -1.932  14.050  23.078  0.00  0.00    +0.000 A 
ATOM      7  C   UNL     1      -3.230  13.595  23.326  0.00  0.00    +0.000 A 
ATOM      8  N   UNL     1      -4.253  14.481  23.557  0.00  0.00    +0.000 N 
ATOM      9  C   UNL     1      -5.576  14.033  23.958  0.00  0.00    +0.000 C 
ATOM     10  C   UNL     1      -6.407  15.297  23.754  0.00  0.00    +0.000 C 
ATOM     11  C   UNL     1      -5.465  16.411  24.193  0.00  0.00    +0.000 C 
ATOM     12  C   UNL     1      -4.066  15.896  23.855  0.00  0.00    +0.000 C 
ATOM     13  N   UNL     1      -3.498  12.273  23.332  0.00  0.00    +0.000 NA
ATOM     14  C   UNL     1      -2.475  11.409  23.086  0.00  0.00    +0.000 A 
ENDBRANCH   2   4
BRANCH   1  15
ATOM     15  C   UNL     1       0.466  11.434  20.198  0.00  0.00    +0.000 C 
ATOM     16  C   UNL     1       1.401  11.126  18.997  0.00  0.00    +0.000 C 
ATOM     17  C   UNL     1       1.052   9.864  18.204  0.00  0.00    +0.000 C 
ATOM     18  C   UNL     1      -0.420   9.803  17.818  0.00  0.00    +0.000 C 
ATOM     19  C   UNL     1      -1.336  10.092  18.999  0.00  0.00    +0.000 C 
ATOM     20  C   UNL     1      -0.979  11.418  19.652  0.00  0.00    +0.000 C 
ENDBRANCH   1  15
BRANCH   1  21
ATOM     21  C   UNL     1       1.660   9.565  21.508  0.00  0.00    +0.000 C 
BRANCH  21  23
ATOM     22  O   UNL     1       0.072   7.807  21.123  0.00  0.00    +0.000 OA
ATOM     23  C   UNL     1       1.232   8.189  20.984  0.00  0.00    +0.000 C 
ATOM     24  N   UNL     1       2.264   7.395  20.498  0.00  0.00    +0.000 N 
ATOM     25  H   UNL     1       3.190   7.625  20.845  0.00  0.00    +0.000 HD
BRANCH  24  26
ATOM     26  C   UNL     1       2.027   6.065  20.075  0.00  0.00    +0.000 A 
ATOM     27  C   UNL     1       2.053   5.710  18.721  0.00  0.00    +0.000 A 
ATOM     28  C   UNL     1       1.705   4.418  18.331  0.00  0.00    +0.000 A 
ATOM     29  F   UNL     1       1.735   4.091  17.034  0.00  0.00    +0.000 F 
ATOM     30  C   UNL     1       1.325   3.469  19.267  0.00  0.00    +0.000 A 
ATOM     31  C   UNL     1       1.337   3.820  20.610  0.00  0.00    +0.000 A 
ATOM     32  F   UNL     1       0.942   2.923  21.523  0.00  0.00    +0.000 F 
ATOM     33  C   UNL     1       1.714   5.097  21.030  0.00  0.00    +0.000 A 
ENDBRANCH  24  26
ENDBRANCH  21  23
ENDBRANCH   1  21
TORSDOF 5
ENDMDL
