MODEL 1
REMARK VINA RESULT:      -8.4      0.000      0.000
REMARK  Name = 
REMARK  7 active torsions:
REMARK  status: ('A' for Active; 'I' for Inactive)
REMARK    1  A    between atoms: C_1  and  C_2
REMARK    2  A    between atoms: C_2  and  N_3
REMARK    3  A    between atoms: C_2  and  C_28
REMARK    4  A    between atoms: C_4  and  C_6
REMARK    5  A    between atoms: C_8  and  C_9
REMARK    6  A    between atoms: C_10  and  C_11
REMARK    7  A    between atoms: N_32  and  C_33
REMARK                            x       y       z     vdW  Elec       q    Type
REMARK                         _______ _______ _______ _____ _____    ______ ____
ROOT
ATOM      1  C   UNL     1      -1.537  10.783  18.550  0.00  0.00    +0.000 A 
ATOM      2  C   UNL     1      -2.093  11.799  19.326  0.00  0.00    +0.000 A 
ATOM      3  N   UNL     1      -3.200  12.242  18.624  0.00  0.00    +0.000 N 
ATOM      4  C   UNL     1      -3.350  11.570  17.438  0.00  0.00    +0.000 A 
ATOM      5  C   UNL     1      -4.355  11.675  16.472  0.00  0.00    +0.000 A 
ATOM      6  F   UNL     1      -5.387  12.510  16.646  0.00  0.00    +0.000 F 
ATOM      7  C   UNL     1      -4.287  10.885  15.333  0.00  0.00    +0.000 A 
ATOM      8  C   UNL     1      -3.223  10.021  15.177  0.00  0.00    +0.000 A 
ATOM      9  F   UNL     1      -3.141   9.268  14.070  0.00  0.00    +0.000 F 
ATOM     10  C   UNL     1      -2.231   9.893  16.152  0.00  0.00    +0.000 A 
ATOM     11  C   UNL     1      -2.284  10.677  17.327  0.00  0.00    +0.000 A 
ATOM     12  H   UNL     1      -3.852  12.939  18.954  0.00  0.00    +0.000 HD
ENDROOT
BRANCH   2  13
ATOM     13  C   UNL     1      -1.764  12.389  20.639  0.00  0.00    +0.000 A 
ATOM     14  C   UNL     1      -1.431  13.754  20.753  0.00  0.00    +0.000 A 
ATOM     15  C   UNL     1      -1.140  14.327  21.997  0.00  0.00    +0.000 A 
ATOM     16  C   UNL     1      -1.162  13.535  23.135  0.00  0.00    +0.000 A 
ATOM     17  F   UNL     1      -0.880  14.078  24.326  0.00  0.00    +0.000 F 
ATOM     18  C   UNL     1      -1.481  12.189  23.053  0.00  0.00    +0.000 A 
ATOM     19  C   UNL     1      -1.794  11.625  21.813  0.00  0.00    +0.000 A 
ENDBRANCH   2  13
BRANCH   1  22
ATOM     20  C   UNL     1       1.661   9.282  18.912  0.00  0.00    +0.000 C 
ATOM     21  C   UNL     1       0.455   9.117  17.956  0.00  0.00    +0.000 C 
ATOM     22  C   UNL     1      -0.407   9.853  18.991  0.00  0.00    +0.000 C 
ATOM     23  C   UNL     1       0.893  10.494  19.523  0.00  0.00    +0.000 C 
BRANCH  20  25
ATOM     24  N   UNL     1       2.739   7.095  19.106  0.00  0.00    +0.000 N 
ATOM     25  C   UNL     1       2.005   8.043  19.791  0.00  0.00    +0.000 C 
ATOM     26  O   UNL     1       1.657   7.884  20.962  0.00  0.00    +0.000 OA
ATOM     27  H   UNL     1       3.020   7.290  18.154  0.00  0.00    +0.000 HD
BRANCH  24  29
ATOM     28  C   UNL     1       4.644   5.551  19.317  0.00  0.00    +0.000 C 
ATOM     29  C   UNL     1       3.206   5.870  19.719  0.00  0.00    +0.000 C 
BRANCH  29  30
ATOM     30  C   UNL     1       2.283   4.771  19.294  0.00  0.00    +0.000 A 
ATOM     31  C   UNL     1       1.747   4.460  18.054  0.00  0.00    +0.000 A 
ATOM     32  C   UNL     1       1.009   3.283  18.255  0.00  0.00    +0.000 A 
ATOM     33  N   UNL     1       1.047   2.876  19.524  0.00  0.00    +0.000 NA
ATOM     34  N   UNL     1       1.823   3.789  20.138  0.00  0.00    +0.000 N 
ATOM     35  C   UNL     1       2.086   3.645  21.551  0.00  0.00    +0.000 C 
ENDBRANCH  29  30
ENDBRANCH  24  29
ENDBRANCH  20  25
ENDBRANCH   1  22
TORSDOF 5
ENDMDL
MODEL 2
REMARK VINA RESULT:      -8.1      2.754      4.883
REMARK  Name = 
REMARK  7 active torsions:
REMARK  status: ('A' for Active; 'I' for Inactive)
REMARK    1  A    between atoms: C_1  and  C_2
REMARK    2  A    between atoms: C_2  and  N_3
REMARK    3  A    between atoms: C_2  and  C_28
REMARK    4  A    between atoms: C_4  and  C_6
REMARK    5  A    between atoms: C_8  and  C_9
REMARK    6  A    between atoms: C_10  and  C_11
REMARK    7  A    between atoms: N_32  and  C_33
REMARK                            x       y       z     vdW  Elec       q    Type
REMARK                         _______ _______ _______ _____ _____    ______ ____
ROOT
ATOM      1  C   UNL     1       0.698  12.499  19.087  0.00  0.00    +0.000 A 
ATOM      2  C   UNL     1      -0.568  12.953  18.714  0.00  0.00    +0.000 A 
ATOM      3  N   UNL     1      -0.432  14.315  18.516  0.00  0.00    +0.000 N 
ATOM      4  C   UNL     1       0.847  14.739  18.769  0.00  0.00    +0.000 A 
ATOM      5  C   UNL     1       1.407  16.014  18.639  0.00  0.00    +0.000 A 
ATOM      6  F   UNL     1       0.679  17.039  18.184  0.00  0.00    +0.000 F 
ATOM      7  C   UNL     1       2.742  16.205  18.969  0.00  0.00    +0.000 A 
ATOM      8  C   UNL     1       3.482  15.133  19.425  0.00  0.00    +0.000 A 
ATOM      9  F   UNL     1       4.767  15.313  19.762  0.00  0.00    +0.000 F 
ATOM     10  C   UNL     1       2.933  13.852  19.530  0.00  0.00    +0.000 A 
ATOM     11  C   UNL     1       1.579  13.629  19.188  0.00  0.00    +0.000 A 
ATOM     12  H   UNL     1      -1.165  14.925  18.181  0.00  0.00    +0.000 HD
ENDROOT
BRANCH   2  13
ATOM     13  C   UNL     1      -1.869  12.296  18.480  0.00  0.00    +0.000 A 
ATOM     14  C   UNL     1      -2.892  12.361  19.447  0.00  0.00    +0.000 A 
ATOM     15  C   UNL     1      -4.138  11.760  19.224  0.00  0.00    +0.000 A 
ATOM     16  C   UNL     1      -4.363  11.074  18.041  0.00  0.00    +0.000 A 
ATOM     17  F   UNL     1      -5.551  10.494  17.826  0.00  0.00    +0.000 F 
ATOM     18  C   UNL     1      -3.373  10.989  17.074  0.00  0.00    +0.000 A 
ATOM     19  C   UNL     1      -2.140  11.609  17.290  0.00  0.00    +0.000 A 
ENDBRANCH   2  13
BRANCH   1  22
ATOM     20  C   UNL     1       1.334   9.082  18.366  0.00  0.00    +0.000 C 
ATOM     21  C   UNL     1       0.125   9.907  18.866  0.00  0.00    +0.000 C 
ATOM     22  C   UNL     1       1.103  11.033  19.230  0.00  0.00    +0.000 C 
ATOM     23  C   UNL     1       2.072  10.443  18.182  0.00  0.00    +0.000 C 
BRANCH  20  25
ATOM     24  N   UNL     1       2.468   6.942  18.713  0.00  0.00    +0.000 N 
ATOM     25  C   UNL     1       1.885   8.015  19.359  0.00  0.00    +0.000 C 
ATOM     26  O   UNL     1       1.805   8.079  20.587  0.00  0.00    +0.000 OA
ATOM     27  H   UNL     1       2.531   6.955  17.704  0.00  0.00    +0.000 HD
BRANCH  24  29
ATOM     28  C   UNL     1       4.510   5.587  18.946  0.00  0.00    +0.000 C 
ATOM     29  C   UNL     1       3.080   5.839  19.423  0.00  0.00    +0.000 C 
BRANCH  29  30
ATOM     30  C   UNL     1       2.228   4.629  19.198  0.00  0.00    +0.000 A 
ATOM     31  C   UNL     1       1.661   4.117  18.041  0.00  0.00    +0.000 A 
ATOM     32  C   UNL     1       1.030   2.926  18.436  0.00  0.00    +0.000 A 
ATOM     33  N   UNL     1       1.160   2.697  19.742  0.00  0.00    +0.000 NA
ATOM     34  N   UNL     1       1.889   3.738  20.186  0.00  0.00    +0.000 N 
ATOM     35  C   UNL     1       2.229   3.804  21.589  0.00  0.00    +0.000 C 
ENDBRANCH  29  30
ENDBRANCH  24  29
ENDBRANCH  20  25
ENDBRANCH   1  22
TORSDOF 5
ENDMDL
MODEL 3
REMARK VINA RESULT:      -8.1      1.487      5.225
REMARK  Name = 
REMARK  7 active torsions:
REMARK  status: ('A' for Active; 'I' for Inactive)
REMARK    1  A    between atoms: C_1  and  C_2
REMARK    2  A    between atoms: C_2  and  N_3
REMARK    3  A    between atoms: C_2  and  C_28
REMARK    4  A    between atoms: C_4  and  C_6
REMARK    5  A    between atoms: C_8  and  C_9
REMARK    6  A    between atoms: C_10  and  C_11
REMARK    7  A    between atoms: N_32  and  C_33
REMARK                            x       y       z     vdW  Elec       q    Type
REMARK                         _______ _______ _______ _____ _____    ______ ____
ROOT
ATOM      1  C   UNL     1      -1.601  11.396  19.866  0.00  0.00    +0.000 A 
ATOM      2  C   UNL     1      -2.547  11.700  18.887  0.00  0.00    +0.000 A 
ATOM      3  N   UNL     1      -3.235  12.802  19.364  0.00  0.00    +0.000 N 
ATOM      4  C   UNL     1      -2.783  13.186  20.599  0.00  0.00    +0.000 A 
ATOM      5  C   UNL     1      -3.169  14.270  21.395  0.00  0.00    +0.000 A 
ATOM      6  F   UNL     1      -4.094  15.137  20.968  0.00  0.00    +0.000 F 
ATOM      7  C   UNL     1      -2.566  14.453  22.632  0.00  0.00    +0.000 A 
ATOM      8  C   UNL     1      -1.605  13.555  23.050  0.00  0.00    +0.000 A 
ATOM      9  F   UNL     1      -1.030  13.716  24.251  0.00  0.00    +0.000 F 
ATOM     10  C   UNL     1      -1.197  12.488  22.247  0.00  0.00    +0.000 A 
ATOM     11  C   UNL     1      -1.786  12.287  20.978  0.00  0.00    +0.000 A 
ATOM     12  H   UNL     1      -3.951  13.299  18.853  0.00  0.00    +0.000 HD
ENDROOT
BRANCH   2  13
ATOM     13  C   UNL     1      -2.875  11.137  17.562  0.00  0.00    +0.000 A 
ATOM     14  C   UNL     1      -4.023  11.563  16.863  0.00  0.00    +0.000 A 
ATOM     15  C   UNL     1      -4.330  11.051  15.597  0.00  0.00    +0.000 A 
ATOM     16  C   UNL     1      -3.502  10.095  15.028  0.00  0.00    +0.000 A 
ATOM     17  F   UNL     1      -3.794   9.600  13.818  0.00  0.00    +0.000 F 
ATOM     18  C   UNL     1      -2.369   9.654  15.694  0.00  0.00    +0.000 A 
ATOM     19  C   UNL     1      -2.053  10.184  16.948  0.00  0.00    +0.000 A 
ENDBRANCH   2  13
BRANCH   1  22
ATOM     20  C   UNL     1       1.130   9.245  20.588  0.00  0.00    +0.000 C 
ATOM     21  C   UNL     1       0.960  10.718  20.146  0.00  0.00    +0.000 C 
ATOM     22  C   UNL     1      -0.473  10.375  19.717  0.00  0.00    +0.000 C 
ATOM     23  C   UNL     1      -0.423   9.199  20.716  0.00  0.00    +0.000 C 
BRANCH  20  25
ATOM     24  N   UNL     1       2.173   7.082  20.121  0.00  0.00    +0.000 N 
ATOM     25  C   UNL     1       1.864   8.313  19.577  0.00  0.00    +0.000 C 
ATOM     26  O   UNL     1       2.171   8.618  18.423  0.00  0.00    +0.000 OA
ATOM     27  H   UNL     1       1.873   6.875  21.064  0.00  0.00    +0.000 HD
BRANCH  24  29
ATOM     28  C   UNL     1       2.165   5.819  18.008  0.00  0.00    +0.000 C 
ATOM     29  C   UNL     1       2.828   6.034  19.367  0.00  0.00    +0.000 C 
BRANCH  29  30
ATOM     30  C   UNL     1       2.769   4.783  20.186  0.00  0.00    +0.000 A 
ATOM     31  C   UNL     1       1.899   4.394  21.193  0.00  0.00    +0.000 A 
ATOM     32  C   UNL     1       2.294   3.092  21.539  0.00  0.00    +0.000 A 
ATOM     33  N   UNL     1       3.345   2.679  20.830  0.00  0.00    +0.000 NA
ATOM     34  N   UNL     1       3.618   3.716  20.016  0.00  0.00    +0.000 N 
ATOM     35  C   UNL     1       4.718   3.603  19.087  0.00  0.00    +0.000 C 
ENDBRANCH  29  30
ENDBRANCH  24  29
ENDBRANCH  20  25
ENDBRANCH   1  22
TORSDOF 5
ENDMDL
MODEL 4
REMARK VINA RESULT:      -7.8      1.814      5.578
REMARK  Name = 
REMARK  7 active torsions:
REMARK  status: ('A' for Active; 'I' for Inactive)
REMARK    1  A    between atoms: C_1  and  C_2
REMARK    2  A    between atoms: C_2  and  N_3
REMARK    3  A    between atoms: C_2  and  C_28
REMARK    4  A    between atoms: C_4  and  C_6
REMARK    5  A    between atoms: C_8  and  C_9
REMARK    6  A    between atoms: C_10  and  C_11
REMARK    7  A    between atoms: N_32  and  C_33
REMARK                            x       y       z     vdW  Elec       q    Type
REMARK                         _______ _______ _______ _____ _____    ______ ____
ROOT
ATOM      1  C   UNL     1      -1.540  11.224  19.269  0.00  0.00    +0.000 A 
ATOM      2  C   UNL     1      -2.585  11.543  18.401  0.00  0.00    +0.000 A 
ATOM      3  N   UNL     1      -3.298  12.548  19.030  0.00  0.00    +0.000 N 
ATOM      4  C   UNL     1      -2.765  12.857  20.255  0.00  0.00    +0.000 A 
ATOM      5  C   UNL     1      -3.149  13.838  21.175  0.00  0.00    +0.000 A 
ATOM      6  F   UNL     1      -4.161  14.671  20.905  0.00  0.00    +0.000 F 
ATOM      7  C   UNL     1      -2.454  13.958  22.370  0.00  0.00    +0.000 A 
ATOM      8  C   UNL     1      -1.405  13.098  22.626  0.00  0.00    +0.000 A 
ATOM      9  F   UNL     1      -0.739  13.196  23.786  0.00  0.00    +0.000 F 
ATOM     10  C   UNL     1      -1.001  12.135  21.699  0.00  0.00    +0.000 A 
ATOM     11  C   UNL     1      -1.684  12.002  20.468  0.00  0.00    +0.000 A 
ATOM     12  H   UNL     1      -4.086  13.036  18.627  0.00  0.00    +0.000 HD
ENDROOT
BRANCH   2  13
ATOM     13  C   UNL     1      -2.991  11.074  17.062  0.00  0.00    +0.000 A 
ATOM     14  C   UNL     1      -2.238  10.096  16.382  0.00  0.00    +0.000 A 
ATOM     15  C   UNL     1      -2.628   9.629  15.121  0.00  0.00    +0.000 A 
ATOM     16  C   UNL     1      -3.764  10.150  14.522  0.00  0.00    +0.000 A 
ATOM     17  F   UNL     1      -4.139   9.709  13.314  0.00  0.00    +0.000 F 
ATOM     18  C   UNL     1      -4.522  11.116  15.164  0.00  0.00    +0.000 A 
ATOM     19  C   UNL     1      -4.143  11.564  16.433  0.00  0.00    +0.000 A 
ENDBRANCH   2  13
BRANCH   1  22
ATOM     20  C   UNL     1       1.523   9.442  19.476  0.00  0.00    +0.000 C 
ATOM     21  C   UNL     1       1.075  10.828  18.955  0.00  0.00    +0.000 C 
ATOM     22  C   UNL     1      -0.367  10.303  18.936  0.00  0.00    +0.000 C 
ATOM     23  C   UNL     1       0.064   9.267  19.997  0.00  0.00    +0.000 C 
BRANCH  20  25
ATOM     24  N   UNL     1       2.205   7.172  18.872  0.00  0.00    +0.000 N 
ATOM     25  C   UNL     1       2.099   8.467  18.405  0.00  0.00    +0.000 C 
ATOM     26  O   UNL     1       2.452   8.787  17.269  0.00  0.00    +0.000 OA
ATOM     27  H   UNL     1       1.875   6.960  19.804  0.00  0.00    +0.000 HD
BRANCH  24  29
ATOM     28  C   UNL     1       1.885   4.800  18.294  0.00  0.00    +0.000 C 
ATOM     29  C   UNL     1       2.684   6.079  18.051  0.00  0.00    +0.000 C 
BRANCH  29  30
ATOM     30  C   UNL     1       4.129   5.868  18.376  0.00  0.00    +0.000 A 
ATOM     31  C   UNL     1       4.743   5.382  19.520  0.00  0.00    +0.000 A 
ATOM     32  C   UNL     1       6.114   5.347  19.217  0.00  0.00    +0.000 A 
ATOM     33  N   UNL     1       6.368   5.793  17.987  0.00  0.00    +0.000 NA
ATOM     34  N   UNL     1       5.154   6.103  17.493  0.00  0.00    +0.000 N 
ATOM     35  C   UNL     1       5.059   6.620  16.147  0.00  0.00    +0.000 C 
ENDBRANCH  29  30
ENDBRANCH  24  29
ENDBRANCH  20  25
ENDBRANCH   1  22
TORSDOF 5
ENDMDL
MODEL 5
REMARK VINA RESULT:      -7.7      2.874      5.005
REMARK  Name = 
REMARK  7 active torsions:
REMARK  status: ('A' for Active; 'I' for Inactive)
REMARK    1  A    between atoms: C_1  and  C_2
REMARK    2  A    between atoms: C_2  and  N_3
REMARK    3  A    between atoms: C_2  and  C_28
REMARK    4  A    between atoms: C_4  and  C_6
REMARK    5  A    between atoms: C_8  and  C_9
REMARK    6  A    between atoms: C_10  and  C_11
REMARK    7  A    between atoms: N_32  and  C_33
REMARK                            x       y       z     vdW  Elec       q    Type
REMARK                         _______ _______ _______ _____ _____    ______ ____
ROOT
ATOM      1  C   UNL     1       0.797  12.518  19.070  0.00  0.00    +0.000 A 
ATOM      2  C   UNL     1      -0.482  12.989  18.771  0.00  0.00    +0.000 A 
ATOM      3  N   UNL     1      -0.358  14.363  18.668  0.00  0.00    +0.000 N 
ATOM      4  C   UNL     1       0.927  14.776  18.910  0.00  0.00    +0.000 A 
ATOM      5  C   UNL     1       1.478  16.059  18.854  0.00  0.00    +0.000 A 
ATOM      6  F   UNL     1       0.731  17.111  18.498  0.00  0.00    +0.000 F 
ATOM      7  C   UNL     1       2.823  16.235  19.153  0.00  0.00    +0.000 A 
ATOM      8  C   UNL     1       3.581  15.137  19.507  0.00  0.00    +0.000 A 
ATOM      9  F   UNL     1       4.876  15.300  19.814  0.00  0.00    +0.000 F 
ATOM     10  C   UNL     1       3.040  13.849  19.537  0.00  0.00    +0.000 A 
ATOM     11  C   UNL     1       1.677  13.642  19.224  0.00  0.00    +0.000 A 
ATOM     12  H   UNL     1      -1.103  14.991  18.401  0.00  0.00    +0.000 HD
ENDROOT
BRANCH   2  13
ATOM     13  C   UNL     1      -1.788  12.343  18.533  0.00  0.00    +0.000 A 
ATOM     14  C   UNL     1      -2.031  11.626  17.345  0.00  0.00    +0.000 A 
ATOM     15  C   UNL     1      -3.259  10.992  17.121  0.00  0.00    +0.000 A 
ATOM     16  C   UNL     1      -4.260  11.085  18.076  0.00  0.00    +0.000 A 
ATOM     17  F   UNL     1      -5.438  10.482  17.864  0.00  0.00    +0.000 F 
ATOM     18  C   UNL     1      -4.051  11.787  19.253  0.00  0.00    +0.000 A 
ATOM     19  C   UNL     1      -2.816  12.399  19.483  0.00  0.00    +0.000 A 
ENDBRANCH   2  13
BRANCH   1  22
ATOM     20  C   UNL     1       0.913   9.027  18.433  0.00  0.00    +0.000 C 
ATOM     21  C   UNL     1       0.200   9.949  19.449  0.00  0.00    +0.000 C 
ATOM     22  C   UNL     1       1.212  11.047  19.093  0.00  0.00    +0.000 C 
ATOM     23  C   UNL     1       1.417  10.331  17.741  0.00  0.00    +0.000 C 
BRANCH  20  25
ATOM     24  N   UNL     1       2.563   7.258  18.066  0.00  0.00    +0.000 N 
ATOM     25  C   UNL     1       1.930   8.011  19.035  0.00  0.00    +0.000 C 
ATOM     26  O   UNL     1       2.152   7.855  20.237  0.00  0.00    +0.000 OA
ATOM     27  H   UNL     1       2.363   7.448  17.093  0.00  0.00    +0.000 HD
BRANCH  24  29
ATOM     28  C   UNL     1       4.749   6.341  17.403  0.00  0.00    +0.000 C 
ATOM     29  C   UNL     1       3.574   6.270  18.377  0.00  0.00    +0.000 C 
BRANCH  29  30
ATOM     30  C   UNL     1       2.922   4.923  18.320  0.00  0.00    +0.000 A 
ATOM     31  C   UNL     1       1.705   4.522  17.792  0.00  0.00    +0.000 A 
ATOM     32  C   UNL     1       1.666   3.130  17.971  0.00  0.00    +0.000 A 
ATOM     33  N   UNL     1       2.758   2.671  18.582  0.00  0.00    +0.000 NA
ATOM     34  N   UNL     1       3.507   3.771  18.785  0.00  0.00    +0.000 N 
ATOM     35  C   UNL     1       4.790   3.631  19.434  0.00  0.00    +0.000 C 
ENDBRANCH  29  30
ENDBRANCH  24  29
ENDBRANCH  20  25
ENDBRANCH   1  22
TORSDOF 5
ENDMDL
MODEL 6
REMARK VINA RESULT:      -7.7      3.614      5.397
REMARK  Name = 
REMARK  7 active torsions:
REMARK  status: ('A' for Active; 'I' for Inactive)
REMARK    1  A    between atoms: C_1  and  C_2
REMARK    2  A    between atoms: C_2  and  N_3
REMARK    3  A    between atoms: C_2  and  C_28
REMARK    4  A    between atoms: C_4  and  C_6
REMARK    5  A    between atoms: C_8  and  C_9
REMARK    6  A    between atoms: C_10  and  C_11
REMARK    7  A    between atoms: N_32  and  C_33
REMARK                            x       y       z     vdW  Elec       q    Type
REMARK                         _______ _______ _______ _____ _____    ______ ____
ROOT
ATOM      1  C   UNL     1       0.305  12.324  21.220  0.00  0.00    +0.000 A 
ATOM      2  C   UNL     1       0.946  13.534  20.954  0.00  0.00    +0.000 A 
ATOM      3  N   UNL     1       0.294  14.479  21.726  0.00  0.00    +0.000 N 
ATOM      4  C   UNL     1      -0.735  13.925  22.443  0.00  0.00    +0.000 A 
ATOM      5  C   UNL     1      -1.597  14.517  23.371  0.00  0.00    +0.000 A 
ATOM      6  F   UNL     1      -1.467  15.807  23.701  0.00  0.00    +0.000 F 
ATOM      7  C   UNL     1      -2.584  13.745  23.970  0.00  0.00    +0.000 A 
ATOM      8  C   UNL     1      -2.695  12.413  23.627  0.00  0.00    +0.000 A 
ATOM      9  F   UNL     1      -3.656  11.665  24.187  0.00  0.00    +0.000 F 
ATOM     10  C   UNL     1      -1.819  11.811  22.720  0.00  0.00    +0.000 A 
ATOM     11  C   UNL     1      -0.798  12.573  22.106  0.00  0.00    +0.000 A 
ATOM     12  H   UNL     1       0.564  15.450  21.799  0.00  0.00    +0.000 HD
ENDROOT
BRANCH   2  13
ATOM     13  C   UNL     1       2.096  13.928  20.117  0.00  0.00    +0.000 A 
ATOM     14  C   UNL     1       3.269  14.446  20.701  0.00  0.00    +0.000 A 
ATOM     15  C   UNL     1       4.373  14.801  19.916  0.00  0.00    +0.000 A 
ATOM     16  C   UNL     1       4.306  14.658  18.538  0.00  0.00    +0.000 A 
ATOM     17  F   UNL     1       5.358  15.000  17.783  0.00  0.00    +0.000 F 
ATOM     18  C   UNL     1       3.163  14.155  17.935  0.00  0.00    +0.000 A 
ATOM     19  C   UNL     1       2.072  13.780  18.724  0.00  0.00    +0.000 A 
ENDBRANCH   2  13
BRANCH   1  22
ATOM     20  C   UNL     1       0.640   8.810  20.836  0.00  0.00    +0.000 C 
ATOM     21  C   UNL     1       1.246   9.892  21.762  0.00  0.00    +0.000 C 
ATOM     22  C   UNL     1       0.783  10.950  20.751  0.00  0.00    +0.000 C 
ATOM     23  C   UNL     1      -0.280   9.937  20.273  0.00  0.00    +0.000 C 
BRANCH  20  25
ATOM     24  N   UNL     1       1.876   6.771  20.292  0.00  0.00    +0.000 N 
ATOM     25  C   UNL     1       1.647   8.075  19.901  0.00  0.00    +0.000 C 
ATOM     26  O   UNL     1       2.212   8.579  18.929  0.00  0.00    +0.000 OA
ATOM     27  H   UNL     1       1.364   6.400  21.082  0.00  0.00    +0.000 HD
BRANCH  24  29
ATOM     28  C   UNL     1       2.283   5.686  18.120  0.00  0.00    +0.000 C 
ATOM     29  C   UNL     1       2.748   5.875  19.562  0.00  0.00    +0.000 C 
BRANCH  29  30
ATOM     30  C   UNL     1       2.763   4.566  20.288  0.00  0.00    +0.000 A 
ATOM     31  C   UNL     1       1.903   4.045  21.243  0.00  0.00    +0.000 A 
ATOM     32  C   UNL     1       2.383   2.752  21.504  0.00  0.00    +0.000 A 
ATOM     33  N   UNL     1       3.473   2.466  20.793  0.00  0.00    +0.000 NA
ATOM     34  N   UNL     1       3.688   3.577  20.062  0.00  0.00    +0.000 N 
ATOM     35  C   UNL     1       4.811   3.608  19.154  0.00  0.00    +0.000 C 
ENDBRANCH  29  30
ENDBRANCH  24  29
ENDBRANCH  20  25
ENDBRANCH   1  22
TORSDOF 5
ENDMDL
MODEL 7
REMARK VINA RESULT:      -7.6      3.932      5.552
REMARK  Name = 
REMARK  7 active torsions:
REMARK  status: ('A' for Active; 'I' for Inactive)
REMARK    1  A    between atoms: C_1  and  C_2
REMARK    2  A    between atoms: C_2  and  N_3
REMARK    3  A    between atoms: C_2  and  C_28
REMARK    4  A    between atoms: C_4  and  C_6
REMARK    5  A    between atoms: C_8  and  C_9
REMARK    6  A    between atoms: C_10  and  C_11
REMARK    7  A    between atoms: N_32  and  C_33
REMARK                            x       y       z     vdW  Elec       q    Type
REMARK                         _______ _______ _______ _____ _____    ______ ____
ROOT
ATOM      1  C   UNL     1      -0.789  12.236  21.955  0.00  0.00    +0.000 A 
ATOM      2  C   UNL     1      -0.156  13.387  21.488  0.00  0.00    +0.000 A 
ATOM      3  N   UNL     1      -0.811  14.445  22.093  0.00  0.00    +0.000 N 
ATOM      4  C   UNL     1      -1.835  14.014  22.897  0.00  0.00    +0.000 A 
ATOM      5  C   UNL     1      -2.697  14.749  23.716  0.00  0.00    +0.000 A 
ATOM      6  F   UNL     1      -2.573  16.077  23.825  0.00  0.00    +0.000 F 
ATOM      7  C   UNL     1      -3.677  14.083  24.440  0.00  0.00    +0.000 A 
ATOM      8  C   UNL     1      -3.782  12.712  24.326  0.00  0.00    +0.000 A 
ATOM      9  F   UNL     1      -4.737  12.063  25.008  0.00  0.00    +0.000 F 
ATOM     10  C   UNL     1      -2.905  11.971  23.529  0.00  0.00    +0.000 A 
ATOM     11  C   UNL     1      -1.891  12.624  22.792  0.00  0.00    +0.000 A 
ATOM     12  H   UNL     1      -0.547  15.416  22.001  0.00  0.00    +0.000 HD
ENDROOT
BRANCH   2  13
ATOM     13  C   UNL     1       0.989  13.641  20.591  0.00  0.00    +0.000 A 
ATOM     14  C   UNL     1       2.227  14.071  21.108  0.00  0.00    +0.000 A 
ATOM     15  C   UNL     1       3.325  14.292  20.266  0.00  0.00    +0.000 A 
ATOM     16  C   UNL     1       3.187  14.103  18.900  0.00  0.00    +0.000 A 
ATOM     17  F   UNL     1       4.234  14.317  18.092  0.00  0.00    +0.000 F 
ATOM     18  C   UNL     1       1.980  13.685  18.363  0.00  0.00    +0.000 A 
ATOM     19  C   UNL     1       0.893  13.442  19.207  0.00  0.00    +0.000 A 
ENDBRANCH   2  13
BRANCH   1  22
ATOM     20  C   UNL     1       1.070   9.219  22.169  0.00  0.00    +0.000 C 
ATOM     21  C   UNL     1       1.155  10.522  21.340  0.00  0.00    +0.000 C 
ATOM     22  C   UNL     1      -0.305  10.805  21.722  0.00  0.00    +0.000 C 
ATOM     23  C   UNL     1      -0.090   9.903  22.956  0.00  0.00    +0.000 C 
BRANCH  20  25
ATOM     24  N   UNL     1       1.975   7.340  20.890  0.00  0.00    +0.000 N 
ATOM     25  C   UNL     1       0.809   7.914  21.358  0.00  0.00    +0.000 C 
ATOM     26  O   UNL     1      -0.300   7.434  21.121  0.00  0.00    +0.000 OA
ATOM     27  H   UNL     1       2.860   7.762  21.138  0.00  0.00    +0.000 HD
BRANCH  24  29
ATOM     28  C   UNL     1       2.163   4.891  21.050  0.00  0.00    +0.000 C 
ATOM     29  C   UNL     1       1.994   6.104  20.137  0.00  0.00    +0.000 C 
BRANCH  29  30
ATOM     30  C   UNL     1       3.121   6.188  19.157  0.00  0.00    +0.000 A 
ATOM     31  C   UNL     1       4.271   5.426  19.024  0.00  0.00    +0.000 A 
ATOM     32  C   UNL     1       4.917   5.928  17.883  0.00  0.00    +0.000 A 
ATOM     33  N   UNL     1       4.252   6.944  17.335  0.00  0.00    +0.000 NA
ATOM     34  N   UNL     1       3.167   7.087  18.119  0.00  0.00    +0.000 N 
ATOM     35  C   UNL     1       2.205   8.116  17.800  0.00  0.00    +0.000 C 
ENDBRANCH  29  30
ENDBRANCH  24  29
ENDBRANCH  20  25
ENDBRANCH   1  22
TORSDOF 5
ENDMDL
MODEL 8
REMARK VINA RESULT:      -7.6      2.765      5.020
REMARK  Name = 
REMARK  7 active torsions:
REMARK  status: ('A' for Active; 'I' for Inactive)
REMARK    1  A    between atoms: C_1  and  C_2
REMARK    2  A    between atoms: C_2  and  N_3
REMARK    3  A    between atoms: C_2  and  C_28
REMARK    4  A    between atoms: C_4  and  C_6
REMARK    5  A    between atoms: C_8  and  C_9
REMARK    6  A    between atoms: C_10  and  C_11
REMARK    7  A    between atoms: N_32  and  C_33
REMARK                            x       y       z     vdW  Elec       q    Type
REMARK                         _______ _______ _______ _____ _____    ______ ____
ROOT
ATOM      1  C   UNL     1       0.689  12.529  19.297  0.00  0.00    +0.000 A 
ATOM      2  C   UNL     1      -0.550  12.993  18.854  0.00  0.00    +0.000 A 
ATOM      3  N   UNL     1      -0.376  14.343  18.605  0.00  0.00    +0.000 N 
ATOM      4  C   UNL     1       0.902  14.750  18.892  0.00  0.00    +0.000 A 
ATOM      5  C   UNL     1       1.496  16.006  18.732  0.00  0.00    +0.000 A 
ATOM      6  F   UNL     1       0.809  17.026  18.205  0.00  0.00    +0.000 F 
ATOM      7  C   UNL     1       2.821  16.183  19.108  0.00  0.00    +0.000 A 
ATOM      8  C   UNL     1       3.517  15.116  19.638  0.00  0.00    +0.000 A 
ATOM      9  F   UNL     1       4.791  15.283  20.019  0.00  0.00    +0.000 F 
ATOM     10  C   UNL     1       2.935  13.853  19.774  0.00  0.00    +0.000 A 
ATOM     11  C   UNL     1       1.592  13.644  19.387  0.00  0.00    +0.000 A 
ATOM     12  H   UNL     1      -1.080  14.953  18.215  0.00  0.00    +0.000 HD
ENDROOT
BRANCH   2  13
ATOM     13  C   UNL     1      -1.855  12.354  18.595  0.00  0.00    +0.000 A 
ATOM     14  C   UNL     1      -2.914  12.480  19.517  0.00  0.00    +0.000 A 
ATOM     15  C   UNL     1      -4.162  11.896  19.269  0.00  0.00    +0.000 A 
ATOM     16  C   UNL     1      -4.356  11.167  18.106  0.00  0.00    +0.000 A 
ATOM     17  F   UNL     1      -5.548  10.604  17.866  0.00  0.00    +0.000 F 
ATOM     18  C   UNL     1      -3.332  11.023  17.183  0.00  0.00    +0.000 A 
ATOM     19  C   UNL     1      -2.094  11.626  17.423  0.00  0.00    +0.000 A 
ENDBRANCH   2  13
BRANCH   1  22
ATOM     20  C   UNL     1       0.808   8.993  19.002  0.00  0.00    +0.000 C 
ATOM     21  C   UNL     1      -0.030  10.016  19.806  0.00  0.00    +0.000 C 
ATOM     22  C   UNL     1       1.055  11.062  19.518  0.00  0.00    +0.000 C 
ATOM     23  C   UNL     1       1.449  10.221  18.284  0.00  0.00    +0.000 C 
BRANCH  20  25
ATOM     24  N   UNL     1       2.279   7.040  19.078  0.00  0.00    +0.000 N 
ATOM     25  C   UNL     1       1.690   8.025  19.846  0.00  0.00    +0.000 C 
ATOM     26  O   UNL     1       1.847   8.088  21.066  0.00  0.00    +0.000 OA
ATOM     27  H   UNL     1       2.137   7.052  18.076  0.00  0.00    +0.000 HD
BRANCH  24  29
ATOM     28  C   UNL     1       4.262   5.650  18.638  0.00  0.00    +0.000 C 
ATOM     29  C   UNL     1       3.169   6.041  19.630  0.00  0.00    +0.000 C 
BRANCH  29  30
ATOM     30  C   UNL     1       2.340   4.851  19.998  0.00  0.00    +0.000 A 
ATOM     31  C   UNL     1       2.079   4.267  21.228  0.00  0.00    +0.000 A 
ATOM     32  C   UNL     1       1.181   3.222  20.958  0.00  0.00    +0.000 A 
ATOM     33  N   UNL     1       0.899   3.124  19.660  0.00  0.00    +0.000 NA
ATOM     34  N   UNL     1       1.609   4.118  19.094  0.00  0.00    +0.000 N 
ATOM     35  C   UNL     1       1.529   4.308  17.664  0.00  0.00    +0.000 C 
ENDBRANCH  29  30
ENDBRANCH  24  29
ENDBRANCH  20  25
ENDBRANCH   1  22
TORSDOF 5
ENDMDL
MODEL 9
REMARK VINA RESULT:      -7.6      4.364      8.221
REMARK  Name = 
REMARK  7 active torsions:
REMARK  status: ('A' for Active; 'I' for Inactive)
REMARK    1  A    between atoms: C_1  and  C_2
REMARK    2  A    between atoms: C_2  and  N_3
REMARK    3  A    between atoms: C_2  and  C_28
REMARK    4  A    between atoms: C_4  and  C_6
REMARK    5  A    between atoms: C_8  and  C_9
REMARK    6  A    between atoms: C_10  and  C_11
REMARK    7  A    between atoms: N_32  and  C_33
REMARK                            x       y       z     vdW  Elec       q    Type
REMARK                         _______ _______ _______ _____ _____    ______ ____
ROOT
ATOM      1  C   UNL     1      -0.061  12.767  18.668  0.00  0.00    +0.000 A 
ATOM      2  C   UNL     1       1.040  12.011  19.072  0.00  0.00    +0.000 A 
ATOM      3  N   UNL     1       1.969  12.925  19.538  0.00  0.00    +0.000 N 
ATOM      4  C   UNL     1       1.513  14.213  19.424  0.00  0.00    +0.000 A 
ATOM      5  C   UNL     1       2.114  15.411  19.823  0.00  0.00    +0.000 A 
ATOM      6  F   UNL     1       3.300  15.410  20.441  0.00  0.00    +0.000 F 
ATOM      7  C   UNL     1       1.455  16.611  19.591  0.00  0.00    +0.000 A 
ATOM      8  C   UNL     1       0.226  16.592  18.963  0.00  0.00    +0.000 A 
ATOM      9  F   UNL     1      -0.409  17.748  18.720  0.00  0.00    +0.000 F 
ATOM     10  C   UNL     1      -0.390  15.395  18.588  0.00  0.00    +0.000 A 
ATOM     11  C   UNL     1       0.255  14.160  18.825  0.00  0.00    +0.000 A 
ATOM     12  H   UNL     1       2.855  12.683  19.957  0.00  0.00    +0.000 HD
ENDROOT
BRANCH   2  13
ATOM     13  C   UNL     1       1.334  10.565  19.121  0.00  0.00    +0.000 A 
ATOM     14  C   UNL     1       1.120   9.825  20.301  0.00  0.00    +0.000 A 
ATOM     15  C   UNL     1       1.376   8.449  20.348  0.00  0.00    +0.000 A 
ATOM     16  C   UNL     1       1.865   7.806  19.222  0.00  0.00    +0.000 A 
ATOM     17  F   UNL     1       2.115   6.491  19.264  0.00  0.00    +0.000 F 
ATOM     18  C   UNL     1       2.091   8.509  18.049  0.00  0.00    +0.000 A 
ATOM     19  C   UNL     1       1.812   9.878  17.997  0.00  0.00    +0.000 A 
ENDBRANCH   2  13
BRANCH   1  22
ATOM     20  C   UNL     1      -2.666  10.504  17.830  0.00  0.00    +0.000 C 
ATOM     21  C   UNL     1      -1.542  11.241  17.063  0.00  0.00    +0.000 C 
ATOM     22  C   UNL     1      -1.419  12.199  18.257  0.00  0.00    +0.000 C 
ATOM     23  C   UNL     1      -2.033  11.085  19.132  0.00  0.00    +0.000 C 
BRANCH  20  25
ATOM     24  N   UNL     1      -4.964  10.983  18.518  0.00  0.00    +0.000 N 
ATOM     25  C   UNL     1      -4.123  10.882  17.427  0.00  0.00    +0.000 C 
ATOM     26  O   UNL     1      -4.519  11.054  16.273  0.00  0.00    +0.000 OA
ATOM     27  H   UNL     1      -4.579  10.858  19.444  0.00  0.00    +0.000 HD
BRANCH  24  29
ATOM     28  C   UNL     1      -6.521  12.765  17.841  0.00  0.00    +0.000 C 
ATOM     29  C   UNL     1      -6.358  11.353  18.400  0.00  0.00    +0.000 C 
BRANCH  29  30
ATOM     30  C   UNL     1      -6.969  11.252  19.763  0.00  0.00    +0.000 A 
ATOM     31  C   UNL     1      -7.331  12.232  20.674  0.00  0.00    +0.000 A 
ATOM     32  C   UNL     1      -7.917  11.542  21.747  0.00  0.00    +0.000 A 
ATOM     33  N   UNL     1      -7.915  10.223  21.556  0.00  0.00    +0.000 NA
ATOM     34  N   UNL     1      -7.338  10.066  20.350  0.00  0.00    +0.000 N 
ATOM     35  C   UNL     1      -7.180   8.732  19.819  0.00  0.00    +0.000 C 
ENDBRANCH  29  30
ENDBRANCH  24  29
ENDBRANCH  20  25
ENDBRANCH   1  22
TORSDOF 5
ENDMDL
