MODEL 1
REMARK VINA RESULT:      -6.2      0.000      0.000
REMARK  Name = 
REMARK  7 active torsions:
REMARK  status: ('A' for Active; 'I' for Inactive)
REMARK    1  A    between atoms: C_1  and  N_2
REMARK    2  A    between atoms: N_5  and  C_6
REMARK    3  A    between atoms: C_6  and  C_7
REMARK    4  A    between atoms: C_7  and  C_8
REMARK    5  A    between atoms: C_8  and  C_9
REMARK    6  A    between atoms: C_9  and  O_10
REMARK    7  A    between atoms: O_10  and  C_11
REMARK                            x       y       z     vdW  Elec       q    Type
REMARK                         _______ _______ _______ _____ _____    ______ ____
ROOT
ATOM      1  C   UNL     1       8.201   9.218  17.882  0.00  0.00    +0.000 C 
ENDROOT
BRANCH   1   2
ATOM      2  C   UNL     1       9.018   9.811  19.033  0.00  0.00    +0.000 C 
BRANCH   2   3
ATOM      3  C   UNL     1       9.697  11.143  18.679  0.00  0.00    +0.000 C 
BRANCH   3   8
ATOM      4  C   UNL     1      10.892  15.168  17.543  0.00  0.00    +0.000 C 
ATOM      5  N   UNL     1      11.384  14.204  18.521  0.00  0.00    +0.000 NA
ATOM      6  C   UNL     1      11.904  12.986  17.869  0.00  0.00    +0.000 C 
ATOM      7  C   UNL     1      12.059  11.758  18.791  0.00  0.00    +0.000 C 
ATOM      8  N   UNL     1      10.834  11.460  19.562  0.00  0.00    +0.000 NA
ATOM      9  C   UNL     1      10.567  12.664  20.378  0.00  0.00    +0.000 C 
ATOM     10  C   UNL     1      10.349  13.942  19.538  0.00  0.00    +0.000 C 
ENDBRANCH   3   8
ENDBRANCH   2   3
ENDBRANCH   1   2
BRANCH   1  11
ATOM     11  C   UNL     1       8.059   7.716  18.068  0.00  0.00    +0.000 C 
BRANCH  11  12
ATOM     12  O   UNL     1       7.683   7.082  16.852  0.00  0.00    +0.000 OA
BRANCH  12  13
ATOM     13  C   UNL     1       6.710   6.125  16.999  0.00  0.00    +0.000 A 
ATOM     14  C   UNL     1       5.820   5.702  16.005  0.00  0.00    +0.000 A 
ATOM     15  C   UNL     1       4.895   4.692  16.260  0.00  0.00    +0.000 A 
ATOM     16  C   UNL     1       4.856   4.099  17.518  0.00  0.00    +0.000 A 
ATOM     17 BR   UNL     1       3.621   2.710  17.857  0.00  0.00    +0.000 Br
ATOM     18  C   UNL     1       5.723   4.523  18.523  0.00  0.00    +0.000 A 
ATOM     19  C   UNL     1       6.648   5.535  18.260  0.00  0.00    +0.000 A 
ENDBRANCH  12  13
ENDBRANCH  11  12
ENDBRANCH   1  11
TORSDOF 6
ENDMDL
MODEL 2
REMARK VINA RESULT:      -6.2      6.318      8.607
REMARK  Name = 
REMARK  7 active torsions:
REMARK  status: ('A' for Active; 'I' for Inactive)
REMARK    1  A    between atoms: C_1  and  N_2
REMARK    2  A    between atoms: N_5  and  C_6
REMARK    3  A    between atoms: C_6  and  C_7
REMARK    4  A    between atoms: C_7  and  C_8
REMARK    5  A    between atoms: C_8  and  C_9
REMARK    6  A    between atoms: C_9  and  O_10
REMARK    7  A    between atoms: O_10  and  C_11
REMARK                            x       y       z     vdW  Elec       q    Type
REMARK                         _______ _______ _______ _____ _____    ______ ____
ROOT
ATOM      1  C   UNL     1       7.366   5.760  18.290  0.00  0.00    +0.000 C 
ENDROOT
BRANCH   1   2
ATOM      2  C   UNL     1       6.286   5.337  19.289  0.00  0.00    +0.000 C 
BRANCH   2   3
ATOM      3  C   UNL     1       4.913   5.098  18.641  0.00  0.00    +0.000 C 
BRANCH   3   8
ATOM      4  C   UNL     1       0.953   4.170  20.183  0.00  0.00    +0.000 C 
ATOM      5  N   UNL     1       1.967   3.402  19.468  0.00  0.00    +0.000 NA
ATOM      6  C   UNL     1       3.203   3.263  20.263  0.00  0.00    +0.000 C 
ATOM      7  C   UNL     1       4.457   2.844  19.466  0.00  0.00    +0.000 C 
ATOM      8  N   UNL     1       4.689   3.688  18.275  0.00  0.00    +0.000 NA
ATOM      9  C   UNL     1       3.487   3.532  17.428  0.00  0.00    +0.000 C 
ATOM     10  C   UNL     1       2.181   3.973  18.125  0.00  0.00    +0.000 C 
ENDBRANCH   3   8
ENDBRANCH   2   3
ENDBRANCH   1   2
BRANCH   1  11
ATOM     11  C   UNL     1       7.383   4.801  17.111  0.00  0.00    +0.000 C 
BRANCH  11  12
ATOM     12  O   UNL     1       7.670   5.485  15.897  0.00  0.00    +0.000 OA
BRANCH  12  13
ATOM     13  C   UNL     1       7.071   4.935  14.791  0.00  0.00    +0.000 A 
ATOM     14  C   UNL     1       7.585   4.950  13.490  0.00  0.00    +0.000 A 
ATOM     15  C   UNL     1       6.904   4.324  12.448  0.00  0.00    +0.000 A 
ATOM     16  C   UNL     1       5.698   3.679  12.706  0.00  0.00    +0.000 A 
ATOM     17 BR   UNL     1       4.786   2.806  11.300  0.00  0.00    +0.000 Br
ATOM     18  C   UNL     1       5.165   3.672  13.994  0.00  0.00    +0.000 A 
ATOM     19  C   UNL     1       5.853   4.301  15.033  0.00  0.00    +0.000 A 
ENDBRANCH  12  13
ENDBRANCH  11  12
ENDBRANCH   1  11
TORSDOF 6
ENDMDL
MODEL 3
REMARK VINA RESULT:      -6.2      7.424      9.965
REMARK  Name = 
REMARK  7 active torsions:
REMARK  status: ('A' for Active; 'I' for Inactive)
REMARK    1  A    between atoms: C_1  and  N_2
REMARK    2  A    between atoms: N_5  and  C_6
REMARK    3  A    between atoms: C_6  and  C_7
REMARK    4  A    between atoms: C_7  and  C_8
REMARK    5  A    between atoms: C_8  and  C_9
REMARK    6  A    between atoms: C_9  and  O_10
REMARK    7  A    between atoms: O_10  and  C_11
REMARK                            x       y       z     vdW  Elec       q    Type
REMARK                         _______ _______ _______ _____ _____    ______ ____
ROOT
ATOM      1  C   UNL     1       4.890   6.312  16.871  0.00  0.00    +0.000 C 
ENDROOT
BRANCH   1   2
ATOM      2  C   UNL     1       4.643   4.830  16.578  0.00  0.00    +0.000 C 
BRANCH   2   3
ATOM      3  C   UNL     1       3.920   4.093  17.716  0.00  0.00    +0.000 C 
BRANCH   3   8
ATOM      4  C   UNL     1       1.976   2.850  21.403  0.00  0.00    +0.000 C 
ATOM      5  N   UNL     1       1.632   2.740  19.990  0.00  0.00    +0.000 NA
ATOM      6  C   UNL     1       2.601   1.901  19.258  0.00  0.00    +0.000 C 
ATOM      7  C   UNL     1       2.577   2.052  17.722  0.00  0.00    +0.000 C 
ATOM      8  N   UNL     1       2.661   3.460  17.281  0.00  0.00    +0.000 NA
ATOM      9  C   UNL     1       1.484   4.138  17.866  0.00  0.00    +0.000 C 
ATOM     10  C   UNL     1       1.444   4.083  19.409  0.00  0.00    +0.000 C 
ENDBRANCH   3   8
ENDBRANCH   2   3
ENDBRANCH   1   2
BRANCH   1  11
ATOM     11  C   UNL     1       4.022   6.760  18.037  0.00  0.00    +0.000 C 
BRANCH  11  12
ATOM     12  O   UNL     1       2.965   7.602  17.596  0.00  0.00    +0.000 OA
BRANCH  12  13
ATOM     13  C   UNL     1       2.215   8.137  18.613  0.00  0.00    +0.000 A 
ATOM     14  C   UNL     1       2.083   7.604  19.901  0.00  0.00    +0.000 A 
ATOM     15  C   UNL     1       1.321   8.258  20.867  0.00  0.00    +0.000 A 
ATOM     16  C   UNL     1       0.681   9.451  20.545  0.00  0.00    +0.000 A 
ATOM     17 BR   UNL     1      -0.332  10.351  21.862  0.00  0.00    +0.000 Br
ATOM     18  C   UNL     1       0.787   9.982  19.261  0.00  0.00    +0.000 A 
ATOM     19  C   UNL     1       1.554   9.324  18.299  0.00  0.00    +0.000 A 
ENDBRANCH  12  13
ENDBRANCH  11  12
ENDBRANCH   1  11
TORSDOF 6
ENDMDL
MODEL 4
REMARK VINA RESULT:      -6.2      6.825      8.251
REMARK  Name = 
REMARK  7 active torsions:
REMARK  status: ('A' for Active; 'I' for Inactive)
REMARK    1  A    between atoms: C_1  and  N_2
REMARK    2  A    between atoms: N_5  and  C_6
REMARK    3  A    between atoms: C_6  and  C_7
REMARK    4  A    between atoms: C_7  and  C_8
REMARK    5  A    between atoms: C_8  and  C_9
REMARK    6  A    between atoms: C_9  and  O_10
REMARK    7  A    between atoms: O_10  and  C_11
REMARK                            x       y       z     vdW  Elec       q    Type
REMARK                         _______ _______ _______ _____ _____    ______ ____
ROOT
ATOM      1  C   UNL     1       2.824   3.984  19.395  0.00  0.00    +0.000 C 
ENDROOT
BRANCH   1   2
ATOM      2  C   UNL     1       3.152   3.837  17.907  0.00  0.00    +0.000 C 
BRANCH   2   3
ATOM      3  C   UNL     1       4.659   3.747  17.618  0.00  0.00    +0.000 C 
BRANCH   3   8
ATOM      4  C   UNL     1       6.949   4.870  14.095  0.00  0.00    +0.000 C 
ATOM      5  N   UNL     1       6.822   5.424  15.439  0.00  0.00    +0.000 NA
ATOM      6  C   UNL     1       7.314   4.482  16.462  0.00  0.00    +0.000 C 
ATOM      7  C   UNL     1       6.855   4.778  17.907  0.00  0.00    +0.000 C 
ATOM      8  N   UNL     1       5.393   4.961  18.020  0.00  0.00    +0.000 NA
ATOM      9  C   UNL     1       5.061   6.108  17.147  0.00  0.00    +0.000 C 
ATOM     10  C   UNL     1       5.440   5.887  15.666  0.00  0.00    +0.000 C 
ENDBRANCH   3   8
ENDBRANCH   2   3
ENDBRANCH   1   2
BRANCH   1  11
ATOM     11  C   UNL     1       1.966   5.220  19.616  0.00  0.00    +0.000 C 
BRANCH  11  12
ATOM     12  O   UNL     1       2.772   6.375  19.815  0.00  0.00    +0.000 OA
BRANCH  12  13
ATOM     13  C   UNL     1       2.143   7.555  19.507  0.00  0.00    +0.000 A 
ATOM     14  C   UNL     1       2.108   8.159  18.245  0.00  0.00    +0.000 A 
ATOM     15  C   UNL     1       1.403   9.344  18.043  0.00  0.00    +0.000 A 
ATOM     16  C   UNL     1       0.729   9.933  19.108  0.00  0.00    +0.000 A 
ATOM     17 BR   UNL     1      -0.249  11.525  18.829  0.00  0.00    +0.000 Br
ATOM     18  C   UNL     1       0.772   9.353  20.375  0.00  0.00    +0.000 A 
ATOM     19  C   UNL     1       1.479   8.165  20.570  0.00  0.00    +0.000 A 
ENDBRANCH  12  13
ENDBRANCH  11  12
ENDBRANCH   1  11
TORSDOF 6
ENDMDL
MODEL 5
REMARK VINA RESULT:      -6.2      6.461      8.710
REMARK  Name = 
REMARK  7 active torsions:
REMARK  status: ('A' for Active; 'I' for Inactive)
REMARK    1  A    between atoms: C_1  and  N_2
REMARK    2  A    between atoms: N_5  and  C_6
REMARK    3  A    between atoms: C_6  and  C_7
REMARK    4  A    between atoms: C_7  and  C_8
REMARK    5  A    between atoms: C_8  and  C_9
REMARK    6  A    between atoms: C_9  and  O_10
REMARK    7  A    between atoms: O_10  and  C_11
REMARK                            x       y       z     vdW  Elec       q    Type
REMARK                         _______ _______ _______ _____ _____    ______ ____
ROOT
ATOM      1  C   UNL     1       6.494   5.762  18.440  0.00  0.00    +0.000 C 
ENDROOT
BRANCH   1   2
ATOM      2  C   UNL     1       5.396   5.166  19.324  0.00  0.00    +0.000 C 
BRANCH   2   3
ATOM      3  C   UNL     1       4.254   4.516  18.526  0.00  0.00    +0.000 C 
BRANCH   3   8
ATOM      4  C   UNL     1       1.278   2.775  21.177  0.00  0.00    +0.000 C 
ATOM      5  N   UNL     1       1.287   3.929  20.284  0.00  0.00    +0.000 NA
ATOM      6  C   UNL     1       1.458   3.523  18.875  0.00  0.00    +0.000 C 
ATOM      7  C   UNL     1       1.893   4.650  17.912  0.00  0.00    +0.000 C 
ATOM      8  N   UNL     1       3.076   5.393  18.394  0.00  0.00    +0.000 NA
ATOM      9  C   UNL     1       2.685   5.975  19.696  0.00  0.00    +0.000 C 
ATOM     10  C   UNL     1       2.278   4.919  20.746  0.00  0.00    +0.000 C 
ENDBRANCH   3   8
ENDBRANCH   2   3
ENDBRANCH   1   2
BRANCH   1  11
ATOM     11  C   UNL     1       7.013   4.707  17.476  0.00  0.00    +0.000 C 
BRANCH  11  12
ATOM     12  O   UNL     1       7.543   5.304  16.299  0.00  0.00    +0.000 OA
BRANCH  12  13
ATOM     13  C   UNL     1       6.979   4.843  15.136  0.00  0.00    +0.000 A 
ATOM     14  C   UNL     1       7.558   4.908  13.863  0.00  0.00    +0.000 A 
ATOM     15  C   UNL     1       6.904   4.371  12.756  0.00  0.00    +0.000 A 
ATOM     16  C   UNL     1       5.661   3.767  12.918  0.00  0.00    +0.000 A 
ATOM     17 BR   UNL     1       4.786   3.015  11.423  0.00  0.00    +0.000 Br
ATOM     18  C   UNL     1       5.064   3.713  14.177  0.00  0.00    +0.000 A 
ATOM     19  C   UNL     1       5.725   4.251  15.282  0.00  0.00    +0.000 A 
ENDBRANCH  12  13
ENDBRANCH  11  12
ENDBRANCH   1  11
TORSDOF 6
ENDMDL
MODEL 6
REMARK VINA RESULT:      -6.1      7.724     10.007
REMARK  Name = 
REMARK  7 active torsions:
REMARK  status: ('A' for Active; 'I' for Inactive)
REMARK    1  A    between atoms: C_1  and  N_2
REMARK    2  A    between atoms: N_5  and  C_6
REMARK    3  A    between atoms: C_6  and  C_7
REMARK    4  A    between atoms: C_7  and  C_8
REMARK    5  A    between atoms: C_8  and  C_9
REMARK    6  A    between atoms: C_9  and  O_10
REMARK    7  A    between atoms: O_10  and  C_11
REMARK                            x       y       z     vdW  Elec       q    Type
REMARK                         _______ _______ _______ _____ _____    ______ ____
ROOT
ATOM      1  C   UNL     1       5.056   4.698  17.578  0.00  0.00    +0.000 C 
ENDROOT
BRANCH   1   2
ATOM      2  C   UNL     1       3.981   4.005  16.737  0.00  0.00    +0.000 C 
BRANCH   2   3
ATOM      3  C   UNL     1       2.680   3.734  17.508  0.00  0.00    +0.000 C 
BRANCH   3   8
ATOM      4  C   UNL     1       2.189   3.556  21.826  0.00  0.00    +0.000 C 
ATOM      5  N   UNL     1       2.197   2.554  20.766  0.00  0.00    +0.000 NA
ATOM      6  C   UNL     1       3.508   2.486  20.093  0.00  0.00    +0.000 C 
ATOM      7  C   UNL     1       3.510   1.781  18.719  0.00  0.00    +0.000 C 
ATOM      8  N   UNL     1       2.475   2.305  17.803  0.00  0.00    +0.000 NA
ATOM      9  C   UNL     1       1.181   2.071  18.480  0.00  0.00    +0.000 C 
ATOM     10  C   UNL     1       1.064   2.780  19.848  0.00  0.00    +0.000 C 
ENDBRANCH   3   8
ENDBRANCH   2   3
ENDBRANCH   1   2
BRANCH   1  11
ATOM     11  C   UNL     1       4.418   5.762  18.458  0.00  0.00    +0.000 C 
BRANCH  11  12
ATOM     12  O   UNL     1       3.652   6.677  17.684  0.00  0.00    +0.000 OA
BRANCH  12  13
ATOM     13  C   UNL     1       2.789   7.447  18.422  0.00  0.00    +0.000 A 
ATOM     14  C   UNL     1       2.352   7.171  19.723  0.00  0.00    +0.000 A 
ATOM     15  C   UNL     1       1.500   8.049  20.389  0.00  0.00    +0.000 A 
ATOM     16  C   UNL     1       1.078   9.212  19.753  0.00  0.00    +0.000 A 
ATOM     17 BR   UNL     1      -0.056  10.416  20.665  0.00  0.00    +0.000 Br
ATOM     18  C   UNL     1       1.488   9.490  18.450  0.00  0.00    +0.000 A 
ATOM     19  C   UNL     1       2.343   8.606  17.789  0.00  0.00    +0.000 A 
ENDBRANCH  12  13
ENDBRANCH  11  12
ENDBRANCH   1  11
TORSDOF 6
ENDMDL
MODEL 7
REMARK VINA RESULT:      -6.1      6.746      8.336
REMARK  Name = 
REMARK  7 active torsions:
REMARK  status: ('A' for Active; 'I' for Inactive)
REMARK    1  A    between atoms: C_1  and  N_2
REMARK    2  A    between atoms: N_5  and  C_6
REMARK    3  A    between atoms: C_6  and  C_7
REMARK    4  A    between atoms: C_7  and  C_8
REMARK    5  A    between atoms: C_8  and  C_9
REMARK    6  A    between atoms: C_9  and  O_10
REMARK    7  A    between atoms: O_10  and  C_11
REMARK                            x       y       z     vdW  Elec       q    Type
REMARK                         _______ _______ _______ _____ _____    ______ ____
ROOT
ATOM      1  C   UNL     1       1.977   4.208  18.827  0.00  0.00    +0.000 C 
ENDROOT
BRANCH   1   2
ATOM      2  C   UNL     1       3.458   3.847  18.680  0.00  0.00    +0.000 C 
BRANCH   2   3
ATOM      3  C   UNL     1       4.117   4.463  17.435  0.00  0.00    +0.000 C 
BRANCH   3   8
ATOM      4  C   UNL     1       6.776   4.638  13.998  0.00  0.00    +0.000 C 
ATOM      5  N   UNL     1       6.711   5.357  15.265  0.00  0.00    +0.000 NA
ATOM      6  C   UNL     1       6.924   4.455  16.414  0.00  0.00    +0.000 C 
ATOM      7  C   UNL     1       6.472   5.010  17.782  0.00  0.00    +0.000 C 
ATOM      8  N   UNL     1       5.086   5.523  17.766  0.00  0.00    +0.000 NA
ATOM      9  C   UNL     1       5.068   6.607  16.759  0.00  0.00    +0.000 C 
ATOM     10  C   UNL     1       5.461   6.137  15.341  0.00  0.00    +0.000 C 
ENDBRANCH   3   8
ENDBRANCH   2   3
ENDBRANCH   1   2
BRANCH   1  11
ATOM     11  C   UNL     1       1.771   5.050  20.076  0.00  0.00    +0.000 C 
BRANCH  11  12
ATOM     12  O   UNL     1       2.669   6.153  20.105  0.00  0.00    +0.000 OA
BRANCH  12  13
ATOM     13  C   UNL     1       2.068   7.368  19.894  0.00  0.00    +0.000 A 
ATOM     14  C   UNL     1       1.396   8.128  20.859  0.00  0.00    +0.000 A 
ATOM     15  C   UNL     1       0.856   9.371  20.536  0.00  0.00    +0.000 A 
ATOM     16  C   UNL     1       0.983   9.860  19.240  0.00  0.00    +0.000 A 
ATOM     17 BR   UNL     1       0.273  11.556  18.807  0.00  0.00    +0.000 Br
ATOM     18  C   UNL     1       1.632   9.105  18.264  0.00  0.00    +0.000 A 
ATOM     19  C   UNL     1       2.173   7.861  18.594  0.00  0.00    +0.000 A 
ENDBRANCH  12  13
ENDBRANCH  11  12
ENDBRANCH   1  11
TORSDOF 6
ENDMDL
MODEL 8
REMARK VINA RESULT:      -6.1      6.178      8.783
REMARK  Name = 
REMARK  7 active torsions:
REMARK  status: ('A' for Active; 'I' for Inactive)
REMARK    1  A    between atoms: C_1  and  N_2
REMARK    2  A    between atoms: N_5  and  C_6
REMARK    3  A    between atoms: C_6  and  C_7
REMARK    4  A    between atoms: C_7  and  C_8
REMARK    5  A    between atoms: C_8  and  C_9
REMARK    6  A    between atoms: C_9  and  O_10
REMARK    7  A    between atoms: O_10  and  C_11
REMARK                            x       y       z     vdW  Elec       q    Type
REMARK                         _______ _______ _______ _____ _____    ______ ____
ROOT
ATOM      1  C   UNL     1       5.863   6.424  17.805  0.00  0.00    +0.000 C 
ENDROOT
BRANCH   1   2
ATOM      2  C   UNL     1       5.511   5.575  19.030  0.00  0.00    +0.000 C 
BRANCH   2   3
ATOM      3  C   UNL     1       3.999   5.380  19.225  0.00  0.00    +0.000 C 
BRANCH   3   8
ATOM      4  C   UNL     1       1.584   2.699  21.653  0.00  0.00    +0.000 C 
ATOM      5  N   UNL     1       1.881   2.783  20.227  0.00  0.00    +0.000 NA
ATOM      6  C   UNL     1       3.315   2.566  19.957  0.00  0.00    +0.000 C 
ATOM      7  C   UNL     1       3.804   3.034  18.569  0.00  0.00    +0.000 C 
ATOM      8  N   UNL     1       3.416   4.427  18.263  0.00  0.00    +0.000 NA
ATOM      9  C   UNL     1       1.938   4.453  18.304  0.00  0.00    +0.000 C 
ATOM     10  C   UNL     1       1.351   4.044  19.674  0.00  0.00    +0.000 C 
ENDBRANCH   3   8
ENDBRANCH   2   3
ENDBRANCH   1   2
BRANCH   1  11
ATOM     11  C   UNL     1       7.340   6.273  17.478  0.00  0.00    +0.000 C 
BRANCH  11  12
ATOM     12  O   UNL     1       7.630   4.962  17.009  0.00  0.00    +0.000 OA
BRANCH  12  13
ATOM     13  C   UNL     1       7.077   4.670  15.788  0.00  0.00    +0.000 A 
ATOM     14  C   UNL     1       7.535   5.132  14.549  0.00  0.00    +0.000 A 
ATOM     15  C   UNL     1       6.913   4.737  13.366  0.00  0.00    +0.000 A 
ATOM     16  C   UNL     1       5.821   3.876  13.420  0.00  0.00    +0.000 A 
ATOM     17 BR   UNL     1       4.992   3.319  11.817  0.00  0.00    +0.000 Br
ATOM     18  C   UNL     1       5.341   3.424  14.648  0.00  0.00    +0.000 A 
ATOM     19  C   UNL     1       5.970   3.822  15.828  0.00  0.00    +0.000 A 
ENDBRANCH  12  13
ENDBRANCH  11  12
ENDBRANCH   1  11
TORSDOF 6
ENDMDL
MODEL 9
REMARK VINA RESULT:      -6.0      7.376      9.652
REMARK  Name = 
REMARK  7 active torsions:
REMARK  status: ('A' for Active; 'I' for Inactive)
REMARK    1  A    between atoms: C_1  and  N_2
REMARK    2  A    between atoms: N_5  and  C_6
REMARK    3  A    between atoms: C_6  and  C_7
REMARK    4  A    between atoms: C_7  and  C_8
REMARK    5  A    between atoms: C_8  and  C_9
REMARK    6  A    between atoms: C_9  and  O_10
REMARK    7  A    between atoms: O_10  and  C_11
REMARK                            x       y       z     vdW  Elec       q    Type
REMARK                         _______ _______ _______ _____ _____    ______ ____
ROOT
ATOM      1  C   UNL     1       2.087   4.143  21.535  0.00  0.00    +0.000 C 
ENDROOT
BRANCH   1   2
ATOM      2  C   UNL     1       1.852   2.751  20.943  0.00  0.00    +0.000 C 
BRANCH   2   3
ATOM      3  C   UNL     1       2.038   2.695  19.418  0.00  0.00    +0.000 C 
BRANCH   3   8
ATOM      4  C   UNL     1       4.896   5.430  17.611  0.00  0.00    +0.000 C 
ATOM      5  N   UNL     1       4.875   3.988  17.832  0.00  0.00    +0.000 NA
ATOM      6  C   UNL     1       3.783   3.339  17.081  0.00  0.00    +0.000 C 
ATOM      7  C   UNL     1       3.411   1.916  17.553  0.00  0.00    +0.000 C 
ATOM      8  N   UNL     1       3.167   1.840  19.009  0.00  0.00    +0.000 NA
ATOM      9  C   UNL     1       4.428   2.264  19.654  0.00  0.00    +0.000 C 
ATOM     10  C   UNL     1       4.861   3.699  19.279  0.00  0.00    +0.000 C 
ENDBRANCH   3   8
ENDBRANCH   2   3
ENDBRANCH   1   2
BRANCH   1  11
ATOM     11  C   UNL     1       1.530   5.204  20.598  0.00  0.00    +0.000 C 
BRANCH  11  12
ATOM     12  O   UNL     1       2.554   6.089  20.160  0.00  0.00    +0.000 OA
BRANCH  12  13
ATOM     13  C   UNL     1       2.100   7.332  19.797  0.00  0.00    +0.000 A 
ATOM     14  C   UNL     1       2.261   7.929  18.542  0.00  0.00    +0.000 A 
ATOM     15  C   UNL     1       1.722   9.186  18.276  0.00  0.00    +0.000 A 
ATOM     16  C   UNL     1       1.018   9.856  19.273  0.00  0.00    +0.000 A 
ATOM     17 BR   UNL     1       0.265  11.549  18.907  0.00  0.00    +0.000 Br
ATOM     18  C   UNL     1       0.867   9.282  20.534  0.00  0.00    +0.000 A 
ATOM     19  C   UNL     1       1.408   8.022  20.792  0.00  0.00    +0.000 A 
ENDBRANCH  12  13
ENDBRANCH  11  12
ENDBRANCH   1  11
TORSDOF 6
ENDMDL
