MODEL 1
REMARK VINA RESULT:      -7.9      0.000      0.000
REMARK  Name = 
REMARK  5 active torsions:
REMARK  status: ('A' for Active; 'I' for Inactive)
REMARK    1  A    between atoms: C_2  and  C_11
REMARK    2  A    between atoms: N_3  and  C_4
REMARK    3  A    between atoms: C_4  and  C_5
REMARK    4  A    between atoms: C_16  and  C_17
REMARK    5  A    between atoms: C_20  and  C_21
REMARK                            x       y       z     vdW  Elec       q    Type
REMARK                         _______ _______ _______ _____ _____    ______ ____
ROOT
ATOM      1  C   UNL     1       2.099   4.199  19.568  0.00  0.00    +0.000 A 
ATOM      2  C   UNL     1       1.124   3.180  19.671  0.00  0.00    +0.000 A 
ATOM      3  C   UNL     1       1.078   2.144  18.739  0.00  0.00    +0.000 A 
ATOM      4  C   UNL     1       1.999   2.121  17.694  0.00  0.00    +0.000 A 
ATOM      5  C   UNL     1       2.987   3.097  17.611  0.00  0.00    +0.000 A 
ATOM      6  C   UNL     1       3.089   4.141  18.553  0.00  0.00    +0.000 A 
ENDROOT
BRANCH   6   7
ATOM      7  C   UNL     1       4.226   5.103  18.427  0.00  0.00    +0.000 A 
ATOM      8  C   UNL     1       5.430   4.904  19.120  0.00  0.00    +0.000 A 
ATOM      9  C   UNL     1       6.534   5.737  18.911  0.00  0.00    +0.000 A 
ATOM     10  C   UNL     1       6.483   6.765  17.968  0.00  0.00    +0.000 A 
ATOM     11  C   UNL     1       5.294   6.982  17.276  0.00  0.00    +0.000 A 
ATOM     12  C   UNL     1       4.167   6.213  17.558  0.00  0.00    +0.000 A 
BRANCH  10  13
ATOM     13  C   UNL     1       7.674   7.642  17.697  0.00  0.00    +0.000 C 
ATOM     14  F   UNL     1       7.382   8.971  17.699  0.00  0.00    +0.000 F 
ATOM     15  F   UNL     1       8.661   7.472  18.622  0.00  0.00    +0.000 F 
ATOM     16  F   UNL     1       8.244   7.383  16.489  0.00  0.00    +0.000 F 
ENDBRANCH  10  13
ENDBRANCH   6   7
BRANCH   1  18
ATOM     17  O   UNL     1       2.313   5.125  21.742  0.00  0.00    +0.000 OA
ATOM     18  C   UNL     1       1.980   5.298  20.575  0.00  0.00    +0.000 C 
ATOM     19  N   UNL     1       1.488   6.493  20.087  0.00  0.00    +0.000 N 
ATOM     20  H   UNL     1       1.202   6.543  19.119  0.00  0.00    +0.000 HD
BRANCH  19  21
ATOM     21  C   UNL     1       1.553   7.747  20.804  0.00  0.00    +0.000 C 
BRANCH  21  22
ATOM     22  C   UNL     1       0.202   8.446  20.726  0.00  0.00    +0.000 C 
ATOM     23  C   UNL     1       0.295   9.857  20.110  0.00  0.00    +0.000 C 
ATOM     24  C   UNL     1       0.892  10.886  21.071  0.00  0.00    +0.000 C 
ATOM     25  N   UNL     1       0.183  10.912  22.349  0.00  0.00    +0.000 NA
ATOM     26  C   UNL     1       0.185   9.596  22.990  0.00  0.00    +0.000 C 
ATOM     27  C   UNL     1      -0.464   8.537  22.099  0.00  0.00    +0.000 C 
ATOM     28  H   UNL     1      -0.784  11.197  22.187  0.00  0.00    +0.000 HD
ENDBRANCH  21  22
ENDBRANCH  19  21
ENDBRANCH   1  18
TORSDOF 5
ENDMDL
MODEL 2
REMARK VINA RESULT:      -7.8      0.523      1.301
REMARK  Name = 
REMARK  5 active torsions:
REMARK  status: ('A' for Active; 'I' for Inactive)
REMARK    1  A    between atoms: C_2  and  C_11
REMARK    2  A    between atoms: N_3  and  C_4
REMARK    3  A    between atoms: C_4  and  C_5
REMARK    4  A    between atoms: C_16  and  C_17
REMARK    5  A    between atoms: C_20  and  C_21
REMARK                            x       y       z     vdW  Elec       q    Type
REMARK                         _______ _______ _______ _____ _____    ______ ____
ROOT
ATOM      1  C   UNL     1       2.233   4.379  19.268  0.00  0.00    +0.000 A 
ATOM      2  C   UNL     1       1.200   3.441  19.492  0.00  0.00    +0.000 A 
ATOM      3  C   UNL     1       1.142   2.258  18.757  0.00  0.00    +0.000 A 
ATOM      4  C   UNL     1       2.110   2.006  17.787  0.00  0.00    +0.000 A 
ATOM      5  C   UNL     1       3.154   2.906  17.590  0.00  0.00    +0.000 A 
ATOM      6  C   UNL     1       3.267   4.097  18.338  0.00  0.00    +0.000 A 
ENDROOT
BRANCH   6   7
ATOM      7  C   UNL     1       4.459   4.969  18.109  0.00  0.00    +0.000 A 
ATOM      8  C   UNL     1       4.454   5.968  17.123  0.00  0.00    +0.000 A 
ATOM      9  C   UNL     1       5.521   6.860  16.989  0.00  0.00    +0.000 A 
ATOM     10  C   UNL     1       6.606   6.812  17.866  0.00  0.00    +0.000 A 
ATOM     11  C   UNL     1       6.632   5.823  18.847  0.00  0.00    +0.000 A 
ATOM     12  C   UNL     1       5.613   4.875  18.915  0.00  0.00    +0.000 A 
BRANCH  10  13
ATOM     13  C   UNL     1       7.742   7.792  17.766  0.00  0.00    +0.000 C 
ATOM     14  F   UNL     1       8.432   7.705  16.596  0.00  0.00    +0.000 F 
ATOM     15  F   UNL     1       7.318   9.084  17.858  0.00  0.00    +0.000 F 
ATOM     16  F   UNL     1       8.658   7.627  18.757  0.00  0.00    +0.000 F 
ENDBRANCH  10  13
ENDBRANCH   6   7
BRANCH   1  18
ATOM     17  O   UNL     1       2.306   5.652  21.269  0.00  0.00    +0.000 OA
ATOM     18  C   UNL     1       2.126   5.646  20.056  0.00  0.00    +0.000 C 
ATOM     19  N   UNL     1       1.827   6.775  19.319  0.00  0.00    +0.000 N 
ATOM     20  H   UNL     1       1.657   6.679  18.328  0.00  0.00    +0.000 HD
BRANCH  19  21
ATOM     21  C   UNL     1       1.950   8.125  19.823  0.00  0.00    +0.000 C 
BRANCH  21  22
ATOM     22  C   UNL     1       0.562   8.710  20.050  0.00  0.00    +0.000 C 
ATOM     23  C   UNL     1       0.489  10.215  19.723  0.00  0.00    +0.000 C 
ATOM     24  C   UNL     1       1.147  11.088  20.793  0.00  0.00    +0.000 C 
ATOM     25  N   UNL     1       0.617  10.808  22.125  0.00  0.00    +0.000 NA
ATOM     26  C   UNL     1       0.782   9.399  22.484  0.00  0.00    +0.000 C 
ATOM     27  C   UNL     1       0.082   8.480  21.483  0.00  0.00    +0.000 C 
ATOM     28  H   UNL     1      -0.378  11.038  22.141  0.00  0.00    +0.000 HD
ENDBRANCH  21  22
ENDBRANCH  19  21
ENDBRANCH   1  18
TORSDOF 5
ENDMDL
MODEL 3
REMARK VINA RESULT:      -7.7      3.491      6.103
REMARK  Name = 
REMARK  5 active torsions:
REMARK  status: ('A' for Active; 'I' for Inactive)
REMARK    1  A    between atoms: C_2  and  C_11
REMARK    2  A    between atoms: N_3  and  C_4
REMARK    3  A    between atoms: C_4  and  C_5
REMARK    4  A    between atoms: C_16  and  C_17
REMARK    5  A    between atoms: C_20  and  C_21
REMARK                            x       y       z     vdW  Elec       q    Type
REMARK                         _______ _______ _______ _____ _____    ______ ____
ROOT
ATOM      1  C   UNL     1       3.670   3.863  18.922  0.00  0.00    +0.000 A 
ATOM      2  C   UNL     1       3.711   2.453  18.821  0.00  0.00    +0.000 A 
ATOM      3  C   UNL     1       2.536   1.704  18.852  0.00  0.00    +0.000 A 
ATOM      4  C   UNL     1       1.312   2.355  18.992  0.00  0.00    +0.000 A 
ATOM      5  C   UNL     1       1.261   3.745  19.050  0.00  0.00    +0.000 A 
ATOM      6  C   UNL     1       2.425   4.540  18.987  0.00  0.00    +0.000 A 
ENDROOT
BRANCH   6   7
ATOM      7  C   UNL     1       2.270   6.026  18.983  0.00  0.00    +0.000 A 
ATOM      8  C   UNL     1       2.364   6.766  17.794  0.00  0.00    +0.000 A 
ATOM      9  C   UNL     1       2.102   8.139  17.772  0.00  0.00    +0.000 A 
ATOM     10  C   UNL     1       1.691   8.806  18.928  0.00  0.00    +0.000 A 
ATOM     11  C   UNL     1       1.598   8.089  20.119  0.00  0.00    +0.000 A 
ATOM     12  C   UNL     1       1.955   6.743  20.156  0.00  0.00    +0.000 A 
BRANCH  10  13
ATOM     13  C   UNL     1       1.361  10.273  18.913  0.00  0.00    +0.000 C 
ATOM     14  F   UNL     1       1.317  10.832  20.154  0.00  0.00    +0.000 F 
ATOM     15  F   UNL     1       2.270  11.000  18.205  0.00  0.00    +0.000 F 
ATOM     16  F   UNL     1       0.153  10.526  18.342  0.00  0.00    +0.000 F 
ENDBRANCH  10  13
ENDBRANCH   6   7
BRANCH   1  18
ATOM     17  O   UNL     1       5.282   5.325  19.867  0.00  0.00    +0.000 OA
ATOM     18  C   UNL     1       5.004   4.537  18.970  0.00  0.00    +0.000 C 
ATOM     19  N   UNL     1       5.873   4.197  17.952  0.00  0.00    +0.000 N 
ATOM     20  H   UNL     1       5.554   3.567  17.229  0.00  0.00    +0.000 HD
BRANCH  19  21
ATOM     21  C   UNL     1       7.286   4.507  17.958  0.00  0.00    +0.000 C 
BRANCH  21  22
ATOM     22  C   UNL     1       7.624   5.357  16.741  0.00  0.00    +0.000 C 
ATOM     23  C   UNL     1       7.330   6.855  16.959  0.00  0.00    +0.000 C 
ATOM     24  C   UNL     1       5.837   7.180  16.904  0.00  0.00    +0.000 C 
ATOM     25  N   UNL     1       5.219   6.692  15.673  0.00  0.00    +0.000 NA
ATOM     26  C   UNL     1       5.403   5.249  15.515  0.00  0.00    +0.000 C 
ATOM     27  C   UNL     1       6.885   4.872  15.494  0.00  0.00    +0.000 C 
ATOM     28  H   UNL     1       5.645   7.168  14.876  0.00  0.00    +0.000 HD
ENDBRANCH  21  22
ENDBRANCH  19  21
ENDBRANCH   1  18
TORSDOF 5
ENDMDL
MODEL 4
REMARK VINA RESULT:      -7.6      1.599      2.146
REMARK  Name = 
REMARK  5 active torsions:
REMARK  status: ('A' for Active; 'I' for Inactive)
REMARK    1  A    between atoms: C_2  and  C_11
REMARK    2  A    between atoms: N_3  and  C_4
REMARK    3  A    between atoms: C_4  and  C_5
REMARK    4  A    between atoms: C_16  and  C_17
REMARK    5  A    between atoms: C_20  and  C_21
REMARK                            x       y       z     vdW  Elec       q    Type
REMARK                         _______ _______ _______ _____ _____    ______ ____
ROOT
ATOM      1  C   UNL     1       2.175   4.572  19.065  0.00  0.00    +0.000 A 
ATOM      2  C   UNL     1       1.129   3.652  19.303  0.00  0.00    +0.000 A 
ATOM      3  C   UNL     1       1.148   2.387  18.717  0.00  0.00    +0.000 A 
ATOM      4  C   UNL     1       2.206   2.035  17.881  0.00  0.00    +0.000 A 
ATOM      5  C   UNL     1       3.260   2.921  17.675  0.00  0.00    +0.000 A 
ATOM      6  C   UNL     1       3.295   4.196  18.279  0.00  0.00    +0.000 A 
ENDROOT
BRANCH   6   7
ATOM      7  C   UNL     1       4.499   5.052  18.060  0.00  0.00    +0.000 A 
ATOM      8  C   UNL     1       4.536   6.011  17.034  0.00  0.00    +0.000 A 
ATOM      9  C   UNL     1       5.613   6.892  16.903  0.00  0.00    +0.000 A 
ATOM     10  C   UNL     1       6.664   6.875  17.822  0.00  0.00    +0.000 A 
ATOM     11  C   UNL     1       6.648   5.928  18.843  0.00  0.00    +0.000 A 
ATOM     12  C   UNL     1       5.622   4.987  18.911  0.00  0.00    +0.000 A 
BRANCH  10  13
ATOM     13  C   UNL     1       7.809   7.846  17.724  0.00  0.00    +0.000 C 
ATOM     14  F   UNL     1       8.519   7.733  16.569  0.00  0.00    +0.000 F 
ATOM     15  F   UNL     1       7.392   9.142  17.785  0.00  0.00    +0.000 F 
ATOM     16  F   UNL     1       8.706   7.693  18.735  0.00  0.00    +0.000 F 
ENDBRANCH  10  13
ENDBRANCH   6   7
BRANCH   1  18
ATOM     17  O   UNL     1       1.949   6.065  20.895  0.00  0.00    +0.000 OA
ATOM     18  C   UNL     1       1.986   5.923  19.678  0.00  0.00    +0.000 C 
ATOM     19  N   UNL     1       1.873   6.967  18.781  0.00  0.00    +0.000 N 
ATOM     20  H   UNL     1       1.877   6.761  17.791  0.00  0.00    +0.000 HD
BRANCH  19  21
ATOM     21  C   UNL     1       1.965   8.363  19.149  0.00  0.00    +0.000 C 
BRANCH  21  22
ATOM     22  C   UNL     1       1.538   9.227  17.970  0.00  0.00    +0.000 C 
ATOM     23  C   UNL     1       2.178  10.630  17.995  0.00  0.00    +0.000 C 
ATOM     24  C   UNL     1       1.544  11.552  19.038  0.00  0.00    +0.000 C 
ATOM     25  N   UNL     1       0.094  11.634  18.882  0.00  0.00    +0.000 NA
ATOM     26  C   UNL     1      -0.531  10.313  18.965  0.00  0.00    +0.000 C 
ATOM     27  C   UNL     1       0.017   9.366  17.897  0.00  0.00    +0.000 C 
ATOM     28  H   UNL     1      -0.120  12.043  17.971  0.00  0.00    +0.000 HD
ENDBRANCH  21  22
ENDBRANCH  19  21
ENDBRANCH   1  18
TORSDOF 5
ENDMDL
MODEL 5
REMARK VINA RESULT:      -7.6      3.617      6.476
REMARK  Name = 
REMARK  5 active torsions:
REMARK  status: ('A' for Active; 'I' for Inactive)
REMARK    1  A    between atoms: C_2  and  C_11
REMARK    2  A    between atoms: N_3  and  C_4
REMARK    3  A    between atoms: C_4  and  C_5
REMARK    4  A    between atoms: C_16  and  C_17
REMARK    5  A    between atoms: C_20  and  C_21
REMARK                            x       y       z     vdW  Elec       q    Type
REMARK                         _______ _______ _______ _____ _____    ______ ____
ROOT
ATOM      1  C   UNL     1       3.321   3.568  19.847  0.00  0.00    +0.000 A 
ATOM      2  C   UNL     1       3.273   2.228  20.294  0.00  0.00    +0.000 A 
ATOM      3  C   UNL     1       2.331   1.828  21.242  0.00  0.00    +0.000 A 
ATOM      4  C   UNL     1       1.437   2.764  21.756  0.00  0.00    +0.000 A 
ATOM      5  C   UNL     1       1.452   4.076  21.290  0.00  0.00    +0.000 A 
ATOM      6  C   UNL     1       2.366   4.510  20.307  0.00  0.00    +0.000 A 
ENDROOT
BRANCH   6   7
ATOM      7  C   UNL     1       2.262   5.917  19.814  0.00  0.00    +0.000 A 
ATOM      8  C   UNL     1       2.426   6.228  18.455  0.00  0.00    +0.000 A 
ATOM      9  C   UNL     1       2.212   7.523  17.976  0.00  0.00    +0.000 A 
ATOM     10  C   UNL     1       1.782   8.539  18.832  0.00  0.00    +0.000 A 
ATOM     11  C   UNL     1       1.620   8.251  20.185  0.00  0.00    +0.000 A 
ATOM     12  C   UNL     1       1.929   6.983  20.675  0.00  0.00    +0.000 A 
BRANCH  10  13
ATOM     13  C   UNL     1       1.503   9.927  18.326  0.00  0.00    +0.000 C 
ATOM     14  F   UNL     1       1.283  10.832  19.319  0.00  0.00    +0.000 F 
ATOM     15  F   UNL     1       2.534  10.424  17.586  0.00  0.00    +0.000 F 
ATOM     16  F   UNL     1       0.407   9.975  17.522  0.00  0.00    +0.000 F 
ENDBRANCH  10  13
ENDBRANCH   6   7
BRANCH   1  18
ATOM     17  O   UNL     1       5.468   4.416  19.298  0.00  0.00    +0.000 OA
ATOM     18  C   UNL     1       4.436   3.884  18.902  0.00  0.00    +0.000 C 
ATOM     19  N   UNL     1       4.214   3.525  17.587  0.00  0.00    +0.000 N 
ATOM     20  H   UNL     1       3.321   3.124  17.336  0.00  0.00    +0.000 HD
BRANCH  19  21
ATOM     21  C   UNL     1       5.247   3.481  16.576  0.00  0.00    +0.000 C 
BRANCH  21  22
ATOM     22  C   UNL     1       5.074   4.657  15.623  0.00  0.00    +0.000 C 
ATOM     23  C   UNL     1       5.560   4.342  14.194  0.00  0.00    +0.000 C 
ATOM     24  C   UNL     1       7.084   4.332  14.073  0.00  0.00    +0.000 C 
ATOM     25  N   UNL     1       7.677   5.570  14.574  0.00  0.00    +0.000 NA
ATOM     26  C   UNL     1       7.306   5.818  15.968  0.00  0.00    +0.000 C 
ATOM     27  C   UNL     1       5.789   5.906  16.137  0.00  0.00    +0.000 C 
ATOM     28  H   UNL     1       7.350   6.351  14.003  0.00  0.00    +0.000 HD
ENDBRANCH  21  22
ENDBRANCH  19  21
ENDBRANCH   1  18
TORSDOF 5
ENDMDL
MODEL 6
REMARK VINA RESULT:      -7.6      3.493      5.180
REMARK  Name = 
REMARK  5 active torsions:
REMARK  status: ('A' for Active; 'I' for Inactive)
REMARK    1  A    between atoms: C_2  and  C_11
REMARK    2  A    between atoms: N_3  and  C_4
REMARK    3  A    between atoms: C_4  and  C_5
REMARK    4  A    between atoms: C_16  and  C_17
REMARK    5  A    between atoms: C_20  and  C_21
REMARK                            x       y       z     vdW  Elec       q    Type
REMARK                         _______ _______ _______ _____ _____    ______ ____
ROOT
ATOM      1  C   UNL     1       5.242   5.239  17.051  0.00  0.00    +0.000 A 
ATOM      2  C   UNL     1       4.784   4.086  16.374  0.00  0.00    +0.000 A 
ATOM      3  C   UNL     1       5.520   3.538  15.325  0.00  0.00    +0.000 A 
ATOM      4  C   UNL     1       6.715   4.142  14.938  0.00  0.00    +0.000 A 
ATOM      5  C   UNL     1       7.193   5.253  15.627  0.00  0.00    +0.000 A 
ATOM      6  C   UNL     1       6.495   5.815  16.716  0.00  0.00    +0.000 A 
ENDROOT
BRANCH   6   7
ATOM      7  C   UNL     1       7.118   6.962  17.443  0.00  0.00    +0.000 A 
ATOM      8  C   UNL     1       8.005   6.754  18.511  0.00  0.00    +0.000 A 
ATOM      9  C   UNL     1       8.679   7.821  19.113  0.00  0.00    +0.000 A 
ATOM     10  C   UNL     1       8.524   9.123  18.635  0.00  0.00    +0.000 A 
ATOM     11  C   UNL     1       7.643   9.350  17.580  0.00  0.00    +0.000 A 
ATOM     12  C   UNL     1       6.900   8.299  17.048  0.00  0.00    +0.000 A 
BRANCH  10  13
ATOM     13  C   UNL     1       9.276  10.277  19.240  0.00  0.00    +0.000 C 
ATOM     14  F   UNL     1      10.584  10.326  18.869  0.00  0.00    +0.000 F 
ATOM     15  F   UNL     1       8.741  11.481  18.893  0.00  0.00    +0.000 F 
ATOM     16  F   UNL     1       9.270  10.242  20.600  0.00  0.00    +0.000 F 
ENDBRANCH  10  13
ENDBRANCH   6   7
BRANCH   1  18
ATOM     17  O   UNL     1       3.832   6.900  17.990  0.00  0.00    +0.000 OA
ATOM     18  C   UNL     1       4.313   5.777  18.093  0.00  0.00    +0.000 C 
ATOM     19  N   UNL     1       4.045   4.921  19.142  0.00  0.00    +0.000 N 
ATOM     20  H   UNL     1       4.511   4.025  19.172  0.00  0.00    +0.000 HD
BRANCH  19  21
ATOM     21  C   UNL     1       2.976   5.122  20.097  0.00  0.00    +0.000 C 
BRANCH  21  22
ATOM     22  C   UNL     1       2.679   3.809  20.809  0.00  0.00    +0.000 C 
ATOM     23  C   UNL     1       3.503   2.630  20.254  0.00  0.00    +0.000 C 
ATOM     24  C   UNL     1       2.992   2.134  18.900  0.00  0.00    +0.000 C 
ATOM     25  N   UNL     1       1.567   1.813  18.941  0.00  0.00    +0.000 NA
ATOM     26  C   UNL     1       0.769   2.964  19.365  0.00  0.00    +0.000 C 
ATOM     27  C   UNL     1       1.192   3.461  20.747  0.00  0.00    +0.000 C 
ATOM     28  H   UNL     1       1.418   1.048  19.601  0.00  0.00    +0.000 HD
ENDBRANCH  21  22
ENDBRANCH  19  21
ENDBRANCH   1  18
TORSDOF 5
ENDMDL
MODEL 7
REMARK VINA RESULT:      -7.5      2.103      2.627
REMARK  Name = 
REMARK  5 active torsions:
REMARK  status: ('A' for Active; 'I' for Inactive)
REMARK    1  A    between atoms: C_2  and  C_11
REMARK    2  A    between atoms: N_3  and  C_4
REMARK    3  A    between atoms: C_4  and  C_5
REMARK    4  A    between atoms: C_16  and  C_17
REMARK    5  A    between atoms: C_20  and  C_21
REMARK                            x       y       z     vdW  Elec       q    Type
REMARK                         _______ _______ _______ _____ _____    ______ ____
ROOT
ATOM      1  C   UNL     1       2.318   4.983  20.051  0.00  0.00    +0.000 A 
ATOM      2  C   UNL     1       1.550   4.640  21.187  0.00  0.00    +0.000 A 
ATOM      3  C   UNL     1       1.430   3.311  21.590  0.00  0.00    +0.000 A 
ATOM      4  C   UNL     1       2.069   2.313  20.858  0.00  0.00    +0.000 A 
ATOM      5  C   UNL     1       2.861   2.646  19.762  0.00  0.00    +0.000 A 
ATOM      6  C   UNL     1       3.035   3.982  19.344  0.00  0.00    +0.000 A 
ENDROOT
BRANCH   6   7
ATOM      7  C   UNL     1       3.960   4.254  18.203  0.00  0.00    +0.000 A 
ATOM      8  C   UNL     1       5.277   4.690  18.419  0.00  0.00    +0.000 A 
ATOM      9  C   UNL     1       6.178   4.830  17.359  0.00  0.00    +0.000 A 
ATOM     10  C   UNL     1       5.806   4.492  16.057  0.00  0.00    +0.000 A 
ATOM     11  C   UNL     1       4.502   4.063  15.822  0.00  0.00    +0.000 A 
ATOM     12  C   UNL     1       3.579   4.019  16.865  0.00  0.00    +0.000 A 
BRANCH  10  13
ATOM     13  C   UNL     1       6.776   4.592  14.912  0.00  0.00    +0.000 C 
ATOM     14  F   UNL     1       6.730   3.525  14.067  0.00  0.00    +0.000 F 
ATOM     15  F   UNL     1       6.552   5.693  14.140  0.00  0.00    +0.000 F 
ATOM     16  F   UNL     1       8.066   4.685  15.332  0.00  0.00    +0.000 F 
ENDBRANCH  10  13
ENDBRANCH   6   7
BRANCH   1  18
ATOM     17  O   UNL     1       2.548   6.789  18.530  0.00  0.00    +0.000 OA
ATOM     18  C   UNL     1       2.288   6.429  19.673  0.00  0.00    +0.000 C 
ATOM     19  N   UNL     1       1.941   7.297  20.690  0.00  0.00    +0.000 N 
ATOM     20  H   UNL     1       1.777   6.923  21.615  0.00  0.00    +0.000 HD
BRANCH  19  21
ATOM     21  C   UNL     1       1.582   8.683  20.483  0.00  0.00    +0.000 C 
BRANCH  21  22
ATOM     22  C   UNL     1       0.092   8.864  20.741  0.00  0.00    +0.000 C 
ATOM     23  C   UNL     1      -0.388  10.305  20.475  0.00  0.00    +0.000 C 
ATOM     24  C   UNL     1       0.029  11.282  21.575  0.00  0.00    +0.000 C 
ATOM     25  N   UNL     1      -0.385  10.821  22.898  0.00  0.00    +0.000 NA
ATOM     26  C   UNL     1       0.159   9.496  23.200  0.00  0.00    +0.000 C 
ATOM     27  C   UNL     1      -0.285   8.460  22.166  0.00  0.00    +0.000 C 
ATOM     28  H   UNL     1      -1.404  10.773  22.930  0.00  0.00    +0.000 HD
ENDBRANCH  21  22
ENDBRANCH  19  21
ENDBRANCH   1  18
TORSDOF 5
ENDMDL
MODEL 8
REMARK VINA RESULT:      -7.5      1.104      1.692
REMARK  Name = 
REMARK  5 active torsions:
REMARK  status: ('A' for Active; 'I' for Inactive)
REMARK    1  A    between atoms: C_2  and  C_11
REMARK    2  A    between atoms: N_3  and  C_4
REMARK    3  A    between atoms: C_4  and  C_5
REMARK    4  A    between atoms: C_16  and  C_17
REMARK    5  A    between atoms: C_20  and  C_21
REMARK                            x       y       z     vdW  Elec       q    Type
REMARK                         _______ _______ _______ _____ _____    ______ ____
ROOT
ATOM      1  C   UNL     1       1.976   5.249  19.762  0.00  0.00    +0.000 A 
ATOM      2  C   UNL     1       0.892   4.500  20.275  0.00  0.00    +0.000 A 
ATOM      3  C   UNL     1       0.832   3.119  20.090  0.00  0.00    +0.000 A 
ATOM      4  C   UNL     1       1.847   2.478  19.385  0.00  0.00    +0.000 A 
ATOM      5  C   UNL     1       2.938   3.203  18.912  0.00  0.00    +0.000 A 
ATOM      6  C   UNL     1       3.053   4.595  19.110  0.00  0.00    +0.000 A 
ENDROOT
BRANCH   6   7
ATOM      7  C   UNL     1       4.292   5.280  18.632  0.00  0.00    +0.000 A 
ATOM      8  C   UNL     1       4.271   6.128  17.513  0.00  0.00    +0.000 A 
ATOM      9  C   UNL     1       5.401   6.861  17.138  0.00  0.00    +0.000 A 
ATOM     10  C   UNL     1       6.572   6.805  17.897  0.00  0.00    +0.000 A 
ATOM     11  C   UNL     1       6.613   5.965  19.006  0.00  0.00    +0.000 A 
ATOM     12  C   UNL     1       5.518   5.162  19.319  0.00  0.00    +0.000 A 
BRANCH  10  13
ATOM     13  C   UNL     1       7.782   7.622  17.534  0.00  0.00    +0.000 C 
ATOM     14  F   UNL     1       8.332   7.274  16.339  0.00  0.00    +0.000 F 
ATOM     15  F   UNL     1       7.499   8.952  17.446  0.00  0.00    +0.000 F 
ATOM     16  F   UNL     1       8.777   7.510  18.455  0.00  0.00    +0.000 F 
ENDBRANCH  10  13
ENDBRANCH   6   7
BRANCH   1  18
ATOM     17  O   UNL     1       1.865   7.488  18.986  0.00  0.00    +0.000 OA
ATOM     18  C   UNL     1       1.872   6.729  19.949  0.00  0.00    +0.000 C 
ATOM     19  N   UNL     1       1.774   7.153  21.260  0.00  0.00    +0.000 N 
ATOM     20  H   UNL     1       1.824   6.465  21.999  0.00  0.00    +0.000 HD
BRANCH  19  21
ATOM     21  C   UNL     1       1.389   8.491  21.651  0.00  0.00    +0.000 C 
BRANCH  21  22
ATOM     22  C   UNL     1      -0.102   8.682  21.403  0.00  0.00    +0.000 C 
ATOM     23  C   UNL     1      -0.396   9.750  20.331  0.00  0.00    +0.000 C 
ATOM     24  C   UNL     1      -0.190  11.176  20.842  0.00  0.00    +0.000 C 
ATOM     25  N   UNL     1      -0.948  11.431  22.065  0.00  0.00    +0.000 NA
ATOM     26  C   UNL     1      -0.593  10.484  23.124  0.00  0.00    +0.000 C 
ATOM     27  C   UNL     1      -0.844   9.040  22.691  0.00  0.00    +0.000 C 
ATOM     28  H   UNL     1      -1.945  11.340  21.864  0.00  0.00    +0.000 HD
ENDBRANCH  21  22
ENDBRANCH  19  21
ENDBRANCH   1  18
TORSDOF 5
ENDMDL
MODEL 9
REMARK VINA RESULT:      -7.5      0.992      1.473
REMARK  Name = 
REMARK  5 active torsions:
REMARK  status: ('A' for Active; 'I' for Inactive)
REMARK    1  A    between atoms: C_2  and  C_11
REMARK    2  A    between atoms: N_3  and  C_4
REMARK    3  A    between atoms: C_4  and  C_5
REMARK    4  A    between atoms: C_16  and  C_17
REMARK    5  A    between atoms: C_20  and  C_21
REMARK                            x       y       z     vdW  Elec       q    Type
REMARK                         _______ _______ _______ _____ _____    ______ ____
ROOT
ATOM      1  C   UNL     1       2.194   4.462  19.097  0.00  0.00    +0.000 A 
ATOM      2  C   UNL     1       1.155   3.533  19.332  0.00  0.00    +0.000 A 
ATOM      3  C   UNL     1       1.173   2.278  18.726  0.00  0.00    +0.000 A 
ATOM      4  C   UNL     1       2.223   1.944  17.874  0.00  0.00    +0.000 A 
ATOM      5  C   UNL     1       3.270   2.838  17.670  0.00  0.00    +0.000 A 
ATOM      6  C   UNL     1       3.306   4.103  18.293  0.00  0.00    +0.000 A 
ENDROOT
BRANCH   6   7
ATOM      7  C   UNL     1       4.504   4.969  18.074  0.00  0.00    +0.000 A 
ATOM      8  C   UNL     1       4.548   5.903  17.027  0.00  0.00    +0.000 A 
ATOM      9  C   UNL     1       5.617   6.794  16.894  0.00  0.00    +0.000 A 
ATOM     10  C   UNL     1       6.652   6.811  17.831  0.00  0.00    +0.000 A 
ATOM     11  C   UNL     1       6.630   5.887  18.873  0.00  0.00    +0.000 A 
ATOM     12  C   UNL     1       5.613   4.936  18.945  0.00  0.00    +0.000 A 
BRANCH  10  13
ATOM     13  C   UNL     1       7.787   7.793  17.729  0.00  0.00    +0.000 C 
ATOM     14  F   UNL     1       7.390   9.092  17.815  0.00  0.00    +0.000 F 
ATOM     15  F   UNL     1       8.712   7.617  18.715  0.00  0.00    +0.000 F 
ATOM     16  F   UNL     1       8.465   7.681  16.555  0.00  0.00    +0.000 F 
ENDBRANCH  10  13
ENDBRANCH   6   7
BRANCH   1  18
ATOM     17  O   UNL     1       1.892   5.914  20.949  0.00  0.00    +0.000 OA
ATOM     18  C   UNL     1       2.006   5.802  19.733  0.00  0.00    +0.000 C 
ATOM     19  N   UNL     1       1.984   6.872  18.860  0.00  0.00    +0.000 N 
ATOM     20  H   UNL     1       2.048   6.691  17.867  0.00  0.00    +0.000 HD
BRANCH  19  21
ATOM     21  C   UNL     1       2.094   8.254  19.271  0.00  0.00    +0.000 C 
BRANCH  21  22
ATOM     22  C   UNL     1       0.714   8.896  19.265  0.00  0.00    +0.000 C 
ATOM     23  C   UNL     1       0.630  10.123  18.334  0.00  0.00    +0.000 C 
ATOM     24  C   UNL     1       1.319  11.358  18.917  0.00  0.00    +0.000 C 
ATOM     25  N   UNL     1       0.826  11.674  20.256  0.00  0.00    +0.000 NA
ATOM     26  C   UNL     1       1.002  10.548  21.173  0.00  0.00    +0.000 C 
ATOM     27  C   UNL     1       0.275   9.299  20.673  0.00  0.00    +0.000 C 
ATOM     28  H   UNL     1      -0.168  11.901  20.199  0.00  0.00    +0.000 HD
ENDBRANCH  21  22
ENDBRANCH  19  21
ENDBRANCH   1  18
TORSDOF 5
ENDMDL
