MODEL 1
REMARK VINA RESULT:      -9.4      0.000      0.000
REMARK  Name = 
REMARK  2 active torsions:
REMARK  status: ('A' for Active; 'I' for Inactive)
REMARK    1  A    between atoms: C_4  and  C_5
REMARK    2  A    between atoms: C_14  and  N_15
REMARK                            x       y       z     vdW  Elec       q    Type
REMARK                         _______ _______ _______ _____ _____    ______ ____
ROOT
ATOM      1  O   UNL     1       2.905   2.308  19.466  0.00  0.00    +0.000 OA
ATOM      2  C   UNL     1       3.248   3.350  18.922  0.00  0.00    +0.000 A 
ATOM      3  C   UNL     1       4.138   3.342  17.756  0.00  0.00    +0.000 A 
ATOM      4  C   UNL     1       4.541   4.506  17.217  0.00  0.00    +0.000 A 
ATOM      5  O   UNL     1       4.129   5.758  17.682  0.00  0.00    +0.000 OA
ATOM      6  C   UNL     1       3.240   5.803  18.739  0.00  0.00    +0.000 A 
ATOM      7  C   UNL     1       2.760   7.055  19.157  0.00  0.00    +0.000 A 
ATOM      8  C   UNL     1       1.822   7.195  20.208  0.00  0.00    +0.000 A 
ATOM      9  C   UNL     1       1.420   6.005  20.845  0.00  0.00    +0.000 A 
ATOM     10  C   UNL     1       1.894   4.751  20.446  0.00  0.00    +0.000 A 
ATOM     11  C   UNL     1       2.791   4.659  19.386  0.00  0.00    +0.000 A 
ENDROOT
BRANCH   8  12
ATOM     12  N   UNL     1       1.307   8.421  20.596  0.00  0.00    +0.000 N 
ATOM     13  C   UNL     1       0.805   9.418  19.654  0.00  0.00    +0.000 C 
ATOM     14  O   UNL     1       1.200  10.752  20.059  0.00  0.00    +0.000 OA
ATOM     15  C   UNL     1       0.504  11.058  21.206  0.00  0.00    +0.000 A 
ATOM     16  C   UNL     1      -0.135  12.283  21.353  0.00  0.00    +0.000 A 
ATOM     17 BR   UNL     1       0.310  13.768  20.273  0.00  0.00    +0.000 Br
ATOM     18  C   UNL     1      -1.146  12.397  22.303  0.00  0.00    +0.000 A 
ATOM     19  C   UNL     1      -1.473  11.299  23.110  0.00  0.00    +0.000 A 
ATOM     20  C   UNL     1      -0.703  10.131  23.066  0.00  0.00    +0.000 A 
ATOM     21  C   UNL     1       0.328  10.027  22.135  0.00  0.00    +0.000 A 
ATOM     22  C   UNL     1       1.266   8.852  21.999  0.00  0.00    +0.000 C 
ENDBRANCH   8  12
BRANCH   4  23
ATOM     23  C   UNL     1       5.444   4.504  16.030  0.00  0.00    +0.000 A 
ATOM     24  C   UNL     1       6.708   5.094  16.081  0.00  0.00    +0.000 A 
ATOM     25  C   UNL     1       7.528   5.153  14.940  0.00  0.00    +0.000 A 
ATOM     26  C   UNL     1       7.084   4.624  13.727  0.00  0.00    +0.000 A 
ATOM     27  C   UNL     1       5.838   4.016  13.664  0.00  0.00    +0.000 A 
ATOM     28  C   UNL     1       5.032   3.947  14.803  0.00  0.00    +0.000 A 
ENDBRANCH   4  23
TORSDOF 2
ENDMDL
MODEL 2
REMARK VINA RESULT:      -9.2      1.715      2.604
REMARK  Name = 
REMARK  2 active torsions:
REMARK  status: ('A' for Active; 'I' for Inactive)
REMARK    1  A    between atoms: C_4  and  C_5
REMARK    2  A    between atoms: C_14  and  N_15
REMARK                            x       y       z     vdW  Elec       q    Type
REMARK                         _______ _______ _______ _____ _____    ______ ____
ROOT
ATOM      1  O   UNL     1       4.244   2.958  18.887  0.00  0.00    +0.000 OA
ATOM      2  C   UNL     1       4.323   3.874  18.078  0.00  0.00    +0.000 A 
ATOM      3  C   UNL     1       5.011   3.697  16.794  0.00  0.00    +0.000 A 
ATOM      4  C   UNL     1       5.130   4.739  15.953  0.00  0.00    +0.000 A 
ATOM      5  O   UNL     1       4.595   6.005  16.209  0.00  0.00    +0.000 OA
ATOM      6  C   UNL     1       3.885   6.191  17.379  0.00  0.00    +0.000 A 
ATOM      7  C   UNL     1       3.277   7.437  17.602  0.00  0.00    +0.000 A 
ATOM      8  C   UNL     1       2.503   7.707  18.757  0.00  0.00    +0.000 A 
ATOM      9  C   UNL     1       2.405   6.663  19.698  0.00  0.00    +0.000 A 
ATOM     10  C   UNL     1       3.011   5.419  19.494  0.00  0.00    +0.000 A 
ATOM     11  C   UNL     1       3.735   5.188  18.329  0.00  0.00    +0.000 A 
ENDROOT
BRANCH   8  12
ATOM     12  N   UNL     1       1.860   8.916  18.964  0.00  0.00    +0.000 N 
ATOM     13  C   UNL     1       1.091   9.224  20.167  0.00  0.00    +0.000 C 
ATOM     14  O   UNL     1      -0.116   9.953  19.833  0.00  0.00    +0.000 OA
ATOM     15  C   UNL     1       0.265  11.203  19.403  0.00  0.00    +0.000 A 
ATOM     16  C   UNL     1      -0.368  12.348  19.873  0.00  0.00    +0.000 A 
ATOM     17 BR   UNL     1      -2.067  12.273  20.697  0.00  0.00    +0.000 Br
ATOM     18  C   UNL     1       0.290  13.569  19.754  0.00  0.00    +0.000 A 
ATOM     19  C   UNL     1       1.546  13.628  19.137  0.00  0.00    +0.000 A 
ATOM     20  C   UNL     1       2.087  12.496  18.517  0.00  0.00    +0.000 A 
ATOM     21  C   UNL     1       1.416  11.279  18.610  0.00  0.00    +0.000 A 
ATOM     22  C   UNL     1       1.852   9.988  17.961  0.00  0.00    +0.000 C 
ENDBRANCH   8  12
BRANCH   4  23
ATOM     23  C   UNL     1       5.826   4.565  14.645  0.00  0.00    +0.000 A 
ATOM     24  C   UNL     1       5.303   3.734  13.652  0.00  0.00    +0.000 A 
ATOM     25  C   UNL     1       5.997   3.516  12.449  0.00  0.00    +0.000 A 
ATOM     26  C   UNL     1       7.233   4.127  12.229  0.00  0.00    +0.000 A 
ATOM     27  C   UNL     1       7.757   4.971  13.198  0.00  0.00    +0.000 A 
ATOM     28  C   UNL     1       7.058   5.197  14.387  0.00  0.00    +0.000 A 
ENDBRANCH   4  23
TORSDOF 2
ENDMDL
MODEL 3
REMARK VINA RESULT:      -9.1      1.375      2.037
REMARK  Name = 
REMARK  2 active torsions:
REMARK  status: ('A' for Active; 'I' for Inactive)
REMARK    1  A    between atoms: C_4  and  C_5
REMARK    2  A    between atoms: C_14  and  N_15
REMARK                            x       y       z     vdW  Elec       q    Type
REMARK                         _______ _______ _______ _____ _____    ______ ____
ROOT
ATOM      1  O   UNL     1       3.763   2.259  18.853  0.00  0.00    +0.000 OA
ATOM      2  C   UNL     1       3.951   3.271  18.190  0.00  0.00    +0.000 A 
ATOM      3  C   UNL     1       4.710   3.226  16.935  0.00  0.00    +0.000 A 
ATOM      4  C   UNL     1       4.948   4.365  16.259  0.00  0.00    +0.000 A 
ATOM      5  O   UNL     1       4.476   5.618  16.663  0.00  0.00    +0.000 OA
ATOM      6  C   UNL     1       3.704   5.688  17.806  0.00  0.00    +0.000 A 
ATOM      7  C   UNL     1       3.160   6.931  18.171  0.00  0.00    +0.000 A 
ATOM      8  C   UNL     1       2.330   7.091  19.307  0.00  0.00    +0.000 A 
ATOM      9  C   UNL     1       2.107   5.937  20.081  0.00  0.00    +0.000 A 
ATOM     10  C   UNL     1       2.647   4.693  19.736  0.00  0.00    +0.000 A 
ATOM     11  C   UNL     1       3.430   4.576  18.593  0.00  0.00    +0.000 A 
ENDROOT
BRANCH   8  12
ATOM     12  N   UNL     1       1.751   8.302  19.648  0.00  0.00    +0.000 N 
ATOM     13  C   UNL     1       1.486   8.708  21.026  0.00  0.00    +0.000 C 
ATOM     14  O   UNL     1       0.206   9.379  21.126  0.00  0.00    +0.000 OA
ATOM     15  C   UNL     1       0.324  10.590  20.484  0.00  0.00    +0.000 A 
ATOM     16  C   UNL     1      -0.141  11.762  21.068  0.00  0.00    +0.000 A 
ATOM     17 BR   UNL     1      -1.389  11.734  22.487  0.00  0.00    +0.000 Br
ATOM     18  C   UNL     1       0.354  12.979  20.607  0.00  0.00    +0.000 A 
ATOM     19  C   UNL     1       1.273  13.003  19.551  0.00  0.00    +0.000 A 
ATOM     20  C   UNL     1       1.596  11.827  18.863  0.00  0.00    +0.000 A 
ATOM     21  C   UNL     1       1.079  10.612  19.305  0.00  0.00    +0.000 A 
ATOM     22  C   UNL     1       1.303   9.274  18.643  0.00  0.00    +0.000 C 
ENDBRANCH   8  12
BRANCH   4  23
ATOM     23  C   UNL     1       5.716   4.325  14.981  0.00  0.00    +0.000 A 
ATOM     24  C   UNL     1       6.904   5.042  14.829  0.00  0.00    +0.000 A 
ATOM     25  C   UNL     1       7.588   5.061  13.601  0.00  0.00    +0.000 A 
ATOM     26  C   UNL     1       7.083   4.361  12.504  0.00  0.00    +0.000 A 
ATOM     27  C   UNL     1       5.913   3.627  12.644  0.00  0.00    +0.000 A 
ATOM     28  C   UNL     1       5.243   3.600  13.870  0.00  0.00    +0.000 A 
ENDBRANCH   4  23
TORSDOF 2
ENDMDL
MODEL 4
REMARK VINA RESULT:      -9.0      1.964      2.263
REMARK  Name = 
REMARK  2 active torsions:
REMARK  status: ('A' for Active; 'I' for Inactive)
REMARK    1  A    between atoms: C_4  and  C_5
REMARK    2  A    between atoms: C_14  and  N_15
REMARK                            x       y       z     vdW  Elec       q    Type
REMARK                         _______ _______ _______ _____ _____    ______ ____
ROOT
ATOM      1  O   UNL     1       4.696   3.224  19.022  0.00  0.00    +0.000 OA
ATOM      2  C   UNL     1       4.686   4.068  18.135  0.00  0.00    +0.000 A 
ATOM      3  C   UNL     1       5.354   3.829  16.852  0.00  0.00    +0.000 A 
ATOM      4  C   UNL     1       5.374   4.798  15.919  0.00  0.00    +0.000 A 
ATOM      5  O   UNL     1       4.750   6.039  16.080  0.00  0.00    +0.000 OA
ATOM      6  C   UNL     1       4.056   6.276  17.252  0.00  0.00    +0.000 A 
ATOM      7  C   UNL     1       3.360   7.488  17.384  0.00  0.00    +0.000 A 
ATOM      8  C   UNL     1       2.596   7.802  18.534  0.00  0.00    +0.000 A 
ATOM      9  C   UNL     1       2.600   6.842  19.564  0.00  0.00    +0.000 A 
ATOM     10  C   UNL     1       3.294   5.632  19.451  0.00  0.00    +0.000 A 
ATOM     11  C   UNL     1       4.006   5.353  18.289  0.00  0.00    +0.000 A 
ENDROOT
BRANCH   8  12
ATOM     12  N   UNL     1       1.868   8.974  18.655  0.00  0.00    +0.000 N 
ATOM     13  C   UNL     1       2.165  10.188  17.898  0.00  0.00    +0.000 C 
ATOM     14  O   UNL     1       2.014  11.363  18.732  0.00  0.00    +0.000 OA
ATOM     15  C   UNL     1       0.672  11.508  19.000  0.00  0.00    +0.000 A 
ATOM     16  C   UNL     1       0.044  12.741  18.875  0.00  0.00    +0.000 A 
ATOM     17 BR   UNL     1       1.027  14.355  18.843  0.00  0.00    +0.000 Br
ATOM     18  C   UNL     1      -1.342  12.773  18.743  0.00  0.00    +0.000 A 
ATOM     19  C   UNL     1      -2.073  11.579  18.775  0.00  0.00    +0.000 A 
ATOM     20  C   UNL     1      -1.441  10.366  19.073  0.00  0.00    +0.000 A 
ATOM     21  C   UNL     1      -0.058  10.337  19.235  0.00  0.00    +0.000 A 
ATOM     22  C   UNL     1       0.754   9.118  19.600  0.00  0.00    +0.000 C 
ENDBRANCH   8  12
BRANCH   4  23
ATOM     23  C   UNL     1       6.049   4.560  14.611  0.00  0.00    +0.000 A 
ATOM     24  C   UNL     1       7.212   5.250  14.261  0.00  0.00    +0.000 A 
ATOM     25  C   UNL     1       7.806   5.077  12.999  0.00  0.00    +0.000 A 
ATOM     26  C   UNL     1       7.236   4.209  12.066  0.00  0.00    +0.000 A 
ATOM     27  C   UNL     1       6.092   3.501  12.406  0.00  0.00    +0.000 A 
ATOM     28  C   UNL     1       5.511   3.665  13.667  0.00  0.00    +0.000 A 
ENDBRANCH   4  23
TORSDOF 2
ENDMDL
MODEL 5
REMARK VINA RESULT:      -8.9      1.055      1.229
REMARK  Name = 
REMARK  2 active torsions:
REMARK  status: ('A' for Active; 'I' for Inactive)
REMARK    1  A    between atoms: C_4  and  C_5
REMARK    2  A    between atoms: C_14  and  N_15
REMARK                            x       y       z     vdW  Elec       q    Type
REMARK                         _______ _______ _______ _____ _____    ______ ____
ROOT
ATOM      1  O   UNL     1       3.881   2.467  18.945  0.00  0.00    +0.000 OA
ATOM      2  C   UNL     1       4.040   3.449  18.232  0.00  0.00    +0.000 A 
ATOM      3  C   UNL     1       4.784   3.361  16.971  0.00  0.00    +0.000 A 
ATOM      4  C   UNL     1       4.989   4.471  16.239  0.00  0.00    +0.000 A 
ATOM      5  O   UNL     1       4.494   5.731  16.589  0.00  0.00    +0.000 OA
ATOM      6  C   UNL     1       3.734   5.839  17.737  0.00  0.00    +0.000 A 
ATOM      7  C   UNL     1       3.167   7.086  18.049  0.00  0.00    +0.000 A 
ATOM      8  C   UNL     1       2.347   7.282  19.187  0.00  0.00    +0.000 A 
ATOM      9  C   UNL     1       2.158   6.161  20.018  0.00  0.00    +0.000 A 
ATOM     10  C   UNL     1       2.722   4.915  19.726  0.00  0.00    +0.000 A 
ATOM     11  C   UNL     1       3.494   4.760  18.579  0.00  0.00    +0.000 A 
ENDROOT
BRANCH   8  12
ATOM     12  N   UNL     1       1.745   8.496  19.477  0.00  0.00    +0.000 N 
ATOM     13  C   UNL     1       1.197   9.388  18.458  0.00  0.00    +0.000 C 
ATOM     14  O   UNL     1       1.497  10.770  18.771  0.00  0.00    +0.000 OA
ATOM     15  C   UNL     1       0.760  11.110  19.882  0.00  0.00    +0.000 A 
ATOM     16  C   UNL     1       0.038  12.297  19.931  0.00  0.00    +0.000 A 
ATOM     17 BR   UNL     1       0.407  13.728  18.753  0.00  0.00    +0.000 Br
ATOM     18  C   UNL     1      -0.997  12.410  20.854  0.00  0.00    +0.000 A 
ATOM     19  C   UNL     1      -1.266  11.354  21.734  0.00  0.00    +0.000 A 
ATOM     20  C   UNL     1      -0.421  10.240  21.786  0.00  0.00    +0.000 A 
ATOM     21  C   UNL     1       0.633  10.138  20.881  0.00  0.00    +0.000 A 
ATOM     22  C   UNL     1       1.648   9.021  20.845  0.00  0.00    +0.000 C 
ENDBRANCH   8  12
BRANCH   4  23
ATOM     23  C   UNL     1       5.743   4.387  14.955  0.00  0.00    +0.000 A 
ATOM     24  C   UNL     1       6.956   5.056  14.784  0.00  0.00    +0.000 A 
ATOM     25  C   UNL     1       7.629   5.034  13.549  0.00  0.00    +0.000 A 
ATOM     26  C   UNL     1       7.086   4.341  12.465  0.00  0.00    +0.000 A 
ATOM     27  C   UNL     1       5.891   3.655  12.625  0.00  0.00    +0.000 A 
ATOM     28  C   UNL     1       5.232   3.668  13.857  0.00  0.00    +0.000 A 
ENDBRANCH   4  23
TORSDOF 2
ENDMDL
MODEL 6
REMARK VINA RESULT:      -8.9      3.264      4.950
REMARK  Name = 
REMARK  2 active torsions:
REMARK  status: ('A' for Active; 'I' for Inactive)
REMARK    1  A    between atoms: C_4  and  C_5
REMARK    2  A    between atoms: C_14  and  N_15
REMARK                            x       y       z     vdW  Elec       q    Type
REMARK                         _______ _______ _______ _____ _____    ______ ____
ROOT
ATOM      1  O   UNL     1       2.915   8.500  16.830  0.00  0.00    +0.000 OA
ATOM      2  C   UNL     1       2.542   8.134  17.937  0.00  0.00    +0.000 A 
ATOM      3  C   UNL     1       2.839   6.786  18.432  0.00  0.00    +0.000 A 
ATOM      4  C   UNL     1       2.366   6.395  19.630  0.00  0.00    +0.000 A 
ATOM      5  O   UNL     1       1.622   7.224  20.475  0.00  0.00    +0.000 OA
ATOM      6  C   UNL     1       1.377   8.522  20.069  0.00  0.00    +0.000 A 
ATOM      7  C   UNL     1       0.700   9.382  20.949  0.00  0.00    +0.000 A 
ATOM      8  C   UNL     1       0.435  10.736  20.632  0.00  0.00    +0.000 A 
ATOM      9  C   UNL     1       0.855  11.170  19.360  0.00  0.00    +0.000 A 
ATOM     10  C   UNL     1       1.524  10.325  18.468  0.00  0.00    +0.000 A 
ATOM     11  C   UNL     1       1.792   9.010  18.836  0.00  0.00    +0.000 A 
ENDROOT
BRANCH   8  12
ATOM     12  N   UNL     1      -0.190  11.604  21.512  0.00  0.00    +0.000 N 
ATOM     13  C   UNL     1      -0.145  13.058  21.376  0.00  0.00    +0.000 C 
ATOM     14  O   UNL     1       0.013  13.690  22.671  0.00  0.00    +0.000 OA
ATOM     15  C   UNL     1      -1.157  13.498  23.368  0.00  0.00    +0.000 A 
ATOM     16  C   UNL     1      -1.770  14.546  24.045  0.00  0.00    +0.000 A 
ATOM     17 BR   UNL     1      -0.829  16.123  24.489  0.00  0.00    +0.000 Br
ATOM     18  C   UNL     1      -3.118  14.430  24.371  0.00  0.00    +0.000 A 
ATOM     19  C   UNL     1      -3.816  13.259  24.050  0.00  0.00    +0.000 A 
ATOM     20  C   UNL     1      -3.141  12.151  23.526  0.00  0.00    +0.000 A 
ATOM     21  C   UNL     1      -1.785  12.255  23.225  0.00  0.00    +0.000 A 
ATOM     22  C   UNL     1      -0.918  11.138  22.698  0.00  0.00    +0.000 C 
ENDBRANCH   8  12
BRANCH   4  23
ATOM     23  C   UNL     1       2.668   5.027  20.139  0.00  0.00    +0.000 A 
ATOM     24  C   UNL     1       3.649   4.233  19.543  0.00  0.00    +0.000 A 
ATOM     25  C   UNL     1       3.882   2.917  19.980  0.00  0.00    +0.000 A 
ATOM     26  C   UNL     1       3.125   2.377  21.021  0.00  0.00    +0.000 A 
ATOM     27  C   UNL     1       2.159   3.160  21.637  0.00  0.00    +0.000 A 
ATOM     28  C   UNL     1       1.940   4.472  21.210  0.00  0.00    +0.000 A 
ENDBRANCH   4  23
TORSDOF 2
ENDMDL
MODEL 7
REMARK VINA RESULT:      -8.9      1.123      1.912
REMARK  Name = 
REMARK  2 active torsions:
REMARK  status: ('A' for Active; 'I' for Inactive)
REMARK    1  A    between atoms: C_4  and  C_5
REMARK    2  A    between atoms: C_14  and  N_15
REMARK                            x       y       z     vdW  Elec       q    Type
REMARK                         _______ _______ _______ _____ _____    ______ ____
ROOT
ATOM      1  O   UNL     1       3.140   2.491  19.534  0.00  0.00    +0.000 OA
ATOM      2  C   UNL     1       3.393   3.520  18.921  0.00  0.00    +0.000 A 
ATOM      3  C   UNL     1       4.216   3.499  17.707  0.00  0.00    +0.000 A 
ATOM      4  C   UNL     1       4.523   4.654  17.089  0.00  0.00    +0.000 A 
ATOM      5  O   UNL     1       4.065   5.905  17.515  0.00  0.00    +0.000 OA
ATOM      6  C   UNL     1       3.234   5.956  18.618  0.00  0.00    +0.000 A 
ATOM      7  C   UNL     1       2.706   7.200  19.000  0.00  0.00    +0.000 A 
ATOM      8  C   UNL     1       1.821   7.344  20.095  0.00  0.00    +0.000 A 
ATOM      9  C   UNL     1       1.523   6.168  20.812  0.00  0.00    +0.000 A 
ATOM     10  C   UNL     1       2.046   4.923  20.449  0.00  0.00    +0.000 A 
ATOM     11  C   UNL     1       2.887   4.825  19.345  0.00  0.00    +0.000 A 
ENDROOT
BRANCH   8  12
ATOM     12  N   UNL     1       1.258   8.558  20.452  0.00  0.00    +0.000 N 
ATOM     13  C   UNL     1       0.832   8.880  21.812  0.00  0.00    +0.000 C 
ATOM     14  O   UNL     1      -0.418   9.613  21.798  0.00  0.00    +0.000 OA
ATOM     15  C   UNL     1      -0.160  10.857  21.270  0.00  0.00    +0.000 A 
ATOM     16  C   UNL     1      -0.644  12.010  21.879  0.00  0.00    +0.000 A 
ATOM     17 BR   UNL     1      -2.068  11.951  23.120  0.00  0.00    +0.000 Br
ATOM     18  C   UNL     1      -0.037  13.226  21.580  0.00  0.00    +0.000 A 
ATOM     19  C   UNL     1       1.013  13.273  20.654  0.00  0.00    +0.000 A 
ATOM     20  C   UNL     1       1.370  12.132  19.926  0.00  0.00    +0.000 A 
ATOM     21  C   UNL     1       0.743  10.920  20.204  0.00  0.00    +0.000 A 
ATOM     22  C   UNL     1       0.991   9.621  19.475  0.00  0.00    +0.000 C 
ENDBRANCH   8  12
BRANCH   4  23
ATOM     23  C   UNL     1       5.358   4.638  15.854  0.00  0.00    +0.000 A 
ATOM     24  C   UNL     1       4.913   4.012  14.688  0.00  0.00    +0.000 A 
ATOM     25  C   UNL     1       5.732   3.936  13.547  0.00  0.00    +0.000 A 
ATOM     26  C   UNL     1       7.014   4.487  13.565  0.00  0.00    +0.000 A 
ATOM     27  C   UNL     1       7.463   5.132  14.709  0.00  0.00    +0.000 A 
ATOM     28  C   UNL     1       6.642   5.216  15.836  0.00  0.00    +0.000 A 
ENDBRANCH   4  23
TORSDOF 2
ENDMDL
MODEL 8
REMARK VINA RESULT:      -8.4      1.465      2.114
REMARK  Name = 
REMARK  2 active torsions:
REMARK  status: ('A' for Active; 'I' for Inactive)
REMARK    1  A    between atoms: C_4  and  C_5
REMARK    2  A    between atoms: C_14  and  N_15
REMARK                            x       y       z     vdW  Elec       q    Type
REMARK                         _______ _______ _______ _____ _____    ______ ____
ROOT
ATOM      1  O   UNL     1       3.357   3.288  20.034  0.00  0.00    +0.000 OA
ATOM      2  C   UNL     1       3.549   4.181  19.219  0.00  0.00    +0.000 A 
ATOM      3  C   UNL     1       4.377   3.958  18.028  0.00  0.00    +0.000 A 
ATOM      4  C   UNL     1       4.615   4.975  17.181  0.00  0.00    +0.000 A 
ATOM      5  O   UNL     1       4.081   6.257  17.343  0.00  0.00    +0.000 OA
ATOM      6  C   UNL     1       3.244   6.487  18.418  0.00  0.00    +0.000 A 
ATOM      7  C   UNL     1       2.641   7.750  18.539  0.00  0.00    +0.000 A 
ATOM      8  C   UNL     1       1.745   8.064  19.589  0.00  0.00    +0.000 A 
ATOM      9  C   UNL     1       1.516   7.048  20.537  0.00  0.00    +0.000 A 
ATOM     10  C   UNL     1       2.115   5.787  20.435  0.00  0.00    +0.000 A 
ATOM     11  C   UNL     1       2.964   5.513  19.368  0.00  0.00    +0.000 A 
ENDROOT
BRANCH   8  12
ATOM     12  N   UNL     1       1.108   9.290  19.690  0.00  0.00    +0.000 N 
ATOM     13  C   UNL     1       0.542   9.803  20.936  0.00  0.00    +0.000 C 
ATOM     14  O   UNL     1      -0.725  10.461  20.691  0.00  0.00    +0.000 OA
ATOM     15  C   UNL     1      -0.462  11.616  19.993  0.00  0.00    +0.000 A 
ATOM     16  C   UNL     1      -1.041  12.825  20.359  0.00  0.00    +0.000 A 
ATOM     17 BR   UNL     1      -2.575  12.894  21.461  0.00  0.00    +0.000 Br
ATOM     18  C   UNL     1      -0.451  14.007  19.921  0.00  0.00    +0.000 A 
ATOM     19  C   UNL     1       0.681  13.959  19.098  0.00  0.00    +0.000 A 
ATOM     20  C   UNL     1       1.145  12.736  18.600  0.00  0.00    +0.000 A 
ATOM     21  C   UNL     1       0.537  11.553  19.015  0.00  0.00    +0.000 A 
ATOM     22  C   UNL     1       0.899  10.169  18.533  0.00  0.00    +0.000 C 
ENDBRANCH   8  12
BRANCH   4  23
ATOM     23  C   UNL     1       5.454   4.754  15.968  0.00  0.00    +0.000 A 
ATOM     24  C   UNL     1       6.739   5.289  15.870  0.00  0.00    +0.000 A 
ATOM     25  C   UNL     1       7.500   5.139  14.697  0.00  0.00    +0.000 A 
ATOM     26  C   UNL     1       6.975   4.452  13.602  0.00  0.00    +0.000 A 
ATOM     27  C   UNL     1       5.706   3.896  13.691  0.00  0.00    +0.000 A 
ATOM     28  C   UNL     1       4.959   4.035  14.863  0.00  0.00    +0.000 A 
ENDBRANCH   4  23
TORSDOF 2
ENDMDL
MODEL 9
REMARK VINA RESULT:      -8.3      1.975      2.960
REMARK  Name = 
REMARK  2 active torsions:
REMARK  status: ('A' for Active; 'I' for Inactive)
REMARK    1  A    between atoms: C_4  and  C_5
REMARK    2  A    between atoms: C_14  and  N_15
REMARK                            x       y       z     vdW  Elec       q    Type
REMARK                         _______ _______ _______ _____ _____    ______ ____
ROOT
ATOM      1  O   UNL     1       2.259   4.423  21.102  0.00  0.00    +0.000 OA
ATOM      2  C   UNL     1       2.530   5.199  20.194  0.00  0.00    +0.000 A 
ATOM      3  C   UNL     1       3.354   4.778  19.056  0.00  0.00    +0.000 A 
ATOM      4  C   UNL     1       3.682   5.670  18.104  0.00  0.00    +0.000 A 
ATOM      5  O   UNL     1       3.246   6.998  18.106  0.00  0.00    +0.000 OA
ATOM      6  C   UNL     1       2.415   7.413  19.129  0.00  0.00    +0.000 A 
ATOM      7  C   UNL     1       1.909   8.722  19.092  0.00  0.00    +0.000 A 
ATOM      8  C   UNL     1       1.025   9.222  20.078  0.00  0.00    +0.000 A 
ATOM      9  C   UNL     1       0.707   8.342  21.131  0.00  0.00    +0.000 A 
ATOM     10  C   UNL     1       1.208   7.037  21.187  0.00  0.00    +0.000 A 
ATOM     11  C   UNL     1       2.048   6.578  20.177  0.00  0.00    +0.000 A 
ENDROOT
BRANCH   8  12
ATOM     12  N   UNL     1       0.484  10.496  20.025  0.00  0.00    +0.000 N 
ATOM     13  C   UNL     1      -0.085  11.178  21.185  0.00  0.00    +0.000 C 
ATOM     14  O   UNL     1      -1.287  11.899  20.818  0.00  0.00    +0.000 OA
ATOM     15  C   UNL     1      -0.908  12.952  20.017  0.00  0.00    +0.000 A 
ATOM     16  C   UNL     1      -1.404  14.232  20.232  0.00  0.00    +0.000 A 
ATOM     17 BR   UNL     1      -2.967  14.531  21.251  0.00  0.00    +0.000 Br
ATOM     18  C   UNL     1      -0.707  15.314  19.701  0.00  0.00    +0.000 A 
ATOM     19  C   UNL     1       0.447  15.095  18.939  0.00  0.00    +0.000 A 
ATOM     20  C   UNL     1       0.832  13.795  18.590  0.00  0.00    +0.000 A 
ATOM     21  C   UNL     1       0.118  12.711  19.097  0.00  0.00    +0.000 A 
ATOM     22  C   UNL     1       0.387  11.261  18.776  0.00  0.00    +0.000 C 
ENDBRANCH   8  12
BRANCH   4  23
ATOM     23  C   UNL     1       4.517   5.247  16.943  0.00  0.00    +0.000 A 
ATOM     24  C   UNL     1       4.840   3.905  16.735  0.00  0.00    +0.000 A 
ATOM     25  C   UNL     1       5.686   3.518  15.681  0.00  0.00    +0.000 A 
ATOM     26  C   UNL     1       6.226   4.477  14.823  0.00  0.00    +0.000 A 
ATOM     27  C   UNL     1       5.898   5.814  15.005  0.00  0.00    +0.000 A 
ATOM     28  C   UNL     1       5.046   6.194  16.045  0.00  0.00    +0.000 A 
ENDBRANCH   4  23
TORSDOF 2
ENDMDL
