MODEL 1
REMARK VINA RESULT:      -6.7      0.000      0.000
REMARK  Name = 
REMARK  9 active torsions:
REMARK  status: ('A' for Active; 'I' for Inactive)
REMARK    1  A    between atoms: C_2  and  C_3
REMARK    2  A    between atoms: C_2  and  O_10
REMARK    3  A    between atoms: C_3  and  C_4
REMARK    4  A    between atoms: C_4  and  C_5
REMARK    5  A    between atoms: C_5  and  O_6
REMARK    6  A    between atoms: O_6  and  N_7
REMARK    7  A    between atoms: O_10  and  C_11
REMARK    8  A    between atoms: C_16  and  C_17
REMARK    9  A    between atoms: C_17  and  O_19
REMARK                            x       y       z     vdW  Elec       q    Type
REMARK                         _______ _______ _______ _____ _____    ______ ____
ROOT
ATOM      1  O   UNL     1       3.505   3.621  17.430  0.00  0.00    +0.000 OA
ENDROOT
BRANCH   1   2
ATOM      2  C   UNL     1       2.737   3.404  18.604  0.00  0.00    +0.000 A 
ATOM      3  C   UNL     1       1.408   3.852  18.638  0.00  0.00    +0.000 A 
ATOM      4  C   UNL     1       0.658   3.750  19.810  0.00  0.00    +0.000 A 
ATOM      5  C   UNL     1       1.224   3.202  20.956  0.00  0.00    +0.000 A 
ATOM      6  C   UNL     1       2.556   2.783  20.939  0.00  0.00    +0.000 A 
ATOM      7  C   UNL     1       3.332   2.895  19.771  0.00  0.00    +0.000 A 
BRANCH   7   8
ATOM      8  C   UNL     1       4.767   2.526  19.907  0.00  0.00    +0.000 C 
ATOM      9  O   UNL     1       5.131   1.478  20.412  0.00  0.00    +0.000 OA
BRANCH   8  10
ATOM     10  O   UNL     1       5.629   3.418  19.379  0.00  0.00    +0.000 OA
ATOM     11  H   UNL     1       5.656   4.268  19.851  0.00  0.00    +0.000 HD
ENDBRANCH   8  10
ENDBRANCH   7   8
ENDBRANCH   1   2
BRANCH   1  13
ATOM     12  O   UNL     1       4.164   5.773  18.052  0.00  0.00    +0.000 OA
ATOM     13  C   UNL     1       4.135   4.859  17.243  0.00  0.00    +0.000 C 
BRANCH  13  14
ATOM     14  C   UNL     1       4.825   4.901  15.897  0.00  0.00    +0.000 C 
BRANCH  14  15
ATOM     15  C   UNL     1       6.055   4.003  15.844  0.00  0.00    +0.000 C 
BRANCH  15  16
ATOM     16  C   UNL     1       7.234   4.584  16.624  0.00  0.00    +0.000 C 
BRANCH  16  17
ATOM     17  O   UNL     1       7.340   5.958  16.258  0.00  0.00    +0.000 OA
BRANCH  17  18
ATOM     18  N   UNL     1       7.513   6.812  17.375  0.00  0.00    +0.000 N 
ATOM     19  O   UNL     1       7.626   6.279  18.479  0.00  0.00    +0.000 OA
ATOM     20  O   UNL     1       7.523   8.002  17.067  0.00  0.00    +0.000 OA
ENDBRANCH  17  18
ENDBRANCH  16  17
ENDBRANCH  15  16
ENDBRANCH  14  15
ENDBRANCH  13  14
ENDBRANCH   1  13
TORSDOF 9
ENDMDL
MODEL 2
REMARK VINA RESULT:      -6.7      1.600      2.190
REMARK  Name = 
REMARK  9 active torsions:
REMARK  status: ('A' for Active; 'I' for Inactive)
REMARK    1  A    between atoms: C_2  and  C_3
REMARK    2  A    between atoms: C_2  and  O_10
REMARK    3  A    between atoms: C_3  and  C_4
REMARK    4  A    between atoms: C_4  and  C_5
REMARK    5  A    between atoms: C_5  and  O_6
REMARK    6  A    between atoms: O_6  and  N_7
REMARK    7  A    between atoms: O_10  and  C_11
REMARK    8  A    between atoms: C_16  and  C_17
REMARK    9  A    between atoms: C_17  and  O_19
REMARK                            x       y       z     vdW  Elec       q    Type
REMARK                         _______ _______ _______ _____ _____    ______ ____
ROOT
ATOM      1  O   UNL     1       3.936   4.312  18.034  0.00  0.00    +0.000 OA
ENDROOT
BRANCH   1   2
ATOM      2  C   UNL     1       3.026   3.974  19.069  0.00  0.00    +0.000 A 
ATOM      3  C   UNL     1       2.005   4.878  19.398  0.00  0.00    +0.000 A 
ATOM      4  C   UNL     1       1.159   4.626  20.478  0.00  0.00    +0.000 A 
ATOM      5  C   UNL     1       1.322   3.473  21.239  0.00  0.00    +0.000 A 
ATOM      6  C   UNL     1       2.356   2.584  20.937  0.00  0.00    +0.000 A 
ATOM      7  C   UNL     1       3.229   2.832  19.862  0.00  0.00    +0.000 A 
BRANCH   7   8
ATOM      8  C   UNL     1       4.361   1.877  19.712  0.00  0.00    +0.000 C 
ATOM      9  O   UNL     1       5.212   1.726  20.571  0.00  0.00    +0.000 OA
BRANCH   8  10
ATOM     10  O   UNL     1       4.336   1.154  18.574  0.00  0.00    +0.000 OA
ATOM     11  H   UNL     1       5.084   0.540  18.480  0.00  0.00    +0.000 HD
ENDBRANCH   8  10
ENDBRANCH   7   8
ENDBRANCH   1   2
BRANCH   1  13
ATOM     12  O   UNL     1       4.472   6.519  17.491  0.00  0.00    +0.000 OA
ATOM     13  C   UNL     1       4.676   5.500  18.132  0.00  0.00    +0.000 C 
BRANCH  13  14
ATOM     14  C   UNL     1       5.753   5.365  19.186  0.00  0.00    +0.000 C 
BRANCH  14  15
ATOM     15  C   UNL     1       7.151   5.592  18.623  0.00  0.00    +0.000 C 
BRANCH  15  16
ATOM     16  C   UNL     1       7.540   4.534  17.590  0.00  0.00    +0.000 C 
BRANCH  16  17
ATOM     17  O   UNL     1       7.724   5.209  16.348  0.00  0.00    +0.000 OA
BRANCH  17  18
ATOM     18  N   UNL     1       6.861   4.732  15.331  0.00  0.00    +0.000 N 
ATOM     19  O   UNL     1       6.802   5.386  14.289  0.00  0.00    +0.000 OA
ATOM     20  O   UNL     1       6.276   3.698  15.650  0.00  0.00    +0.000 OA
ENDBRANCH  17  18
ENDBRANCH  16  17
ENDBRANCH  15  16
ENDBRANCH  14  15
ENDBRANCH  13  14
ENDBRANCH   1  13
TORSDOF 9
ENDMDL
MODEL 3
REMARK VINA RESULT:      -6.6      1.472      1.935
REMARK  Name = 
REMARK  9 active torsions:
REMARK  status: ('A' for Active; 'I' for Inactive)
REMARK    1  A    between atoms: C_2  and  C_3
REMARK    2  A    between atoms: C_2  and  O_10
REMARK    3  A    between atoms: C_3  and  C_4
REMARK    4  A    between atoms: C_4  and  C_5
REMARK    5  A    between atoms: C_5  and  O_6
REMARK    6  A    between atoms: O_6  and  N_7
REMARK    7  A    between atoms: O_10  and  C_11
REMARK    8  A    between atoms: C_16  and  C_17
REMARK    9  A    between atoms: C_17  and  O_19
REMARK                            x       y       z     vdW  Elec       q    Type
REMARK                         _______ _______ _______ _____ _____    ______ ____
ROOT
ATOM      1  O   UNL     1       4.109   4.877  17.982  0.00  0.00    +0.000 OA
ENDROOT
BRANCH   1   2
ATOM      2  C   UNL     1       3.011   4.026  18.272  0.00  0.00    +0.000 A 
ATOM      3  C   UNL     1       1.747   4.347  17.756  0.00  0.00    +0.000 A 
ATOM      4  C   UNL     1       0.627   3.593  18.107  0.00  0.00    +0.000 A 
ATOM      5  C   UNL     1       0.757   2.515  18.976  0.00  0.00    +0.000 A 
ATOM      6  C   UNL     1       2.006   2.208  19.520  0.00  0.00    +0.000 A 
ATOM      7  C   UNL     1       3.142   2.969  19.190  0.00  0.00    +0.000 A 
BRANCH   7   8
ATOM      8  C   UNL     1       4.391   2.621  19.921  0.00  0.00    +0.000 C 
ATOM      9  O   UNL     1       4.385   2.043  20.993  0.00  0.00    +0.000 OA
BRANCH   8  10
ATOM     10  O   UNL     1       5.528   2.948  19.274  0.00  0.00    +0.000 OA
ATOM     11  H   UNL     1       5.758   3.890  19.332  0.00  0.00    +0.000 HD
ENDBRANCH   8  10
ENDBRANCH   7   8
ENDBRANCH   1   2
BRANCH   1  13
ATOM     12  O   UNL     1       4.829   3.867  16.003  0.00  0.00    +0.000 OA
ATOM     13  C   UNL     1       4.668   4.860  16.696  0.00  0.00    +0.000 C 
BRANCH  13  14
ATOM     14  C   UNL     1       5.013   6.264  16.252  0.00  0.00    +0.000 C 
BRANCH  14  15
ATOM     15  C   UNL     1       5.792   7.035  17.312  0.00  0.00    +0.000 C 
BRANCH  15  16
ATOM     16  C   UNL     1       7.305   6.909  17.128  0.00  0.00    +0.000 C 
BRANCH  16  17
ATOM     17  O   UNL     1       7.867   6.710  18.423  0.00  0.00    +0.000 OA
BRANCH  17  18
ATOM     18  N   UNL     1       7.614   5.415  18.938  0.00  0.00    +0.000 N 
ATOM     19  O   UNL     1       7.134   5.343  20.070  0.00  0.00    +0.000 OA
ATOM     20  O   UNL     1       7.924   4.522  18.152  0.00  0.00    +0.000 OA
ENDBRANCH  17  18
ENDBRANCH  16  17
ENDBRANCH  15  16
ENDBRANCH  14  15
ENDBRANCH  13  14
ENDBRANCH   1  13
TORSDOF 9
ENDMDL
MODEL 4
REMARK VINA RESULT:      -6.6      2.607      5.619
REMARK  Name = 
REMARK  9 active torsions:
REMARK  status: ('A' for Active; 'I' for Inactive)
REMARK    1  A    between atoms: C_2  and  C_3
REMARK    2  A    between atoms: C_2  and  O_10
REMARK    3  A    between atoms: C_3  and  C_4
REMARK    4  A    between atoms: C_4  and  C_5
REMARK    5  A    between atoms: C_5  and  O_6
REMARK    6  A    between atoms: O_6  and  N_7
REMARK    7  A    between atoms: O_10  and  C_11
REMARK    8  A    between atoms: C_16  and  C_17
REMARK    9  A    between atoms: C_17  and  O_19
REMARK                            x       y       z     vdW  Elec       q    Type
REMARK                         _______ _______ _______ _____ _____    ______ ____
ROOT
ATOM      1  O   UNL     1       5.229   3.799  19.267  0.00  0.00    +0.000 OA
ENDROOT
BRANCH   1   2
ATOM      2  C   UNL     1       5.008   5.007  18.556  0.00  0.00    +0.000 A 
ATOM      3  C   UNL     1       3.792   5.686  18.731  0.00  0.00    +0.000 A 
ATOM      4  C   UNL     1       3.500   6.818  17.971  0.00  0.00    +0.000 A 
ATOM      5  C   UNL     1       4.413   7.283  17.030  0.00  0.00    +0.000 A 
ATOM      6  C   UNL     1       5.611   6.595  16.828  0.00  0.00    +0.000 A 
ATOM      7  C   UNL     1       5.914   5.442  17.574  0.00  0.00    +0.000 A 
BRANCH   7   8
ATOM      8  C   UNL     1       7.163   4.730  17.188  0.00  0.00    +0.000 C 
ATOM      9  O   UNL     1       7.538   4.640  16.032  0.00  0.00    +0.000 OA
BRANCH   8  10
ATOM     10  O   UNL     1       7.873   4.240  18.225  0.00  0.00    +0.000 OA
ATOM     11  H   UNL     1       7.957   3.272  18.224  0.00  0.00    +0.000 HD
ENDBRANCH   8  10
ENDBRANCH   7   8
ENDBRANCH   1   2
BRANCH   1  13
ATOM     12  O   UNL     1       3.892   2.243  18.151  0.00  0.00    +0.000 OA
ATOM     13  C   UNL     1       4.280   2.770  19.182  0.00  0.00    +0.000 C 
BRANCH  13  14
ATOM     14  C   UNL     1       3.822   2.361  20.565  0.00  0.00    +0.000 C 
BRANCH  14  15
ATOM     15  C   UNL     1       2.757   3.296  21.126  0.00  0.00    +0.000 C 
BRANCH  15  16
ATOM     16  C   UNL     1       1.340   2.844  20.771  0.00  0.00    +0.000 C 
BRANCH  16  17
ATOM     17  O   UNL     1       0.846   3.751  19.788  0.00  0.00    +0.000 OA
BRANCH  17  18
ATOM     18  N   UNL     1       0.727   3.160  18.507  0.00  0.00    +0.000 N 
ATOM     19  O   UNL     1       0.294   2.008  18.456  0.00  0.00    +0.000 OA
ATOM     20  O   UNL     1       1.088   3.910  17.602  0.00  0.00    +0.000 OA
ENDBRANCH  17  18
ENDBRANCH  16  17
ENDBRANCH  15  16
ENDBRANCH  14  15
ENDBRANCH  13  14
ENDBRANCH   1  13
TORSDOF 9
ENDMDL
MODEL 5
REMARK VINA RESULT:      -6.5      2.558      5.565
REMARK  Name = 
REMARK  9 active torsions:
REMARK  status: ('A' for Active; 'I' for Inactive)
REMARK    1  A    between atoms: C_2  and  C_3
REMARK    2  A    between atoms: C_2  and  O_10
REMARK    3  A    between atoms: C_3  and  C_4
REMARK    4  A    between atoms: C_4  and  C_5
REMARK    5  A    between atoms: C_5  and  O_6
REMARK    6  A    between atoms: O_6  and  N_7
REMARK    7  A    between atoms: O_10  and  C_11
REMARK    8  A    between atoms: C_16  and  C_17
REMARK    9  A    between atoms: C_17  and  O_19
REMARK                            x       y       z     vdW  Elec       q    Type
REMARK                         _______ _______ _______ _____ _____    ______ ____
ROOT
ATOM      1  O   UNL     1       3.849   4.191  17.912  0.00  0.00    +0.000 OA
ENDROOT
BRANCH   1   2
ATOM      2  C   UNL     1       4.977   4.459  17.093  0.00  0.00    +0.000 A 
ATOM      3  C   UNL     1       4.943   4.078  15.743  0.00  0.00    +0.000 A 
ATOM      4  C   UNL     1       6.071   4.231  14.937  0.00  0.00    +0.000 A 
ATOM      5  C   UNL     1       7.242   4.762  15.468  0.00  0.00    +0.000 A 
ATOM      6  C   UNL     1       7.294   5.113  16.819  0.00  0.00    +0.000 A 
ATOM      7  C   UNL     1       6.171   4.950  17.650  0.00  0.00    +0.000 A 
BRANCH   7   8
ATOM      8  C   UNL     1       6.382   5.248  19.093  0.00  0.00    +0.000 C 
ATOM      9  O   UNL     1       7.490   5.295  19.598  0.00  0.00    +0.000 OA
BRANCH   8  10
ATOM     10  O   UNL     1       5.254   5.515  19.781  0.00  0.00    +0.000 OA
ATOM     11  H   UNL     1       4.508   5.791  19.223  0.00  0.00    +0.000 HD
ENDBRANCH   8  10
ENDBRANCH   7   8
ENDBRANCH   1   2
BRANCH   1  13
ATOM     12  O   UNL     1       4.421   2.395  19.292  0.00  0.00    +0.000 OA
ATOM     13  C   UNL     1       3.689   2.910  18.460  0.00  0.00    +0.000 C 
BRANCH  13  14
ATOM     14  C   UNL     1       2.443   2.253  17.909  0.00  0.00    +0.000 C 
BRANCH  14  15
ATOM     15  C   UNL     1       1.169   2.978  18.327  0.00  0.00    +0.000 C 
BRANCH  15  16
ATOM     16  C   UNL     1       0.781   2.685  19.777  0.00  0.00    +0.000 C 
BRANCH  16  17
ATOM     17  O   UNL     1       0.782   3.931  20.469  0.00  0.00    +0.000 OA
BRANCH  17  18
ATOM     18  N   UNL     1       1.952   4.129  21.241  0.00  0.00    +0.000 N 
ATOM     19  O   UNL     1       2.197   3.299  22.117  0.00  0.00    +0.000 OA
ATOM     20  O   UNL     1       2.574   5.138  20.913  0.00  0.00    +0.000 OA
ENDBRANCH  17  18
ENDBRANCH  16  17
ENDBRANCH  15  16
ENDBRANCH  14  15
ENDBRANCH  13  14
ENDBRANCH   1  13
TORSDOF 9
ENDMDL
MODEL 6
REMARK VINA RESULT:      -6.5      1.879      2.327
REMARK  Name = 
REMARK  9 active torsions:
REMARK  status: ('A' for Active; 'I' for Inactive)
REMARK    1  A    between atoms: C_2  and  C_3
REMARK    2  A    between atoms: C_2  and  O_10
REMARK    3  A    between atoms: C_3  and  C_4
REMARK    4  A    between atoms: C_4  and  C_5
REMARK    5  A    between atoms: C_5  and  O_6
REMARK    6  A    between atoms: O_6  and  N_7
REMARK    7  A    between atoms: O_10  and  C_11
REMARK    8  A    between atoms: C_16  and  C_17
REMARK    9  A    between atoms: C_17  and  O_19
REMARK                            x       y       z     vdW  Elec       q    Type
REMARK                         _______ _______ _______ _____ _____    ______ ____
ROOT
ATOM      1  O   UNL     1       4.457   4.918  18.781  0.00  0.00    +0.000 OA
ENDROOT
BRANCH   1   2
ATOM      2  C   UNL     1       3.264   4.437  19.379  0.00  0.00    +0.000 A 
ATOM      3  C   UNL     1       2.361   5.358  19.933  0.00  0.00    +0.000 A 
ATOM      4  C   UNL     1       1.232   4.914  20.620  0.00  0.00    +0.000 A 
ATOM      5  C   UNL     1       0.992   3.552  20.764  0.00  0.00    +0.000 A 
ATOM      6  C   UNL     1       1.902   2.629  20.244  0.00  0.00    +0.000 A 
ATOM      7  C   UNL     1       3.055   3.059  19.563  0.00  0.00    +0.000 A 
BRANCH   7   8
ATOM      8  C   UNL     1       4.006   1.989  19.157  0.00  0.00    +0.000 C 
ATOM      9  O   UNL     1       3.734   1.152  18.314  0.00  0.00    +0.000 OA
BRANCH   8  10
ATOM     10  O   UNL     1       5.211   2.053  19.758  0.00  0.00    +0.000 OA
ATOM     11  H   UNL     1       5.167   2.223  20.714  0.00  0.00    +0.000 HD
ENDBRANCH   8  10
ENDBRANCH   7   8
ENDBRANCH   1   2
BRANCH   1  13
ATOM     12  O   UNL     1       4.295   6.708  17.289  0.00  0.00    +0.000 OA
ATOM     13  C   UNL     1       4.397   5.511  17.511  0.00  0.00    +0.000 C 
BRANCH  13  14
ATOM     14  C   UNL     1       4.520   4.458  16.431  0.00  0.00    +0.000 C 
BRANCH  14  15
ATOM     15  C   UNL     1       5.915   3.849  16.368  0.00  0.00    +0.000 C 
BRANCH  15  16
ATOM     16  C   UNL     1       6.981   4.876  15.984  0.00  0.00    +0.000 C 
BRANCH  16  17
ATOM     17  O   UNL     1       6.547   5.498  14.777  0.00  0.00    +0.000 OA
BRANCH  17  18
ATOM     18  N   UNL     1       7.278   5.065  13.644  0.00  0.00    +0.000 N 
ATOM     19  O   UNL     1       6.779   4.171  12.959  0.00  0.00    +0.000 OA
ATOM     20  O   UNL     1       8.342   5.666  13.506  0.00  0.00    +0.000 OA
ENDBRANCH  17  18
ENDBRANCH  16  17
ENDBRANCH  15  16
ENDBRANCH  14  15
ENDBRANCH  13  14
ENDBRANCH   1  13
TORSDOF 9
ENDMDL
MODEL 7
REMARK VINA RESULT:      -6.4      2.042      2.713
REMARK  Name = 
REMARK  9 active torsions:
REMARK  status: ('A' for Active; 'I' for Inactive)
REMARK    1  A    between atoms: C_2  and  C_3
REMARK    2  A    between atoms: C_2  and  O_10
REMARK    3  A    between atoms: C_3  and  C_4
REMARK    4  A    between atoms: C_4  and  C_5
REMARK    5  A    between atoms: C_5  and  O_6
REMARK    6  A    between atoms: O_6  and  N_7
REMARK    7  A    between atoms: O_10  and  C_11
REMARK    8  A    between atoms: C_16  and  C_17
REMARK    9  A    between atoms: C_17  and  O_19
REMARK                            x       y       z     vdW  Elec       q    Type
REMARK                         _______ _______ _______ _____ _____    ______ ____
ROOT
ATOM      1  O   UNL     1       4.918   4.478  18.384  0.00  0.00    +0.000 OA
ENDROOT
BRANCH   1   2
ATOM      2  C   UNL     1       3.800   4.392  19.254  0.00  0.00    +0.000 A 
ATOM      3  C   UNL     1       2.983   5.520  19.425  0.00  0.00    +0.000 A 
ATOM      4  C   UNL     1       1.940   5.503  20.351  0.00  0.00    +0.000 A 
ATOM      5  C   UNL     1       1.702   4.365  21.114  0.00  0.00    +0.000 A 
ATOM      6  C   UNL     1       2.530   3.250  20.973  0.00  0.00    +0.000 A 
ATOM      7  C   UNL     1       3.597   3.256  20.056  0.00  0.00    +0.000 A 
BRANCH   7   8
ATOM      8  C   UNL     1       4.479   2.057  20.079  0.00  0.00    +0.000 C 
ATOM      9  O   UNL     1       5.101   1.717  21.070  0.00  0.00    +0.000 OA
BRANCH   8  10
ATOM     10  O   UNL     1       4.489   1.347  18.933  0.00  0.00    +0.000 OA
ATOM     11  H   UNL     1       5.379   1.111  18.622  0.00  0.00    +0.000 HD
ENDBRANCH   8  10
ENDBRANCH   7   8
ENDBRANCH   1   2
BRANCH   1  13
ATOM     12  O   UNL     1       6.593   5.112  19.883  0.00  0.00    +0.000 OA
ATOM     13  C   UNL     1       6.050   5.197  18.792  0.00  0.00    +0.000 C 
BRANCH  13  14
ATOM     14  C   UNL     1       6.549   6.078  17.667  0.00  0.00    +0.000 C 
BRANCH  14  15
ATOM     15  C   UNL     1       5.412   6.732  16.892  0.00  0.00    +0.000 C 
BRANCH  15  16
ATOM     16  C   UNL     1       5.308   6.208  15.459  0.00  0.00    +0.000 C 
BRANCH  16  17
ATOM     17  O   UNL     1       6.558   5.598  15.145  0.00  0.00    +0.000 OA
BRANCH  17  18
ATOM     18  N   UNL     1       6.412   4.307  14.582  0.00  0.00    +0.000 N 
ATOM     19  O   UNL     1       6.660   4.184  13.382  0.00  0.00    +0.000 OA
ATOM     20  O   UNL     1       6.046   3.469  15.404  0.00  0.00    +0.000 OA
ENDBRANCH  17  18
ENDBRANCH  16  17
ENDBRANCH  15  16
ENDBRANCH  14  15
ENDBRANCH  13  14
ENDBRANCH   1  13
TORSDOF 9
ENDMDL
MODEL 8
REMARK VINA RESULT:      -6.4      1.641      2.286
REMARK  Name = 
REMARK  9 active torsions:
REMARK  status: ('A' for Active; 'I' for Inactive)
REMARK    1  A    between atoms: C_2  and  C_3
REMARK    2  A    between atoms: C_2  and  O_10
REMARK    3  A    between atoms: C_3  and  C_4
REMARK    4  A    between atoms: C_4  and  C_5
REMARK    5  A    between atoms: C_5  and  O_6
REMARK    6  A    between atoms: O_6  and  N_7
REMARK    7  A    between atoms: O_10  and  C_11
REMARK    8  A    between atoms: C_16  and  C_17
REMARK    9  A    between atoms: C_17  and  O_19
REMARK                            x       y       z     vdW  Elec       q    Type
REMARK                         _______ _______ _______ _____ _____    ______ ____
ROOT
ATOM      1  O   UNL     1       3.928   3.764  18.105  0.00  0.00    +0.000 OA
ENDROOT
BRANCH   1   2
ATOM      2  C   UNL     1       3.002   3.551  19.159  0.00  0.00    +0.000 A 
ATOM      3  C   UNL     1       1.891   4.401  19.271  0.00  0.00    +0.000 A 
ATOM      4  C   UNL     1       1.019   4.285  20.353  0.00  0.00    +0.000 A 
ATOM      5  C   UNL     1       1.246   3.325  21.334  0.00  0.00    +0.000 A 
ATOM      6  C   UNL     1       2.367   2.497  21.247  0.00  0.00    +0.000 A 
ATOM      7  C   UNL     1       3.266   2.612  20.171  0.00  0.00    +0.000 A 
BRANCH   7   8
ATOM      8  C   UNL     1       4.482   1.757  20.248  0.00  0.00    +0.000 C 
ATOM      9  O   UNL     1       5.202   1.725  21.231  0.00  0.00    +0.000 OA
BRANCH   8  10
ATOM     10  O   UNL     1       4.692   0.982  19.165  0.00  0.00    +0.000 OA
ATOM     11  H   UNL     1       5.445   1.263  18.618  0.00  0.00    +0.000 HD
ENDBRANCH   8  10
ENDBRANCH   7   8
ENDBRANCH   1   2
BRANCH   1  13
ATOM     12  O   UNL     1       6.136   4.361  18.574  0.00  0.00    +0.000 OA
ATOM     13  C   UNL     1       4.987   4.664  18.295  0.00  0.00    +0.000 C 
BRANCH  13  14
ATOM     14  C   UNL     1       4.520   6.084  18.061  0.00  0.00    +0.000 C 
BRANCH  14  15
ATOM     15  C   UNL     1       5.229   6.744  16.883  0.00  0.00    +0.000 C 
BRANCH  15  16
ATOM     16  C   UNL     1       5.428   5.782  15.712  0.00  0.00    +0.000 C 
BRANCH  16  17
ATOM     17  O   UNL     1       6.814   5.808  15.380  0.00  0.00    +0.000 OA
BRANCH  17  18
ATOM     18  N   UNL     1       7.129   4.988  14.270  0.00  0.00    +0.000 N 
ATOM     19  O   UNL     1       6.525   3.919  14.170  0.00  0.00    +0.000 OA
ATOM     20  O   UNL     1       7.990   5.481  13.543  0.00  0.00    +0.000 OA
ENDBRANCH  17  18
ENDBRANCH  16  17
ENDBRANCH  15  16
ENDBRANCH  14  15
ENDBRANCH  13  14
ENDBRANCH   1  13
TORSDOF 9
ENDMDL
MODEL 9
REMARK VINA RESULT:      -6.4      2.331      5.676
REMARK  Name = 
REMARK  9 active torsions:
REMARK  status: ('A' for Active; 'I' for Inactive)
REMARK    1  A    between atoms: C_2  and  C_3
REMARK    2  A    between atoms: C_2  and  O_10
REMARK    3  A    between atoms: C_3  and  C_4
REMARK    4  A    between atoms: C_4  and  C_5
REMARK    5  A    between atoms: C_5  and  O_6
REMARK    6  A    between atoms: O_6  and  N_7
REMARK    7  A    between atoms: O_10  and  C_11
REMARK    8  A    between atoms: C_16  and  C_17
REMARK    9  A    between atoms: C_17  and  O_19
REMARK                            x       y       z     vdW  Elec       q    Type
REMARK                         _______ _______ _______ _____ _____    ______ ____
ROOT
ATOM      1  O   UNL     1       4.504   5.730  18.989  0.00  0.00    +0.000 OA
ENDROOT
BRANCH   1   2
ATOM      2  C   UNL     1       5.280   5.384  17.852  0.00  0.00    +0.000 A 
ATOM      3  C   UNL     1       4.634   4.851  16.726  0.00  0.00    +0.000 A 
ATOM      4  C   UNL     1       5.375   4.403  15.633  0.00  0.00    +0.000 A 
ATOM      5  C   UNL     1       6.764   4.480  15.652  0.00  0.00    +0.000 A 
ATOM      6  C   UNL     1       7.415   4.980  16.781  0.00  0.00    +0.000 A 
ATOM      7  C   UNL     1       6.684   5.420  17.899  0.00  0.00    +0.000 A 
BRANCH   7   8
ATOM      8  C   UNL     1       7.489   5.821  19.085  0.00  0.00    +0.000 C 
ATOM      9  O   UNL     1       7.479   5.192  20.129  0.00  0.00    +0.000 OA
BRANCH   8  10
ATOM     10  O   UNL     1       8.271   6.902  18.892  0.00  0.00    +0.000 OA
ATOM     11  H   UNL     1       8.092   7.634  19.506  0.00  0.00    +0.000 HD
ENDBRANCH   8  10
ENDBRANCH   7   8
ENDBRANCH   1   2
BRANCH   1  13
ATOM     12  O   UNL     1       4.402   3.600  19.941  0.00  0.00    +0.000 OA
ATOM     13  C   UNL     1       3.929   4.712  19.763  0.00  0.00    +0.000 C 
BRANCH  13  14
ATOM     14  C   UNL     1       2.642   5.194  20.395  0.00  0.00    +0.000 C 
BRANCH  14  15
ATOM     15  C   UNL     1       1.818   4.053  20.981  0.00  0.00    +0.000 C 
BRANCH  15  16
ATOM     16  C   UNL     1       0.747   3.552  20.011  0.00  0.00    +0.000 C 
BRANCH  16  17
ATOM     17  O   UNL     1       1.275   2.394  19.367  0.00  0.00    +0.000 OA
BRANCH  17  18
ATOM     18  N   UNL     1       1.748   2.662  18.060  0.00  0.00    +0.000 N 
ATOM     19  O   UNL     1       2.638   1.932  17.622  0.00  0.00    +0.000 OA
ATOM     20  O   UNL     1       1.181   3.618  17.535  0.00  0.00    +0.000 OA
ENDBRANCH  17  18
ENDBRANCH  16  17
ENDBRANCH  15  16
ENDBRANCH  14  15
ENDBRANCH  13  14
ENDBRANCH   1  13
TORSDOF 9
ENDMDL
