MODEL 1
REMARK VINA RESULT:      -7.9      0.000      0.000
REMARK  Name = 
REMARK  10 active torsions:
REMARK  status: ('A' for Active; 'I' for Inactive)
REMARK    1  A    between atoms: C_1  and  O_2
REMARK    2  A    between atoms: O_2  and  N_3
REMARK    3  A    between atoms: C_4  and  C_5
REMARK    4  A    between atoms: C_4  and  C_9
REMARK    5  A    between atoms: C_5  and  O_7
REMARK    6  A    between atoms: O_7  and  C_8
REMARK    7  A    between atoms: C_13  and  C_14
REMARK    8  A    between atoms: C_14  and  N_15
REMARK    9  A    between atoms: C_17  and  C_18
REMARK   10  A    between atoms: C_18  and  O_19
REMARK                            x       y       z     vdW  Elec       q    Type
REMARK                         _______ _______ _______ _____ _____    ______ ____
ROOT
ATOM      1  C   UNL     1       0.729   9.842  19.136  0.00  0.00    +0.000 A 
ATOM      2  C   UNL     1       0.591   9.322  20.430  0.00  0.00    +0.000 A 
ATOM      3  C   UNL     1       1.275   8.162  20.812  0.00  0.00    +0.000 A 
ATOM      4  C   UNL     1       2.149   7.541  19.924  0.00  0.00    +0.000 A 
ATOM      5  C   UNL     1       2.332   8.057  18.637  0.00  0.00    +0.000 A 
ATOM      6  C   UNL     1       1.602   9.193  18.244  0.00  0.00    +0.000 A 
ENDROOT
BRANCH   1   8
ATOM      7  N   UNL     1       0.532  12.304  18.615  0.00  0.00    +0.000 NA
ATOM      8  C   UNL     1       0.035  11.100  18.711  0.00  0.00    +0.000 C 
BRANCH   7  10
ATOM      9  C   UNL     1       2.492  13.469  18.390  0.00  0.00    +0.000 C 
ATOM     10  O   UNL     1       1.843  12.412  19.086  0.00  0.00    +0.000 OA
ENDBRANCH   7  10
BRANCH   8  11
ATOM     11  C   UNL     1      -1.445  10.967  18.321  0.00  0.00    +0.000 C 
ATOM     12  O   UNL     1      -2.324  11.648  18.829  0.00  0.00    +0.000 OA
BRANCH  11  13
ATOM     13  O   UNL     1      -1.597  10.075  17.320  0.00  0.00    +0.000 OA
ATOM     14  C   UNL     1      -2.951   9.874  16.917  0.00  0.00    +0.000 C 
ENDBRANCH  11  13
ENDBRANCH   8  11
ENDBRANCH   1   8
BRANCH   5  15
ATOM     15  C   UNL     1       3.319   7.425  17.692  0.00  0.00    +0.000 C 
BRANCH  15  16
ATOM     16  N   UNL     1       3.750   6.113  18.139  0.00  0.00    +0.000 N 
ATOM     17  C   UNL     1       3.019   4.957  18.225  0.00  0.00    +0.000 A 
ATOM     18  C   UNL     1       3.825   4.101  18.952  0.00  0.00    +0.000 A 
ATOM     19  N   UNL     1       5.020   4.739  19.202  0.00  0.00    +0.000 NA
ATOM     20  N   UNL     1       4.953   5.970  18.718  0.00  0.00    +0.000 NA
BRANCH  18  21
ATOM     21  C   UNL     1       3.616   2.710  19.509  0.00  0.00    +0.000 C 
ATOM     22  C   UNL     1       3.090   2.764  20.958  0.00  0.00    +0.000 C 
ATOM     23  C   UNL     1       1.701   3.392  21.042  0.00  0.00    +0.000 C 
ATOM     24  C   UNL     1       0.681   2.761  20.097  0.00  0.00    +0.000 C 
ATOM     25  C   UNL     1       1.202   2.309  18.732  0.00  0.00    +0.000 C 
ATOM     26  C   UNL     1       2.649   1.819  18.717  0.00  0.00    +0.000 C 
BRANCH  21  27
ATOM     27  O   UNL     1       4.877   2.019  19.548  0.00  0.00    +0.000 OA
ATOM     28  H   UNL     1       5.136   1.890  18.616  0.00  0.00    +0.000 HD
ENDBRANCH  21  27
ENDBRANCH  18  21
ENDBRANCH  15  16
ENDBRANCH   5  15
TORSDOF 8
ENDMDL
MODEL 2
REMARK VINA RESULT:      -7.8      0.741      2.387
REMARK  Name = 
REMARK  10 active torsions:
REMARK  status: ('A' for Active; 'I' for Inactive)
REMARK    1  A    between atoms: C_1  and  O_2
REMARK    2  A    between atoms: O_2  and  N_3
REMARK    3  A    between atoms: C_4  and  C_5
REMARK    4  A    between atoms: C_4  and  C_9
REMARK    5  A    between atoms: C_5  and  O_7
REMARK    6  A    between atoms: O_7  and  C_8
REMARK    7  A    between atoms: C_13  and  C_14
REMARK    8  A    between atoms: C_14  and  N_15
REMARK    9  A    between atoms: C_17  and  C_18
REMARK   10  A    between atoms: C_18  and  O_19
REMARK                            x       y       z     vdW  Elec       q    Type
REMARK                         _______ _______ _______ _____ _____    ______ ____
ROOT
ATOM      1  C   UNL     1       0.584   9.891  19.123  0.00  0.00    +0.000 A 
ATOM      2  C   UNL     1       0.500   9.394  20.430  0.00  0.00    +0.000 A 
ATOM      3  C   UNL     1       1.235   8.266  20.817  0.00  0.00    +0.000 A 
ATOM      4  C   UNL     1       2.105   7.658  19.917  0.00  0.00    +0.000 A 
ATOM      5  C   UNL     1       2.234   8.152  18.614  0.00  0.00    +0.000 A 
ATOM      6  C   UNL     1       1.454   9.254  18.220  0.00  0.00    +0.000 A 
ENDROOT
BRANCH   1   8
ATOM      7  N   UNL     1      -1.394  11.195  18.252  0.00  0.00    +0.000 NA
ATOM      8  C   UNL     1      -0.166  11.114  18.693  0.00  0.00    +0.000 C 
BRANCH   7  10
ATOM      9  C   UNL     1      -2.358   9.827  16.689  0.00  0.00    +0.000 C 
ATOM     10  O   UNL     1      -2.007   9.955  18.061  0.00  0.00    +0.000 OA
ENDBRANCH   7  10
BRANCH   8  11
ATOM     11  C   UNL     1       0.585  12.451  18.796  0.00  0.00    +0.000 C 
ATOM     12  O   UNL     1       0.110  13.506  18.401  0.00  0.00    +0.000 OA
BRANCH  11  13
ATOM     13  O   UNL     1       1.763  12.288  19.432  0.00  0.00    +0.000 OA
ATOM     14  C   UNL     1       2.565  13.468  19.487  0.00  0.00    +0.000 C 
ENDBRANCH  11  13
ENDBRANCH   8  11
ENDBRANCH   1   8
BRANCH   5  15
ATOM     15  C   UNL     1       3.216   7.535  17.654  0.00  0.00    +0.000 C 
BRANCH  15  16
ATOM     16  N   UNL     1       3.661   6.223  18.087  0.00  0.00    +0.000 N 
ATOM     17  C   UNL     1       2.923   5.080  18.244  0.00  0.00    +0.000 A 
ATOM     18  C   UNL     1       3.770   4.221  18.921  0.00  0.00    +0.000 A 
ATOM     19  N   UNL     1       4.989   4.845  19.071  0.00  0.00    +0.000 NA
ATOM     20  N   UNL     1       4.903   6.070  18.576  0.00  0.00    +0.000 NA
BRANCH  18  21
ATOM     21  C   UNL     1       3.584   2.841  19.513  0.00  0.00    +0.000 C 
ATOM     22  C   UNL     1       3.009   2.921  20.942  0.00  0.00    +0.000 C 
ATOM     23  C   UNL     1       1.600   3.508  20.963  0.00  0.00    +0.000 C 
ATOM     24  C   UNL     1       0.631   2.819  20.006  0.00  0.00    +0.000 C 
ATOM     25  C   UNL     1       1.210   2.344  18.672  0.00  0.00    +0.000 C 
ATOM     26  C   UNL     1       2.670   1.898  18.718  0.00  0.00    +0.000 C 
BRANCH  21  27
ATOM     27  O   UNL     1       4.863   2.190  19.612  0.00  0.00    +0.000 OA
ATOM     28  H   UNL     1       4.770   1.533  20.326  0.00  0.00    +0.000 HD
ENDBRANCH  21  27
ENDBRANCH  18  21
ENDBRANCH  15  16
ENDBRANCH   5  15
TORSDOF 8
ENDMDL
MODEL 3
REMARK VINA RESULT:      -7.6      1.253      1.527
REMARK  Name = 
REMARK  10 active torsions:
REMARK  status: ('A' for Active; 'I' for Inactive)
REMARK    1  A    between atoms: C_1  and  O_2
REMARK    2  A    between atoms: O_2  and  N_3
REMARK    3  A    between atoms: C_4  and  C_5
REMARK    4  A    between atoms: C_4  and  C_9
REMARK    5  A    between atoms: C_5  and  O_7
REMARK    6  A    between atoms: O_7  and  C_8
REMARK    7  A    between atoms: C_13  and  C_14
REMARK    8  A    between atoms: C_14  and  N_15
REMARK    9  A    between atoms: C_17  and  C_18
REMARK   10  A    between atoms: C_18  and  O_19
REMARK                            x       y       z     vdW  Elec       q    Type
REMARK                         _______ _______ _______ _____ _____    ______ ____
ROOT
ATOM      1  C   UNL     1       0.626  10.033  20.092  0.00  0.00    +0.000 A 
ATOM      2  C   UNL     1       0.597   9.239  21.246  0.00  0.00    +0.000 A 
ATOM      3  C   UNL     1       1.214   7.982  21.267  0.00  0.00    +0.000 A 
ATOM      4  C   UNL     1       1.917   7.530  20.153  0.00  0.00    +0.000 A 
ATOM      5  C   UNL     1       1.990   8.316  18.998  0.00  0.00    +0.000 A 
ATOM      6  C   UNL     1       1.324   9.554  18.969  0.00  0.00    +0.000 A 
ENDROOT
BRANCH   1   8
ATOM      7  N   UNL     1       0.537  12.538  20.389  0.00  0.00    +0.000 NA
ATOM      8  C   UNL     1       0.001  11.394  20.054  0.00  0.00    +0.000 C 
BRANCH   7  10
ATOM      9  C   UNL     1       2.593  13.534  20.549  0.00  0.00    +0.000 C 
ATOM     10  O   UNL     1       1.808  12.420  20.957  0.00  0.00    +0.000 OA
ENDBRANCH   7  10
BRANCH   8  11
ATOM     11  C   UNL     1      -1.445  11.471  19.542  0.00  0.00    +0.000 C 
ATOM     12  O   UNL     1      -1.769  11.104  18.422  0.00  0.00    +0.000 OA
BRANCH  11  13
ATOM     13  O   UNL     1      -2.271  11.915  20.513  0.00  0.00    +0.000 OA
ATOM     14  C   UNL     1      -3.367  12.694  20.034  0.00  0.00    +0.000 C 
ENDBRANCH  11  13
ENDBRANCH   8  11
ENDBRANCH   1   8
BRANCH   5  15
ATOM     15  C   UNL     1       2.796   7.860  17.812  0.00  0.00    +0.000 C 
BRANCH  15  16
ATOM     16  N   UNL     1       3.235   6.482  17.939  0.00  0.00    +0.000 N 
ATOM     17  C   UNL     1       2.476   5.342  17.953  0.00  0.00    +0.000 A 
ATOM     18  C   UNL     1       3.354   4.355  18.362  0.00  0.00    +0.000 A 
ATOM     19  N   UNL     1       4.604   4.919  18.499  0.00  0.00    +0.000 NA
ATOM     20  N   UNL     1       4.513   6.217  18.257  0.00  0.00    +0.000 NA
BRANCH  18  21
ATOM     21  C   UNL     1       3.179   2.890  18.698  0.00  0.00    +0.000 C 
ATOM     22  C   UNL     1       3.549   2.608  20.168  0.00  0.00    +0.000 C 
ATOM     23  C   UNL     1       2.608   3.311  21.144  0.00  0.00    +0.000 C 
ATOM     24  C   UNL     1       1.129   3.041  20.875  0.00  0.00    +0.000 C 
ATOM     25  C   UNL     1       0.712   2.919  19.409  0.00  0.00    +0.000 C 
ATOM     26  C   UNL     1       1.768   2.327  18.478  0.00  0.00    +0.000 C 
BRANCH  21  27
ATOM     27  O   UNL     1       4.069   2.107  17.885  0.00  0.00    +0.000 OA
ATOM     28  H   UNL     1       4.895   2.030  18.396  0.00  0.00    +0.000 HD
ENDBRANCH  21  27
ENDBRANCH  18  21
ENDBRANCH  15  16
ENDBRANCH   5  15
TORSDOF 8
ENDMDL
MODEL 4
REMARK VINA RESULT:      -7.6      1.264      1.643
REMARK  Name = 
REMARK  10 active torsions:
REMARK  status: ('A' for Active; 'I' for Inactive)
REMARK    1  A    between atoms: C_1  and  O_2
REMARK    2  A    between atoms: O_2  and  N_3
REMARK    3  A    between atoms: C_4  and  C_5
REMARK    4  A    between atoms: C_4  and  C_9
REMARK    5  A    between atoms: C_5  and  O_7
REMARK    6  A    between atoms: O_7  and  C_8
REMARK    7  A    between atoms: C_13  and  C_14
REMARK    8  A    between atoms: C_14  and  N_15
REMARK    9  A    between atoms: C_17  and  C_18
REMARK   10  A    between atoms: C_18  and  O_19
REMARK                            x       y       z     vdW  Elec       q    Type
REMARK                         _______ _______ _______ _____ _____    ______ ____
ROOT
ATOM      1  C   UNL     1      -0.062  10.013  19.037  0.00  0.00    +0.000 A 
ATOM      2  C   UNL     1      -0.128   9.612  20.378  0.00  0.00    +0.000 A 
ATOM      3  C   UNL     1       0.766   8.663  20.887  0.00  0.00    +0.000 A 
ATOM      4  C   UNL     1       1.773   8.146  20.077  0.00  0.00    +0.000 A 
ATOM      5  C   UNL     1       1.884   8.552  18.743  0.00  0.00    +0.000 A 
ATOM      6  C   UNL     1       0.950   9.467  18.226  0.00  0.00    +0.000 A 
ENDROOT
BRANCH   1   8
ATOM      7  N   UNL     1      -0.776  12.334  18.349  0.00  0.00    +0.000 NA
ATOM      8  C   UNL     1      -0.985  11.050  18.475  0.00  0.00    +0.000 C 
BRANCH   7  10
ATOM      9  C   UNL     1       0.242  14.105  19.384  0.00  0.00    +0.000 C 
ATOM     10  O   UNL     1       0.418  12.770  18.927  0.00  0.00    +0.000 OA
ENDBRANCH   7  10
BRANCH   8  11
ATOM     11  C   UNL     1      -2.346  10.553  17.964  0.00  0.00    +0.000 C 
ATOM     12  O   UNL     1      -2.475   9.509  17.342  0.00  0.00    +0.000 OA
BRANCH  11  13
ATOM     13  O   UNL     1      -3.336  11.378  18.364  0.00  0.00    +0.000 OA
ATOM     14  C   UNL     1      -4.322  11.633  17.364  0.00  0.00    +0.000 C 
ENDBRANCH  11  13
ENDBRANCH   8  11
ENDBRANCH   1   8
BRANCH   5  15
ATOM     15  C   UNL     1       3.005   8.042  17.878  0.00  0.00    +0.000 C 
BRANCH  15  16
ATOM     16  N   UNL     1       3.134   6.597  17.935  0.00  0.00    +0.000 N 
ATOM     17  C   UNL     1       2.149   5.648  17.861  0.00  0.00    +0.000 A 
ATOM     18  C   UNL     1       2.779   4.476  18.235  0.00  0.00    +0.000 A 
ATOM     19  N   UNL     1       4.114   4.749  18.439  0.00  0.00    +0.000 NA
ATOM     20  N   UNL     1       4.312   6.047  18.272  0.00  0.00    +0.000 NA
BRANCH  18  21
ATOM     21  C   UNL     1       2.282   3.068  18.479  0.00  0.00    +0.000 C 
ATOM     22  C   UNL     1       3.216   2.306  19.440  0.00  0.00    +0.000 C 
ATOM     23  C   UNL     1       3.231   2.923  20.837  0.00  0.00    +0.000 C 
ATOM     24  C   UNL     1       1.842   3.117  21.440  0.00  0.00    +0.000 C 
ATOM     25  C   UNL     1       0.727   3.515  20.471  0.00  0.00    +0.000 C 
ATOM     26  C   UNL     1       0.864   2.959  19.056  0.00  0.00    +0.000 C 
BRANCH  21  27
ATOM     27  O   UNL     1       2.279   2.343  17.236  0.00  0.00    +0.000 OA
ATOM     28  H   UNL     1       2.584   1.443  17.455  0.00  0.00    +0.000 HD
ENDBRANCH  21  27
ENDBRANCH  18  21
ENDBRANCH  15  16
ENDBRANCH   5  15
TORSDOF 8
ENDMDL
MODEL 5
REMARK VINA RESULT:      -7.5      1.086      1.358
REMARK  Name = 
REMARK  10 active torsions:
REMARK  status: ('A' for Active; 'I' for Inactive)
REMARK    1  A    between atoms: C_1  and  O_2
REMARK    2  A    between atoms: O_2  and  N_3
REMARK    3  A    between atoms: C_4  and  C_5
REMARK    4  A    between atoms: C_4  and  C_9
REMARK    5  A    between atoms: C_5  and  O_7
REMARK    6  A    between atoms: O_7  and  C_8
REMARK    7  A    between atoms: C_13  and  C_14
REMARK    8  A    between atoms: C_14  and  N_15
REMARK    9  A    between atoms: C_17  and  C_18
REMARK   10  A    between atoms: C_18  and  O_19
REMARK                            x       y       z     vdW  Elec       q    Type
REMARK                         _______ _______ _______ _____ _____    ______ ____
ROOT
ATOM      1  C   UNL     1       0.561   9.898  19.183  0.00  0.00    +0.000 A 
ATOM      2  C   UNL     1       0.398   9.380  20.475  0.00  0.00    +0.000 A 
ATOM      3  C   UNL     1       1.116   8.252  20.890  0.00  0.00    +0.000 A 
ATOM      4  C   UNL     1       2.046   7.663  20.038  0.00  0.00    +0.000 A 
ATOM      5  C   UNL     1       2.253   8.179  18.754  0.00  0.00    +0.000 A 
ATOM      6  C   UNL     1       1.491   9.281  18.328  0.00  0.00    +0.000 A 
ENDROOT
BRANCH   1   8
ATOM      7  N   UNL     1       0.273  12.351  18.660  0.00  0.00    +0.000 NA
ATOM      8  C   UNL     1      -0.170  11.123  18.725  0.00  0.00    +0.000 C 
BRANCH   7  10
ATOM      9  C   UNL     1       1.613  13.794  19.830  0.00  0.00    +0.000 C 
ATOM     10  O   UNL     1       1.550  12.519  19.202  0.00  0.00    +0.000 OA
ENDBRANCH   7  10
BRANCH   8  11
ATOM     11  C   UNL     1      -1.619  10.922  18.255  0.00  0.00    +0.000 C 
ATOM     12  O   UNL     1      -2.579  11.356  18.873  0.00  0.00    +0.000 OA
BRANCH  11  13
ATOM     13  O   UNL     1      -1.649  10.286  17.065  0.00  0.00    +0.000 OA
ATOM     14  C   UNL     1      -2.924   9.740  16.728  0.00  0.00    +0.000 C 
ENDBRANCH  11  13
ENDBRANCH   8  11
ENDBRANCH   1   8
BRANCH   5  15
ATOM     15  C   UNL     1       3.299   7.584  17.850  0.00  0.00    +0.000 C 
BRANCH  15  16
ATOM     16  N   UNL     1       3.149   6.147  17.701  0.00  0.00    +0.000 N 
ATOM     17  C   UNL     1       2.191   5.329  18.238  0.00  0.00    +0.000 A 
ATOM     18  C   UNL     1       2.668   4.052  18.006  0.00  0.00    +0.000 A 
ATOM     19  N   UNL     1       3.836   4.152  17.281  0.00  0.00    +0.000 NA
ATOM     20  N   UNL     1       4.126   5.433  17.119  0.00  0.00    +0.000 NA
BRANCH  18  21
ATOM     21  C   UNL     1       2.186   2.678  18.418  0.00  0.00    +0.000 C 
ATOM     22  C   UNL     1       3.165   2.018  19.409  0.00  0.00    +0.000 C 
ATOM     23  C   UNL     1       3.243   2.777  20.732  0.00  0.00    +0.000 C 
ATOM     24  C   UNL     1       1.883   3.037  21.375  0.00  0.00    +0.000 C 
ATOM     25  C   UNL     1       0.723   3.334  20.423  0.00  0.00    +0.000 C 
ATOM     26  C   UNL     1       0.796   2.634  19.068  0.00  0.00    +0.000 C 
BRANCH  21  27
ATOM     27  O   UNL     1       2.127   1.829  17.259  0.00  0.00    +0.000 OA
ATOM     28  H   UNL     1       2.984   1.363  17.229  0.00  0.00    +0.000 HD
ENDBRANCH  21  27
ENDBRANCH  18  21
ENDBRANCH  15  16
ENDBRANCH   5  15
TORSDOF 8
ENDMDL
MODEL 6
REMARK VINA RESULT:      -7.4      1.295      1.429
REMARK  Name = 
REMARK  10 active torsions:
REMARK  status: ('A' for Active; 'I' for Inactive)
REMARK    1  A    between atoms: C_1  and  O_2
REMARK    2  A    between atoms: O_2  and  N_3
REMARK    3  A    between atoms: C_4  and  C_5
REMARK    4  A    between atoms: C_4  and  C_9
REMARK    5  A    between atoms: C_5  and  O_7
REMARK    6  A    between atoms: O_7  and  C_8
REMARK    7  A    between atoms: C_13  and  C_14
REMARK    8  A    between atoms: C_14  and  N_15
REMARK    9  A    between atoms: C_17  and  C_18
REMARK   10  A    between atoms: C_18  and  O_19
REMARK                            x       y       z     vdW  Elec       q    Type
REMARK                         _______ _______ _______ _____ _____    ______ ____
ROOT
ATOM      1  C   UNL     1      -0.201  10.143  18.728  0.00  0.00    +0.000 A 
ATOM      2  C   UNL     1      -0.303   9.825  20.089  0.00  0.00    +0.000 A 
ATOM      3  C   UNL     1       0.621   8.964  20.695  0.00  0.00    +0.000 A 
ATOM      4  C   UNL     1       1.689   8.458  19.961  0.00  0.00    +0.000 A 
ATOM      5  C   UNL     1       1.835   8.784  18.608  0.00  0.00    +0.000 A 
ATOM      6  C   UNL     1       0.874   9.608  17.995  0.00  0.00    +0.000 A 
ENDROOT
BRANCH   1   8
ATOM      7  N   UNL     1      -1.110  12.392  18.030  0.00  0.00    +0.000 NA
ATOM      8  C   UNL     1      -1.156  11.086  18.063  0.00  0.00    +0.000 C 
BRANCH   7  10
ATOM      9  C   UNL     1      -0.308  14.344  18.920  0.00  0.00    +0.000 C 
ATOM     10  O   UNL     1      -0.097  12.941  18.820  0.00  0.00    +0.000 OA
ENDBRANCH   7  10
BRANCH   8  11
ATOM     11  C   UNL     1      -2.334  10.451  17.308  0.00  0.00    +0.000 C 
ATOM     12  O   UNL     1      -2.967   9.504  17.751  0.00  0.00    +0.000 OA
BRANCH  11  13
ATOM     13  O   UNL     1      -2.590  11.127  16.169  0.00  0.00    +0.000 OA
ATOM     14  C   UNL     1      -2.956  10.296  15.067  0.00  0.00    +0.000 C 
ENDBRANCH  11  13
ENDBRANCH   8  11
ENDBRANCH   1   8
BRANCH   5  15
ATOM     15  C   UNL     1       3.020   8.288  17.824  0.00  0.00    +0.000 C 
BRANCH  15  16
ATOM     16  N   UNL     1       3.199   6.852  17.943  0.00  0.00    +0.000 N 
ATOM     17  C   UNL     1       2.757   6.015  18.933  0.00  0.00    +0.000 A 
ATOM     18  C   UNL     1       3.423   4.827  18.695  0.00  0.00    +0.000 A 
ATOM     19  N   UNL     1       4.167   4.972  17.544  0.00  0.00    +0.000 NA
ATOM     20  N   UNL     1       4.036   6.214  17.107  0.00  0.00    +0.000 NA
BRANCH  18  21
ATOM     21  C   UNL     1       3.500   3.517  19.448  0.00  0.00    +0.000 C 
ATOM     22  C   UNL     1       2.680   3.575  20.752  0.00  0.00    +0.000 C 
ATOM     23  C   UNL     1       1.186   3.743  20.485  0.00  0.00    +0.000 C 
ATOM     24  C   UNL     1       0.616   2.717  19.508  0.00  0.00    +0.000 C 
ATOM     25  C   UNL     1       1.527   2.292  18.355  0.00  0.00    +0.000 C 
ATOM     26  C   UNL     1       3.020   2.281  18.675  0.00  0.00    +0.000 C 
BRANCH  21  27
ATOM     27  O   UNL     1       4.865   3.265  19.824  0.00  0.00    +0.000 OA
ATOM     28  H   UNL     1       5.306   2.943  19.016  0.00  0.00    +0.000 HD
ENDBRANCH  21  27
ENDBRANCH  18  21
ENDBRANCH  15  16
ENDBRANCH   5  15
TORSDOF 8
ENDMDL
MODEL 7
REMARK VINA RESULT:      -7.3      0.859      1.021
REMARK  Name = 
REMARK  10 active torsions:
REMARK  status: ('A' for Active; 'I' for Inactive)
REMARK    1  A    between atoms: C_1  and  O_2
REMARK    2  A    between atoms: O_2  and  N_3
REMARK    3  A    between atoms: C_4  and  C_5
REMARK    4  A    between atoms: C_4  and  C_9
REMARK    5  A    between atoms: C_5  and  O_7
REMARK    6  A    between atoms: O_7  and  C_8
REMARK    7  A    between atoms: C_13  and  C_14
REMARK    8  A    between atoms: C_14  and  N_15
REMARK    9  A    between atoms: C_17  and  C_18
REMARK   10  A    between atoms: C_18  and  O_19
REMARK                            x       y       z     vdW  Elec       q    Type
REMARK                         _______ _______ _______ _____ _____    ______ ____
ROOT
ATOM      1  C   UNL     1       0.821  10.112  19.791  0.00  0.00    +0.000 A 
ATOM      2  C   UNL     1       0.822   9.450  21.026  0.00  0.00    +0.000 A 
ATOM      3  C   UNL     1       1.391   8.178  21.156  0.00  0.00    +0.000 A 
ATOM      4  C   UNL     1       2.017   7.577  20.067  0.00  0.00    +0.000 A 
ATOM      5  C   UNL     1       2.060   8.229  18.830  0.00  0.00    +0.000 A 
ATOM      6  C   UNL     1       1.441   9.484  18.696  0.00  0.00    +0.000 A 
ENDROOT
BRANCH   1   8
ATOM      7  N   UNL     1       0.864  12.582  19.271  0.00  0.00    +0.000 NA
ATOM      8  C   UNL     1       0.248  11.487  19.632  0.00  0.00    +0.000 C 
BRANCH   7  10
ATOM      9  C   UNL     1       2.733  13.450  18.272  0.00  0.00    +0.000 C 
ATOM     10  O   UNL     1       2.247  12.434  19.141  0.00  0.00    +0.000 OA
ENDBRANCH   7  10
BRANCH   8  11
ATOM     11  C   UNL     1      -1.255  11.640  19.909  0.00  0.00    +0.000 C 
ATOM     12  O   UNL     1      -1.716  11.685  21.040  0.00  0.00    +0.000 OA
BRANCH  11  13
ATOM     13  O   UNL     1      -1.940  11.788  18.755  0.00  0.00    +0.000 OA
ATOM     14  C   UNL     1      -2.070  10.587  17.996  0.00  0.00    +0.000 C 
ENDBRANCH  11  13
ENDBRANCH   8  11
ENDBRANCH   1   8
BRANCH   5  15
ATOM     15  C   UNL     1       2.786   7.612  17.665  0.00  0.00    +0.000 C 
BRANCH  15  16
ATOM     16  N   UNL     1       3.247   6.265  17.951  0.00  0.00    +0.000 N 
ATOM     17  C   UNL     1       2.533   5.097  17.933  0.00  0.00    +0.000 A 
ATOM     18  C   UNL     1       3.373   4.178  18.535  0.00  0.00    +0.000 A 
ATOM     19  N   UNL     1       4.568   4.803  18.814  0.00  0.00    +0.000 NA
ATOM     20  N   UNL     1       4.471   6.078  18.471  0.00  0.00    +0.000 NA
BRANCH  18  21
ATOM     21  C   UNL     1       3.198   2.731  18.943  0.00  0.00    +0.000 C 
ATOM     22  C   UNL     1       3.493   2.537  20.444  0.00  0.00    +0.000 C 
ATOM     23  C   UNL     1       2.492   3.278  21.328  0.00  0.00    +0.000 C 
ATOM     24  C   UNL     1       1.033   2.970  20.997  0.00  0.00    +0.000 C 
ATOM     25  C   UNL     1       0.697   2.760  19.520  0.00  0.00    +0.000 C 
ATOM     26  C   UNL     1       1.809   2.134  18.681  0.00  0.00    +0.000 C 
BRANCH  21  27
ATOM     27  O   UNL     1       4.141   1.918  18.223  0.00  0.00    +0.000 OA
ATOM     28  H   UNL     1       3.605   1.324  17.666  0.00  0.00    +0.000 HD
ENDBRANCH  21  27
ENDBRANCH  18  21
ENDBRANCH  15  16
ENDBRANCH   5  15
TORSDOF 8
ENDMDL
MODEL 8
REMARK VINA RESULT:      -7.2      2.890      7.983
REMARK  Name = 
REMARK  10 active torsions:
REMARK  status: ('A' for Active; 'I' for Inactive)
REMARK    1  A    between atoms: C_1  and  O_2
REMARK    2  A    between atoms: O_2  and  N_3
REMARK    3  A    between atoms: C_4  and  C_5
REMARK    4  A    between atoms: C_4  and  C_9
REMARK    5  A    between atoms: C_5  and  O_7
REMARK    6  A    between atoms: O_7  and  C_8
REMARK    7  A    between atoms: C_13  and  C_14
REMARK    8  A    between atoms: C_14  and  N_15
REMARK    9  A    between atoms: C_17  and  C_18
REMARK   10  A    between atoms: C_18  and  O_19
REMARK                            x       y       z     vdW  Elec       q    Type
REMARK                         _______ _______ _______ _____ _____    ______ ____
ROOT
ATOM      1  C   UNL     1       4.237   4.886  17.598  0.00  0.00    +0.000 A 
ATOM      2  C   UNL     1       3.330   3.868  17.277  0.00  0.00    +0.000 A 
ATOM      3  C   UNL     1       2.105   3.763  17.947  0.00  0.00    +0.000 A 
ATOM      4  C   UNL     1       1.749   4.709  18.905  0.00  0.00    +0.000 A 
ATOM      5  C   UNL     1       2.622   5.756  19.221  0.00  0.00    +0.000 A 
ATOM      6  C   UNL     1       3.871   5.823  18.580  0.00  0.00    +0.000 A 
ENDROOT
BRANCH   1   8
ATOM      7  N   UNL     1       6.746   4.818  17.326  0.00  0.00    +0.000 NA
ATOM      8  C   UNL     1       5.540   5.040  16.874  0.00  0.00    +0.000 C 
BRANCH   7  10
ATOM      9  C   UNL     1       7.492   5.553  19.363  0.00  0.00    +0.000 C 
ATOM     10  O   UNL     1       6.790   4.516  18.689  0.00  0.00    +0.000 OA
ENDBRANCH   7  10
BRANCH   8  11
ATOM     11  C   UNL     1       5.462   5.499  15.410  0.00  0.00    +0.000 C 
ATOM     12  O   UNL     1       5.496   6.676  15.086  0.00  0.00    +0.000 OA
BRANCH  11  13
ATOM     13  O   UNL     1       5.429   4.436  14.578  0.00  0.00    +0.000 OA
ATOM     14  C   UNL     1       6.595   4.293  13.768  0.00  0.00    +0.000 C 
ENDBRANCH  11  13
ENDBRANCH   8  11
ENDBRANCH   1   8
BRANCH   5  15
ATOM     15  C   UNL     1       2.219   6.814  20.212  0.00  0.00    +0.000 C 
BRANCH  15  16
ATOM     16  N   UNL     1       1.832   8.057  19.567  0.00  0.00    +0.000 N 
ATOM     17  C   UNL     1       1.064   9.075  20.066  0.00  0.00    +0.000 A 
ATOM     18  C   UNL     1       0.792   9.864  18.964  0.00  0.00    +0.000 A 
ATOM     19  N   UNL     1       1.462   9.340  17.880  0.00  0.00    +0.000 NA
ATOM     20  N   UNL     1       2.076   8.229  18.258  0.00  0.00    +0.000 NA
BRANCH  18  21
ATOM     21  C   UNL     1      -0.081  11.083  18.756  0.00  0.00    +0.000 C 
ATOM     22  C   UNL     1      -1.047  11.285  19.942  0.00  0.00    +0.000 C 
ATOM     23  C   UNL     1      -0.306  11.597  21.240  0.00  0.00    +0.000 C 
ATOM     24  C   UNL     1       0.687  12.751  21.121  0.00  0.00    +0.000 C 
ATOM     25  C   UNL     1       1.442  12.868  19.796  0.00  0.00    +0.000 C 
ATOM     26  C   UNL     1       0.669  12.408  18.563  0.00  0.00    +0.000 C 
BRANCH  21  27
ATOM     27  O   UNL     1      -0.892  10.892  17.584  0.00  0.00    +0.000 OA
ATOM     28  H   UNL     1      -1.799  11.133  17.848  0.00  0.00    +0.000 HD
ENDBRANCH  21  27
ENDBRANCH  18  21
ENDBRANCH  15  16
ENDBRANCH   5  15
TORSDOF 8
ENDMDL
MODEL 9
REMARK VINA RESULT:      -7.2      3.073      8.210
REMARK  Name = 
REMARK  10 active torsions:
REMARK  status: ('A' for Active; 'I' for Inactive)
REMARK    1  A    between atoms: C_1  and  O_2
REMARK    2  A    between atoms: O_2  and  N_3
REMARK    3  A    between atoms: C_4  and  C_5
REMARK    4  A    between atoms: C_4  and  C_9
REMARK    5  A    between atoms: C_5  and  O_7
REMARK    6  A    between atoms: O_7  and  C_8
REMARK    7  A    between atoms: C_13  and  C_14
REMARK    8  A    between atoms: C_14  and  N_15
REMARK    9  A    between atoms: C_17  and  C_18
REMARK   10  A    between atoms: C_18  and  O_19
REMARK                            x       y       z     vdW  Elec       q    Type
REMARK                         _______ _______ _______ _____ _____    ______ ____
ROOT
ATOM      1  C   UNL     1       5.059   5.084  17.433  0.00  0.00    +0.000 A 
ATOM      2  C   UNL     1       4.132   4.081  17.745  0.00  0.00    +0.000 A 
ATOM      3  C   UNL     1       2.798   4.400  18.025  0.00  0.00    +0.000 A 
ATOM      4  C   UNL     1       2.363   5.720  17.939  0.00  0.00    +0.000 A 
ATOM      5  C   UNL     1       3.259   6.738  17.598  0.00  0.00    +0.000 A 
ATOM      6  C   UNL     1       4.608   6.415  17.369  0.00  0.00    +0.000 A 
ENDROOT
BRANCH   1   8
ATOM      7  N   UNL     1       7.478   4.550  17.919  0.00  0.00    +0.000 NA
ATOM      8  C   UNL     1       6.484   4.766  17.098  0.00  0.00    +0.000 C 
BRANCH   7  10
ATOM      9  C   UNL     1       8.023   5.770  19.780  0.00  0.00    +0.000 C 
ATOM     10  O   UNL     1       7.157   4.767  19.261  0.00  0.00    +0.000 OA
ENDBRANCH   7  10
BRANCH   8  11
ATOM     11  C   UNL     1       6.832   4.661  15.605  0.00  0.00    +0.000 C 
ATOM     12  O   UNL     1       7.635   5.404  15.061  0.00  0.00    +0.000 OA
BRANCH  11  13
ATOM     13  O   UNL     1       6.193   3.615  15.040  0.00  0.00    +0.000 OA
ATOM     14  C   UNL     1       5.959   3.761  13.640  0.00  0.00    +0.000 C 
ENDBRANCH  11  13
ENDBRANCH   8  11
ENDBRANCH   1   8
BRANCH   5  15
ATOM     15  C   UNL     1       2.783   8.158  17.446  0.00  0.00    +0.000 C 
BRANCH  15  16
ATOM     16  N   UNL     1       1.914   8.569  18.535  0.00  0.00    +0.000 N 
ATOM     17  C   UNL     1       1.026   9.611  18.572  0.00  0.00    +0.000 A 
ATOM     18  C   UNL     1       0.676   9.709  19.906  0.00  0.00    +0.000 A 
ATOM     19  N   UNL     1       1.298   8.690  20.593  0.00  0.00    +0.000 NA
ATOM     20  N   UNL     1       2.063   8.015  19.749  0.00  0.00    +0.000 NA
BRANCH  18  21
ATOM     21  C   UNL     1      -0.172  10.694  20.681  0.00  0.00    +0.000 C 
ATOM     22  C   UNL     1       0.679  11.866  21.210  0.00  0.00    +0.000 C 
ATOM     23  C   UNL     1       1.260  12.712  20.080  0.00  0.00    +0.000 C 
ATOM     24  C   UNL     1       0.220  13.186  19.068  0.00  0.00    +0.000 C 
ATOM     25  C   UNL     1      -0.917  12.213  18.750  0.00  0.00    +0.000 C 
ATOM     26  C   UNL     1      -1.344  11.311  19.905  0.00  0.00    +0.000 C 
BRANCH  21  27
ATOM     27  O   UNL     1      -0.736  10.035  21.828  0.00  0.00    +0.000 OA
ATOM     28  H   UNL     1      -1.160  10.738  22.354  0.00  0.00    +0.000 HD
ENDBRANCH  21  27
ENDBRANCH  18  21
ENDBRANCH  15  16
ENDBRANCH   5  15
TORSDOF 8
ENDMDL
