MODEL 1
REMARK VINA RESULT:      -7.0      0.000      0.000
REMARK  Name = 
REMARK  9 active torsions:
REMARK  status: ('A' for Active; 'I' for Inactive)
REMARK    1  A    between atoms: C_1  and  C_2
REMARK    2  A    between atoms: C_2  and  C_3
REMARK    3  A    between atoms: C_3  and  C_4
REMARK    4  A    between atoms: C_4  and  C_5
REMARK    5  A    between atoms: C_6  and  C_7
REMARK    6  A    between atoms: C_12  and  N_13
REMARK    7  A    between atoms: N_13  and  C_14
REMARK    8  A    between atoms: C_14  and  C_15
REMARK    9  A    between atoms: C_15  and  C_16
REMARK                            x       y       z     vdW  Elec       q    Type
REMARK                         _______ _______ _______ _____ _____    ______ ____
ROOT
ATOM      1  C   UNL     1       3.382   4.999  19.670  0.00  0.00    +0.000 A 
ATOM      2  C   UNL     1       2.607   3.868  19.933  0.00  0.00    +0.000 A 
ATOM      3  C   UNL     1       1.121   3.861  20.134  0.00  0.00    +0.000 C 
ATOM      4  N   UNL     1       3.143   2.627  19.997  0.00  0.00    +0.000 NA
ATOM      5  C   UNL     1       4.441   2.503  19.755  0.00  0.00    +0.000 A 
ATOM      6  N   UNL     1       4.988   1.237  19.846  0.00  0.00    +0.000 N 
ATOM      7  N   UNL     1       5.262   3.509  19.486  0.00  0.00    +0.000 NA
ATOM      8  C   UNL     1       4.742   4.748  19.446  0.00  0.00    +0.000 A 
ATOM      9  H   UNL     1       4.391   0.665  20.427  0.00  0.00    +0.000 HD
ATOM     10  H   UNL     1       5.958   1.316  20.114  0.00  0.00    +0.000 HD
ENDROOT
BRANCH   8  11
ATOM     11  N   UNL     1       5.607   5.808  19.132  0.00  0.00    +0.000 N 
ATOM     12  H   UNL     1       5.719   6.442  19.922  0.00  0.00    +0.000 HD
BRANCH  11  13
ATOM     13  C   UNL     1       6.870   5.438  18.495  0.00  0.00    +0.000 C 
BRANCH  13  14
ATOM     14  C   UNL     1       7.111   6.253  17.221  0.00  0.00    +0.000 C 
BRANCH  14  15
ATOM     15  C   UNL     1       6.781   5.482  15.981  0.00  0.00    +0.000 A 
ATOM     16  C   UNL     1       5.673   4.680  15.785  0.00  0.00    +0.000 A 
ATOM     17  S   UNL     1       5.706   4.003  14.210  0.00  0.00    +0.000 S 
ATOM     18  C   UNL     1       7.185   4.818  13.917  0.00  0.00    +0.000 A 
ATOM     19  N   UNL     1       7.655   5.543  14.908  0.00  0.00    +0.000 NA
ENDBRANCH  14  15
ENDBRANCH  13  14
ENDBRANCH  11  13
ENDBRANCH   8  11
BRANCH   1  20
ATOM     20  C   UNL     1       2.819   6.401  19.593  0.00  0.00    +0.000 C 
BRANCH  20  21
ATOM     21  C   UNL     1       2.393   6.805  18.176  0.00  0.00    +0.000 C 
BRANCH  21  23
ATOM     22  C   UNL     1       1.521   9.130  17.851  0.00  0.00    +0.000 C 
ATOM     23  C   UNL     1       2.763   8.251  17.855  0.00  0.00    +0.000 C 
ENDBRANCH  21  23
ENDBRANCH  20  21
ENDBRANCH   1  20
TORSDOF 7
ENDMDL
MODEL 2
REMARK VINA RESULT:      -6.9      1.965      2.485
REMARK  Name = 
REMARK  9 active torsions:
REMARK  status: ('A' for Active; 'I' for Inactive)
REMARK    1  A    between atoms: C_1  and  C_2
REMARK    2  A    between atoms: C_2  and  C_3
REMARK    3  A    between atoms: C_3  and  C_4
REMARK    4  A    between atoms: C_4  and  C_5
REMARK    5  A    between atoms: C_6  and  C_7
REMARK    6  A    between atoms: C_12  and  N_13
REMARK    7  A    between atoms: N_13  and  C_14
REMARK    8  A    between atoms: C_14  and  C_15
REMARK    9  A    between atoms: C_15  and  C_16
REMARK                            x       y       z     vdW  Elec       q    Type
REMARK                         _______ _______ _______ _____ _____    ______ ____
ROOT
ATOM      1  C   UNL     1       2.707   4.355  18.130  0.00  0.00    +0.000 A 
ATOM      2  C   UNL     1       2.119   3.452  19.018  0.00  0.00    +0.000 A 
ATOM      3  C   UNL     1       0.907   3.727  19.860  0.00  0.00    +0.000 C 
ATOM      4  N   UNL     1       2.585   2.193  19.180  0.00  0.00    +0.000 NA
ATOM      5  C   UNL     1       3.608   1.812  18.426  0.00  0.00    +0.000 A 
ATOM      6  N   UNL     1       4.096   0.533  18.612  0.00  0.00    +0.000 N 
ATOM      7  N   UNL     1       4.231   2.586  17.546  0.00  0.00    +0.000 NA
ATOM      8  C   UNL     1       3.789   3.847  17.399  0.00  0.00    +0.000 A 
ATOM      9  H   UNL     1       3.831   0.215  19.533  0.00  0.00    +0.000 HD
ATOM     10  H   UNL     1       5.078   0.519  18.381  0.00  0.00    +0.000 HD
ENDROOT
BRANCH   8  11
ATOM     11  N   UNL     1       4.430   4.655  16.446  0.00  0.00    +0.000 N 
ATOM     12  H   UNL     1       4.936   5.421  16.889  0.00  0.00    +0.000 HD
BRANCH  11  13
ATOM     13  C   UNL     1       5.210   3.951  15.429  0.00  0.00    +0.000 C 
BRANCH  13  14
ATOM     14  C   UNL     1       6.646   4.477  15.366  0.00  0.00    +0.000 C 
BRANCH  14  15
ATOM     15  C   UNL     1       7.029   5.237  16.598  0.00  0.00    +0.000 A 
ATOM     16  C   UNL     1       7.480   4.698  17.787  0.00  0.00    +0.000 A 
ATOM     17  S   UNL     1       7.803   5.947  18.916  0.00  0.00    +0.000 S 
ATOM     18  C   UNL     1       7.315   7.099  17.746  0.00  0.00    +0.000 A 
ATOM     19  N   UNL     1       6.920   6.619  16.586  0.00  0.00    +0.000 NA
ENDBRANCH  14  15
ENDBRANCH  13  14
ENDBRANCH  11  13
ENDBRANCH   8  11
BRANCH   1  20
ATOM     20  C   UNL     1       2.216   5.770  17.925  0.00  0.00    +0.000 C 
BRANCH  20  21
ATOM     21  C   UNL     1       2.894   6.787  18.853  0.00  0.00    +0.000 C 
BRANCH  21  23
ATOM     22  C   UNL     1       2.119   8.962  17.885  0.00  0.00    +0.000 C 
ATOM     23  C   UNL     1       2.030   8.024  19.079  0.00  0.00    +0.000 C 
ENDBRANCH  21  23
ENDBRANCH  20  21
ENDBRANCH   1  20
TORSDOF 7
ENDMDL
MODEL 3
REMARK VINA RESULT:      -6.9      2.472      5.601
REMARK  Name = 
REMARK  9 active torsions:
REMARK  status: ('A' for Active; 'I' for Inactive)
REMARK    1  A    between atoms: C_1  and  C_2
REMARK    2  A    between atoms: C_2  and  C_3
REMARK    3  A    between atoms: C_3  and  C_4
REMARK    4  A    between atoms: C_4  and  C_5
REMARK    5  A    between atoms: C_6  and  C_7
REMARK    6  A    between atoms: C_12  and  N_13
REMARK    7  A    between atoms: N_13  and  C_14
REMARK    8  A    between atoms: C_14  and  C_15
REMARK    9  A    between atoms: C_15  and  C_16
REMARK                            x       y       z     vdW  Elec       q    Type
REMARK                         _______ _______ _______ _____ _____    ______ ____
ROOT
ATOM      1  C   UNL     1       5.939   5.181  17.580  0.00  0.00    +0.000 A 
ATOM      2  C   UNL     1       6.829   6.058  16.957  0.00  0.00    +0.000 A 
ATOM      3  C   UNL     1       7.477   7.245  17.607  0.00  0.00    +0.000 C 
ATOM      4  N   UNL     1       7.229   5.890  15.676  0.00  0.00    +0.000 NA
ATOM      5  C   UNL     1       6.780   4.824  15.025  0.00  0.00    +0.000 A 
ATOM      6  N   UNL     1       7.172   4.670  13.709  0.00  0.00    +0.000 N 
ATOM      7  N   UNL     1       5.942   3.927  15.527  0.00  0.00    +0.000 NA
ATOM      8  C   UNL     1       5.521   4.101  16.791  0.00  0.00    +0.000 A 
ATOM      9  H   UNL     1       7.446   5.571  13.343  0.00  0.00    +0.000 HD
ATOM     10  H   UNL     1       6.455   4.165  13.210  0.00  0.00    +0.000 HD
ENDROOT
BRANCH   8  11
ATOM     11  N   UNL     1       4.657   3.135  17.330  0.00  0.00    +0.000 N 
ATOM     12  H   UNL     1       4.809   3.018  18.331  0.00  0.00    +0.000 HD
BRANCH  11  13
ATOM     13  C   UNL     1       3.248   3.259  16.963  0.00  0.00    +0.000 C 
BRANCH  13  14
ATOM     14  C   UNL     1       2.393   2.203  17.668  0.00  0.00    +0.000 C 
BRANCH  14  15
ATOM     15  C   UNL     1       2.275   2.455  19.139  0.00  0.00    +0.000 A 
ATOM     16  C   UNL     1       1.118   2.763  19.829  0.00  0.00    +0.000 A 
ATOM     17  S   UNL     1       1.460   2.960  21.497  0.00  0.00    +0.000 S 
ATOM     18  C   UNL     1       3.110   2.629  21.174  0.00  0.00    +0.000 A 
ATOM     19  N   UNL     1       3.421   2.396  19.917  0.00  0.00    +0.000 NA
ENDBRANCH  14  15
ENDBRANCH  13  14
ENDBRANCH  11  13
ENDBRANCH   8  11
BRANCH   1  20
ATOM     20  C   UNL     1       5.468   5.339  19.008  0.00  0.00    +0.000 C 
BRANCH  20  21
ATOM     21  C   UNL     1       4.032   5.867  19.117  0.00  0.00    +0.000 C 
BRANCH  21  23
ATOM     22  C   UNL     1       2.458   7.650  18.332  0.00  0.00    +0.000 C 
ATOM     23  C   UNL     1       3.679   6.816  17.975  0.00  0.00    +0.000 C 
ENDBRANCH  21  23
ENDBRANCH  20  21
ENDBRANCH   1  20
TORSDOF 7
ENDMDL
MODEL 4
REMARK VINA RESULT:      -6.8      2.036      2.547
REMARK  Name = 
REMARK  9 active torsions:
REMARK  status: ('A' for Active; 'I' for Inactive)
REMARK    1  A    between atoms: C_1  and  C_2
REMARK    2  A    between atoms: C_2  and  C_3
REMARK    3  A    between atoms: C_3  and  C_4
REMARK    4  A    between atoms: C_4  and  C_5
REMARK    5  A    between atoms: C_6  and  C_7
REMARK    6  A    between atoms: C_12  and  N_13
REMARK    7  A    between atoms: N_13  and  C_14
REMARK    8  A    between atoms: C_14  and  C_15
REMARK    9  A    between atoms: C_15  and  C_16
REMARK                            x       y       z     vdW  Elec       q    Type
REMARK                         _______ _______ _______ _____ _____    ______ ____
ROOT
ATOM      1  C   UNL     1       3.376   5.325  18.288  0.00  0.00    +0.000 A 
ATOM      2  C   UNL     1       2.700   4.671  19.321  0.00  0.00    +0.000 A 
ATOM      3  C   UNL     1       1.976   5.346  20.449  0.00  0.00    +0.000 C 
ATOM      4  N   UNL     1       2.606   3.324  19.381  0.00  0.00    +0.000 NA
ATOM      5  C   UNL     1       3.142   2.623  18.390  0.00  0.00    +0.000 A 
ATOM      6  N   UNL     1       3.064   1.246  18.468  0.00  0.00    +0.000 N 
ATOM      7  N   UNL     1       3.795   3.145  17.359  0.00  0.00    +0.000 NA
ATOM      8  C   UNL     1       3.914   4.483  17.307  0.00  0.00    +0.000 A 
ATOM      9  H   UNL     1       2.928   0.981  19.433  0.00  0.00    +0.000 HD
ATOM     10  H   UNL     1       3.854   0.844  17.984  0.00  0.00    +0.000 HD
ENDROOT
BRANCH   8  11
ATOM     11  N   UNL     1       4.579   5.035  16.200  0.00  0.00    +0.000 N 
ATOM     12  H   UNL     1       5.044   5.908  16.445  0.00  0.00    +0.000 HD
BRANCH  11  13
ATOM     13  C   UNL     1       5.423   4.117  15.437  0.00  0.00    +0.000 C 
BRANCH  13  14
ATOM     14  C   UNL     1       6.886   4.569  15.443  0.00  0.00    +0.000 C 
BRANCH  14  15
ATOM     15  C   UNL     1       7.255   5.285  16.706  0.00  0.00    +0.000 A 
ATOM     16  C   UNL     1       7.529   4.703  17.928  0.00  0.00    +0.000 A 
ATOM     17  S   UNL     1       7.911   5.910  19.084  0.00  0.00    +0.000 S 
ATOM     18  C   UNL     1       7.677   7.105  17.879  0.00  0.00    +0.000 A 
ATOM     19  N   UNL     1       7.325   6.669  16.689  0.00  0.00    +0.000 NA
ENDBRANCH  14  15
ENDBRANCH  13  14
ENDBRANCH  11  13
ENDBRANCH   8  11
BRANCH   1  20
ATOM     20  C   UNL     1       3.504   6.828  18.191  0.00  0.00    +0.000 C 
BRANCH  20  21
ATOM     21  C   UNL     1       2.218   7.516  17.713  0.00  0.00    +0.000 C 
BRANCH  21  23
ATOM     22  C   UNL     1       0.886   9.597  18.117  0.00  0.00    +0.000 C 
ATOM     23  C   UNL     1       2.279   9.031  17.884  0.00  0.00    +0.000 C 
ENDBRANCH  21  23
ENDBRANCH  20  21
ENDBRANCH   1  20
TORSDOF 7
ENDMDL
MODEL 5
REMARK VINA RESULT:      -6.8      1.014      1.137
REMARK  Name = 
REMARK  9 active torsions:
REMARK  status: ('A' for Active; 'I' for Inactive)
REMARK    1  A    between atoms: C_1  and  C_2
REMARK    2  A    between atoms: C_2  and  C_3
REMARK    3  A    between atoms: C_3  and  C_4
REMARK    4  A    between atoms: C_4  and  C_5
REMARK    5  A    between atoms: C_6  and  C_7
REMARK    6  A    between atoms: C_12  and  N_13
REMARK    7  A    between atoms: N_13  and  C_14
REMARK    8  A    between atoms: C_14  and  C_15
REMARK    9  A    between atoms: C_15  and  C_16
REMARK                            x       y       z     vdW  Elec       q    Type
REMARK                         _______ _______ _______ _____ _____    ______ ____
ROOT
ATOM      1  C   UNL     1       3.077   4.531  19.147  0.00  0.00    +0.000 A 
ATOM      2  C   UNL     1       2.447   3.337  19.505  0.00  0.00    +0.000 A 
ATOM      3  C   UNL     1       0.968   3.089  19.461  0.00  0.00    +0.000 C 
ATOM      4  N   UNL     1       3.141   2.248  19.906  0.00  0.00    +0.000 NA
ATOM      5  C   UNL     1       4.466   2.328  19.907  0.00  0.00    +0.000 A 
ATOM      6  N   UNL     1       5.170   1.220  20.340  0.00  0.00    +0.000 N 
ATOM      7  N   UNL     1       5.161   3.408  19.576  0.00  0.00    +0.000 NA
ATOM      8  C   UNL     1       4.476   4.502  19.201  0.00  0.00    +0.000 A 
ATOM      9  H   UNL     1       4.566   0.657  20.920  0.00  0.00    +0.000 HD
ATOM     10  H   UNL     1       6.046   1.524  20.739  0.00  0.00    +0.000 HD
ENDROOT
BRANCH   8  11
ATOM     11  N   UNL     1       5.214   5.635  18.822  0.00  0.00    +0.000 N 
ATOM     12  H   UNL     1       4.732   6.495  19.079  0.00  0.00    +0.000 HD
BRANCH  11  13
ATOM     13  C   UNL     1       6.630   5.627  19.185  0.00  0.00    +0.000 C 
BRANCH  13  14
ATOM     14  C   UNL     1       7.520   5.873  17.963  0.00  0.00    +0.000 C 
BRANCH  14  15
ATOM     15  C   UNL     1       6.850   5.479  16.683  0.00  0.00    +0.000 A 
ATOM     16  C   UNL     1       7.047   4.305  15.982  0.00  0.00    +0.000 A 
ATOM     17  S   UNL     1       6.062   4.283  14.579  0.00  0.00    +0.000 S 
ATOM     18  C   UNL     1       5.459   5.829  15.007  0.00  0.00    +0.000 A 
ATOM     19  N   UNL     1       5.947   6.359  16.107  0.00  0.00    +0.000 NA
ENDBRANCH  14  15
ENDBRANCH  13  14
ENDBRANCH  11  13
ENDBRANCH   8  11
BRANCH   1  20
ATOM     20  C   UNL     1       2.333   5.769  18.697  0.00  0.00    +0.000 C 
BRANCH  20  21
ATOM     21  C   UNL     1       2.251   6.852  19.781  0.00  0.00    +0.000 C 
BRANCH  21  23
ATOM     22  C   UNL     1       2.569   8.382  17.824  0.00  0.00    +0.000 C 
ATOM     23  C   UNL     1       1.932   8.226  19.197  0.00  0.00    +0.000 C 
ENDBRANCH  21  23
ENDBRANCH  20  21
ENDBRANCH   1  20
TORSDOF 7
ENDMDL
MODEL 6
REMARK VINA RESULT:      -6.7      3.366      5.868
REMARK  Name = 
REMARK  9 active torsions:
REMARK  status: ('A' for Active; 'I' for Inactive)
REMARK    1  A    between atoms: C_1  and  C_2
REMARK    2  A    between atoms: C_2  and  C_3
REMARK    3  A    between atoms: C_3  and  C_4
REMARK    4  A    between atoms: C_4  and  C_5
REMARK    5  A    between atoms: C_6  and  C_7
REMARK    6  A    between atoms: C_12  and  N_13
REMARK    7  A    between atoms: N_13  and  C_14
REMARK    8  A    between atoms: C_14  and  C_15
REMARK    9  A    between atoms: C_15  and  C_16
REMARK                            x       y       z     vdW  Elec       q    Type
REMARK                         _______ _______ _______ _____ _____    ______ ____
ROOT
ATOM      1  C   UNL     1       2.946   4.017  18.422  0.00  0.00    +0.000 A 
ATOM      2  C   UNL     1       3.960   3.116  18.754  0.00  0.00    +0.000 A 
ATOM      3  C   UNL     1       3.835   1.621  18.732  0.00  0.00    +0.000 C 
ATOM      4  N   UNL     1       5.201   3.524  19.104  0.00  0.00    +0.000 NA
ATOM      5  C   UNL     1       5.451   4.827  19.081  0.00  0.00    +0.000 A 
ATOM      6  N   UNL     1       6.712   5.241  19.463  0.00  0.00    +0.000 N 
ATOM      7  N   UNL     1       4.563   5.764  18.771  0.00  0.00    +0.000 NA
ATOM      8  C   UNL     1       3.321   5.366  18.446  0.00  0.00    +0.000 A 
ATOM      9  H   UNL     1       7.131   4.523  20.037  0.00  0.00    +0.000 HD
ATOM     10  H   UNL     1       6.649   6.170  19.854  0.00  0.00    +0.000 HD
ENDROOT
BRANCH   8  11
ATOM     11  N   UNL     1       2.392   6.357  18.090  0.00  0.00    +0.000 N 
ATOM     12  H   UNL     1       1.487   6.192  18.528  0.00  0.00    +0.000 HD
BRANCH  11  13
ATOM     13  C   UNL     1       2.854   7.739  18.205  0.00  0.00    +0.000 C 
BRANCH  13  14
ATOM     14  C   UNL     1       1.756   8.728  17.804  0.00  0.00    +0.000 C 
BRANCH  14  15
ATOM     15  C   UNL     1       1.317   9.586  18.949  0.00  0.00    +0.000 A 
ATOM     16  C   UNL     1       0.981   9.153  20.218  0.00  0.00    +0.000 A 
ATOM     17  S   UNL     1       0.548  10.487  21.202  0.00  0.00    +0.000 S 
ATOM     18  C   UNL     1       0.831  11.530  19.873  0.00  0.00    +0.000 A 
ATOM     19  N   UNL     1       1.212  10.954  18.753  0.00  0.00    +0.000 NA
ENDBRANCH  14  15
ENDBRANCH  13  14
ENDBRANCH  11  13
ENDBRANCH   8  11
BRANCH   1  20
ATOM     20  C   UNL     1       1.548   3.597  18.028  0.00  0.00    +0.000 C 
BRANCH  20  21
ATOM     21  C   UNL     1       0.778   2.914  19.167  0.00  0.00    +0.000 C 
BRANCH  21  23
ATOM     22  C   UNL     1       1.468   2.732  21.567  0.00  0.00    +0.000 C 
ATOM     23  C   UNL     1       0.927   3.660  20.490  0.00  0.00    +0.000 C 
ENDBRANCH  21  23
ENDBRANCH  20  21
ENDBRANCH   1  20
TORSDOF 7
ENDMDL
MODEL 7
REMARK VINA RESULT:      -6.6      2.970      5.718
REMARK  Name = 
REMARK  9 active torsions:
REMARK  status: ('A' for Active; 'I' for Inactive)
REMARK    1  A    between atoms: C_1  and  C_2
REMARK    2  A    between atoms: C_2  and  C_3
REMARK    3  A    between atoms: C_3  and  C_4
REMARK    4  A    between atoms: C_4  and  C_5
REMARK    5  A    between atoms: C_6  and  C_7
REMARK    6  A    between atoms: C_12  and  N_13
REMARK    7  A    between atoms: N_13  and  C_14
REMARK    8  A    between atoms: C_14  and  C_15
REMARK    9  A    between atoms: C_15  and  C_16
REMARK                            x       y       z     vdW  Elec       q    Type
REMARK                         _______ _______ _______ _____ _____    ______ ____
ROOT
ATOM      1  C   UNL     1       6.011   6.368  17.630  0.00  0.00    +0.000 A 
ATOM      2  C   UNL     1       7.227   6.995  17.912  0.00  0.00    +0.000 A 
ATOM      3  C   UNL     1       7.774   8.193  17.193  0.00  0.00    +0.000 C 
ATOM      4  N   UNL     1       8.033   6.584  18.917  0.00  0.00    +0.000 NA
ATOM      5  C   UNL     1       7.612   5.579  19.674  0.00  0.00    +0.000 A 
ATOM      6  N   UNL     1       8.451   5.148  20.684  0.00  0.00    +0.000 N 
ATOM      7  N   UNL     1       6.473   4.924  19.498  0.00  0.00    +0.000 NA
ATOM      8  C   UNL     1       5.678   5.310  18.486  0.00  0.00    +0.000 A 
ATOM      9  H   UNL     1       9.396   5.426  20.464  0.00  0.00    +0.000 HD
ATOM     10  H   UNL     1       8.283   4.167  20.854  0.00  0.00    +0.000 HD
ENDROOT
BRANCH   8  11
ATOM     11  N   UNL     1       4.458   4.635  18.320  0.00  0.00    +0.000 N 
ATOM     12  H   UNL     1       3.716   5.273  18.038  0.00  0.00    +0.000 HD
BRANCH  11  13
ATOM     13  C   UNL     1       4.508   3.409  17.524  0.00  0.00    +0.000 C 
BRANCH  13  14
ATOM     14  C   UNL     1       3.669   2.298  18.160  0.00  0.00    +0.000 C 
BRANCH  14  15
ATOM     15  C   UNL     1       2.850   2.791  19.312  0.00  0.00    +0.000 A 
ATOM     16  C   UNL     1       3.125   2.605  20.653  0.00  0.00    +0.000 A 
ATOM     17  S   UNL     1       1.917   3.351  21.613  0.00  0.00    +0.000 S 
ATOM     18  C   UNL     1       1.123   3.855  20.180  0.00  0.00    +0.000 A 
ATOM     19  N   UNL     1       1.687   3.498  19.047  0.00  0.00    +0.000 NA
ENDBRANCH  14  15
ENDBRANCH  13  14
ENDBRANCH  11  13
ENDBRANCH   8  11
BRANCH   1  20
ATOM     20  C   UNL     1       5.086   6.797  16.514  0.00  0.00    +0.000 C 
BRANCH  20  21
ATOM     21  C   UNL     1       5.211   5.927  15.256  0.00  0.00    +0.000 C 
BRANCH  21  23
ATOM     22  C   UNL     1       6.444   3.942  14.356  0.00  0.00    +0.000 C 
ATOM     23  C   UNL     1       6.559   5.216  15.180  0.00  0.00    +0.000 C 
ENDBRANCH  21  23
ENDBRANCH  20  21
ENDBRANCH   1  20
TORSDOF 7
ENDMDL
MODEL 8
REMARK VINA RESULT:      -6.6      2.440      5.733
REMARK  Name = 
REMARK  9 active torsions:
REMARK  status: ('A' for Active; 'I' for Inactive)
REMARK    1  A    between atoms: C_1  and  C_2
REMARK    2  A    between atoms: C_2  and  C_3
REMARK    3  A    between atoms: C_3  and  C_4
REMARK    4  A    between atoms: C_4  and  C_5
REMARK    5  A    between atoms: C_6  and  C_7
REMARK    6  A    between atoms: C_12  and  N_13
REMARK    7  A    between atoms: N_13  and  C_14
REMARK    8  A    between atoms: C_14  and  C_15
REMARK    9  A    between atoms: C_15  and  C_16
REMARK                            x       y       z     vdW  Elec       q    Type
REMARK                         _______ _______ _______ _____ _____    ______ ____
ROOT
ATOM      1  C   UNL     1       4.199   6.079  18.258  0.00  0.00    +0.000 A 
ATOM      2  C   UNL     1       4.222   6.909  17.135  0.00  0.00    +0.000 A 
ATOM      3  C   UNL     1       5.144   6.757  15.962  0.00  0.00    +0.000 C 
ATOM      4  N   UNL     1       3.362   7.942  16.985  0.00  0.00    +0.000 NA
ATOM      5  C   UNL     1       2.446   8.123  17.928  0.00  0.00    +0.000 A 
ATOM      6  N   UNL     1       1.584   9.193  17.782  0.00  0.00    +0.000 N 
ATOM      7  N   UNL     1       2.331   7.387  19.025  0.00  0.00    +0.000 NA
ATOM      8  C   UNL     1       3.199   6.375  19.194  0.00  0.00    +0.000 A 
ATOM      9  H   UNL     1       2.012   9.874  17.170  0.00  0.00    +0.000 HD
ATOM     10  H   UNL     1       1.294   9.509  18.696  0.00  0.00    +0.000 HD
ENDROOT
BRANCH   8  11
ATOM     11  N   UNL     1       3.058   5.578  20.341  0.00  0.00    +0.000 N 
ATOM     12  H   UNL     1       3.726   5.845  21.063  0.00  0.00    +0.000 HD
BRANCH  11  13
ATOM     13  C   UNL     1       1.694   5.411  20.840  0.00  0.00    +0.000 C 
BRANCH  13  14
ATOM     14  C   UNL     1       1.085   4.089  20.364  0.00  0.00    +0.000 C 
BRANCH  14  15
ATOM     15  C   UNL     1       2.117   3.149  19.823  0.00  0.00    +0.000 A 
ATOM     16  C   UNL     1       2.164   2.632  18.542  0.00  0.00    +0.000 A 
ATOM     17  S   UNL     1       3.526   1.606  18.369  0.00  0.00    +0.000 S 
ATOM     18  C   UNL     1       3.941   1.922  20.001  0.00  0.00    +0.000 A 
ATOM     19  N   UNL     1       3.134   2.723  20.662  0.00  0.00    +0.000 NA
ENDBRANCH  14  15
ENDBRANCH  13  14
ENDBRANCH  11  13
ENDBRANCH   8  11
BRANCH   1  20
ATOM     20  C   UNL     1       5.147   4.918  18.461  0.00  0.00    +0.000 C 
BRANCH  20  21
ATOM     21  C   UNL     1       6.382   5.284  19.296  0.00  0.00    +0.000 C 
BRANCH  21  23
ATOM     22  C   UNL     1       7.890   6.995  18.262  0.00  0.00    +0.000 C 
ATOM     23  C   UNL     1       7.617   5.508  18.427  0.00  0.00    +0.000 C 
ENDBRANCH  21  23
ENDBRANCH  20  21
ENDBRANCH   1  20
TORSDOF 7
ENDMDL
MODEL 9
REMARK VINA RESULT:      -6.6      2.846      5.678
REMARK  Name = 
REMARK  9 active torsions:
REMARK  status: ('A' for Active; 'I' for Inactive)
REMARK    1  A    between atoms: C_1  and  C_2
REMARK    2  A    between atoms: C_2  and  C_3
REMARK    3  A    between atoms: C_3  and  C_4
REMARK    4  A    between atoms: C_4  and  C_5
REMARK    5  A    between atoms: C_6  and  C_7
REMARK    6  A    between atoms: C_12  and  N_13
REMARK    7  A    between atoms: N_13  and  C_14
REMARK    8  A    between atoms: C_14  and  C_15
REMARK    9  A    between atoms: C_15  and  C_16
REMARK                            x       y       z     vdW  Elec       q    Type
REMARK                         _______ _______ _______ _____ _____    ______ ____
ROOT
ATOM      1  C   UNL     1       5.889   6.240  17.756  0.00  0.00    +0.000 A 
ATOM      2  C   UNL     1       7.096   6.913  17.957  0.00  0.00    +0.000 A 
ATOM      3  C   UNL     1       7.542   8.138  17.213  0.00  0.00    +0.000 C 
ATOM      4  N   UNL     1       7.989   6.527  18.897  0.00  0.00    +0.000 NA
ATOM      5  C   UNL     1       7.663   5.500  19.672  0.00  0.00    +0.000 A 
ATOM      6  N   UNL     1       8.588   5.095  20.615  0.00  0.00    +0.000 N 
ATOM      7  N   UNL     1       6.541   4.801  19.571  0.00  0.00    +0.000 NA
ATOM      8  C   UNL     1       5.661   5.162  18.622  0.00  0.00    +0.000 A 
ATOM      9  H   UNL     1       9.504   5.413  20.330  0.00  0.00    +0.000 HD
ATOM     10  H   UNL     1       8.472   4.107  20.785  0.00  0.00    +0.000 HD
ENDROOT
BRANCH   8  11
ATOM     11  N   UNL     1       4.460   4.440  18.537  0.00  0.00    +0.000 N 
ATOM     12  H   UNL     1       3.654   5.062  18.499  0.00  0.00    +0.000 HD
BRANCH  11  13
ATOM     13  C   UNL     1       4.423   3.375  17.535  0.00  0.00    +0.000 C 
BRANCH  13  14
ATOM     14  C   UNL     1       3.605   2.178  18.026  0.00  0.00    +0.000 C 
BRANCH  14  15
ATOM     15  C   UNL     1       2.882   2.468  19.304  0.00  0.00    +0.000 A 
ATOM     16  C   UNL     1       1.536   2.753  19.438  0.00  0.00    +0.000 A 
ATOM     17  S   UNL     1       1.149   3.009  21.088  0.00  0.00    +0.000 S 
ATOM     18  C   UNL     1       2.791   2.730  21.492  0.00  0.00    +0.000 A 
ATOM     19  N   UNL     1       3.601   2.473  20.488  0.00  0.00    +0.000 NA
ENDBRANCH  14  15
ENDBRANCH  13  14
ENDBRANCH  11  13
ENDBRANCH   8  11
BRANCH   1  20
ATOM     20  C   UNL     1       4.870   6.640  16.713  0.00  0.00    +0.000 C 
BRANCH  20  21
ATOM     21  C   UNL     1       5.364   6.437  15.275  0.00  0.00    +0.000 C 
BRANCH  21  23
ATOM     22  C   UNL     1       6.901   4.779  14.197  0.00  0.00    +0.000 C 
ATOM     23  C   UNL     1       5.591   4.963  14.947  0.00  0.00    +0.000 C 
ENDBRANCH  21  23
ENDBRANCH  20  21
ENDBRANCH   1  20
TORSDOF 7
ENDMDL
