MODEL 1
REMARK VINA RESULT:      -7.0      0.000      0.000
REMARK  Name = 
REMARK  6 active torsions:
REMARK  status: ('A' for Active; 'I' for Inactive)
REMARK    1  A    between atoms: C_2  and  C_12
REMARK    2  A    between atoms: N_3  and  N_4
REMARK    3  A    between atoms: C_5  and  C_6
REMARK    4  A    between atoms: C_14  and  C_15
REMARK    5  A    between atoms: N_17  and  N_18
REMARK    6  A    between atoms: C_19  and  C_20
REMARK                            x       y       z     vdW  Elec       q    Type
REMARK                         _______ _______ _______ _____ _____    ______ ____
ROOT
ATOM      1  C   UNL     1       5.618   6.808  17.006  0.00  0.00    +0.000 C 
ATOM      2  C   UNL     1       5.242   5.363  17.241  0.00  0.00    +0.000 C 
ATOM      3  C   UNL     1       4.616   6.437  18.099  0.00  0.00    +0.000 C 
ENDROOT
BRANCH   1   5
ATOM      4  O   UNL     1       7.876   6.446  17.555  0.00  0.00    +0.000 OA
ATOM      5  C   UNL     1       6.986   7.271  17.385  0.00  0.00    +0.000 C 
ATOM      6  N   UNL     1       7.131   8.647  17.479  0.00  0.00    +0.000 N 
ATOM      7  H   UNL     1       6.348   9.270  17.313  0.00  0.00    +0.000 HD
BRANCH   6   8
ATOM      8  N   UNL     1       8.355   9.159  17.799  0.00  0.00    +0.000 NA
ATOM      9  C   UNL     1       8.399  10.351  18.296  0.00  0.00    +0.000 C 
BRANCH   9  10
ATOM     10  C   UNL     1       9.696  10.954  18.682  0.00  0.00    +0.000 A 
ATOM     11  C   UNL     1       9.993  11.175  20.026  0.00  0.00    +0.000 A 
ATOM     12  C   UNL     1      11.203  11.767  20.334  0.00  0.00    +0.000 A 
ATOM     13  N   UNL     1      12.112  12.137  19.406  0.00  0.00    +0.000 NA
ATOM     14  C   UNL     1      11.798  11.905  18.113  0.00  0.00    +0.000 A 
ATOM     15  C   UNL     1      10.614  11.318  17.698  0.00  0.00    +0.000 A 
ENDBRANCH   9  10
ENDBRANCH   6   8
ENDBRANCH   1   5
BRANCH   3  16
ATOM     16  C   UNL     1       3.167   6.748  17.932  0.00  0.00    +0.000 C 
ATOM     17  O   UNL     1       2.355   5.837  17.819  0.00  0.00    +0.000 OA
ATOM     18  N   UNL     1       2.871   8.105  17.954  0.00  0.00    +0.000 N 
ATOM     19  H   UNL     1       3.608   8.791  18.068  0.00  0.00    +0.000 HD
BRANCH  18  20
ATOM     20  N   UNL     1       1.573   8.516  17.835  0.00  0.00    +0.000 NA
ATOM     21  C   UNL     1       1.249   9.606  18.454  0.00  0.00    +0.000 C 
BRANCH  21  22
ATOM     22  C   UNL     1      -0.128  10.147  18.384  0.00  0.00    +0.000 A 
ATOM     23  C   UNL     1      -1.023   9.680  17.423  0.00  0.00    +0.000 A 
ATOM     24  C   UNL     1      -2.290  10.232  17.399  0.00  0.00    +0.000 A 
ATOM     25  N   UNL     1      -2.706  11.194  18.253  0.00  0.00    +0.000 NA
ATOM     26  C   UNL     1      -1.817  11.623  19.173  0.00  0.00    +0.000 A 
ATOM     27  C   UNL     1      -0.524  11.135  19.283  0.00  0.00    +0.000 A 
ENDBRANCH  21  22
ENDBRANCH  18  20
ENDBRANCH   3  16
TORSDOF 6
ENDMDL
MODEL 2
REMARK VINA RESULT:      -7.0      0.113      9.431
REMARK  Name = 
REMARK  6 active torsions:
REMARK  status: ('A' for Active; 'I' for Inactive)
REMARK    1  A    between atoms: C_2  and  C_12
REMARK    2  A    between atoms: N_3  and  N_4
REMARK    3  A    between atoms: C_5  and  C_6
REMARK    4  A    between atoms: C_14  and  C_15
REMARK    5  A    between atoms: N_17  and  N_18
REMARK    6  A    between atoms: C_19  and  C_20
REMARK                            x       y       z     vdW  Elec       q    Type
REMARK                         _______ _______ _______ _____ _____    ______ ____
ROOT
ATOM      1  C   UNL     1       4.583   6.545  18.118  0.00  0.00    +0.000 C 
ATOM      2  C   UNL     1       5.177   5.418  17.306  0.00  0.00    +0.000 C 
ATOM      3  C   UNL     1       5.606   6.838  17.021  0.00  0.00    +0.000 C 
ENDROOT
BRANCH   1   5
ATOM      4  O   UNL     1       2.326   6.028  17.703  0.00  0.00    +0.000 OA
ATOM      5  C   UNL     1       3.150   6.911  17.908  0.00  0.00    +0.000 C 
ATOM      6  N   UNL     1       2.876   8.268  18.002  0.00  0.00    +0.000 N 
ATOM      7  H   UNL     1       3.612   8.941  18.187  0.00  0.00    +0.000 HD
BRANCH   6   8
ATOM      8  N   UNL     1       1.588   8.690  17.847  0.00  0.00    +0.000 NA
ATOM      9  C   UNL     1       1.190   9.689  18.564  0.00  0.00    +0.000 C 
BRANCH   9  10
ATOM     10  C   UNL     1      -0.192  10.206  18.425  0.00  0.00    +0.000 A 
ATOM     11  C   UNL     1      -0.693  11.120  19.352  0.00  0.00    +0.000 A 
ATOM     12  C   UNL     1      -1.997  11.551  19.197  0.00  0.00    +0.000 A 
ATOM     13  N   UNL     1      -2.807  11.140  18.198  0.00  0.00    +0.000 NA
ATOM     14  C   UNL     1      -2.291  10.259  17.312  0.00  0.00    +0.000 A 
ATOM     15  C   UNL     1      -0.998   9.766  17.377  0.00  0.00    +0.000 A 
ENDBRANCH   9  10
ENDBRANCH   6   8
ENDBRANCH   1   5
BRANCH   3  16
ATOM     16  C   UNL     1       6.992   7.264  17.376  0.00  0.00    +0.000 C 
ATOM     17  O   UNL     1       7.871   6.423  17.519  0.00  0.00    +0.000 OA
ATOM     18  N   UNL     1       7.154   8.638  17.480  0.00  0.00    +0.000 N 
ATOM     19  H   UNL     1       6.370   9.263  17.330  0.00  0.00    +0.000 HD
BRANCH  18  20
ATOM     20  N   UNL     1       8.385   9.153  17.777  0.00  0.00    +0.000 NA
ATOM     21  C   UNL     1       8.408  10.328  18.323  0.00  0.00    +0.000 C 
BRANCH  21  22
ATOM     22  C   UNL     1       9.687  10.975  18.694  0.00  0.00    +0.000 A 
ATOM     23  C   UNL     1      10.617  11.316  17.714  0.00  0.00    +0.000 A 
ATOM     24  C   UNL     1      11.798  11.907  18.121  0.00  0.00    +0.000 A 
ATOM     25  N   UNL     1      12.097  12.171  19.413  0.00  0.00    +0.000 NA
ATOM     26  C   UNL     1      11.175  11.832  20.338  0.00  0.00    +0.000 A 
ATOM     27  C   UNL     1       9.960  11.237  20.034  0.00  0.00    +0.000 A 
ENDBRANCH  21  22
ENDBRANCH  18  20
ENDBRANCH   3  16
TORSDOF 6
ENDMDL
MODEL 3
REMARK VINA RESULT:      -6.5      4.430      9.722
REMARK  Name = 
REMARK  6 active torsions:
REMARK  status: ('A' for Active; 'I' for Inactive)
REMARK    1  A    between atoms: C_2  and  C_12
REMARK    2  A    between atoms: N_3  and  N_4
REMARK    3  A    between atoms: C_5  and  C_6
REMARK    4  A    between atoms: C_14  and  C_15
REMARK    5  A    between atoms: N_17  and  N_18
REMARK    6  A    between atoms: C_19  and  C_20
REMARK                            x       y       z     vdW  Elec       q    Type
REMARK                         _______ _______ _______ _____ _____    ______ ____
ROOT
ATOM      1  C   UNL     1       7.986   7.006  18.272  0.00  0.00    +0.000 C 
ATOM      2  C   UNL     1       7.849   7.670  16.922  0.00  0.00    +0.000 C 
ATOM      3  C   UNL     1       7.616   8.485  18.173  0.00  0.00    +0.000 C 
ENDROOT
BRANCH   1   5
ATOM      4  O   UNL     1       7.021   5.520  19.819  0.00  0.00    +0.000 OA
ATOM      5  C   UNL     1       6.954   6.014  18.700  0.00  0.00    +0.000 C 
ATOM      6  N   UNL     1       5.963   5.763  17.763  0.00  0.00    +0.000 N 
ATOM      7  H   UNL     1       5.967   6.221  16.858  0.00  0.00    +0.000 HD
BRANCH   6   8
ATOM      8  N   UNL     1       4.966   4.886  18.080  0.00  0.00    +0.000 NA
ATOM      9  C   UNL     1       3.909   5.357  18.655  0.00  0.00    +0.000 C 
BRANCH   9  10
ATOM     10  C   UNL     1       2.784   4.458  19.005  0.00  0.00    +0.000 A 
ATOM     11  C   UNL     1       2.547   3.308  18.254  0.00  0.00    +0.000 A 
ATOM     12  C   UNL     1       1.469   2.517  18.601  0.00  0.00    +0.000 A 
ATOM     13  N   UNL     1       0.638   2.795  19.629  0.00  0.00    +0.000 NA
ATOM     14  C   UNL     1       0.896   3.914  20.342  0.00  0.00    +0.000 A 
ATOM     15  C   UNL     1       1.950   4.773  20.076  0.00  0.00    +0.000 A 
ENDBRANCH   9  10
ENDBRANCH   6   8
ENDBRANCH   1   5
BRANCH   3  16
ATOM     16  C   UNL     1       8.605   9.537  18.548  0.00  0.00    +0.000 C 
ATOM     17  O   UNL     1       9.405   9.329  19.452  0.00  0.00    +0.000 OA
ATOM     18  N   UNL     1       8.532  10.687  17.773  0.00  0.00    +0.000 N 
ATOM     19  H   UNL     1       7.844  10.767  17.033  0.00  0.00    +0.000 HD
BRANCH  18  20
ATOM     20  N   UNL     1       9.402  11.715  18.005  0.00  0.00    +0.000 NA
ATOM     21  C   UNL     1       9.054  12.882  17.565  0.00  0.00    +0.000 C 
BRANCH  21  22
ATOM     22  C   UNL     1       9.918  14.067  17.769  0.00  0.00    +0.000 A 
ATOM     23  C   UNL     1      11.081  14.232  17.019  0.00  0.00    +0.000 A 
ATOM     24  C   UNL     1      11.854  15.351  17.263  0.00  0.00    +0.000 A 
ATOM     25  N   UNL     1      11.544  16.290  18.184  0.00  0.00    +0.000 NA
ATOM     26  C   UNL     1      10.411  16.104  18.893  0.00  0.00    +0.000 A 
ATOM     27  C   UNL     1       9.566  15.017  18.725  0.00  0.00    +0.000 A 
ENDBRANCH  21  22
ENDBRANCH  18  20
ENDBRANCH   3  16
TORSDOF 6
ENDMDL
MODEL 4
REMARK VINA RESULT:      -6.5      5.356      9.061
REMARK  Name = 
REMARK  6 active torsions:
REMARK  status: ('A' for Active; 'I' for Inactive)
REMARK    1  A    between atoms: C_2  and  C_12
REMARK    2  A    between atoms: N_3  and  N_4
REMARK    3  A    between atoms: C_5  and  C_6
REMARK    4  A    between atoms: C_14  and  C_15
REMARK    5  A    between atoms: N_17  and  N_18
REMARK    6  A    between atoms: C_19  and  C_20
REMARK                            x       y       z     vdW  Elec       q    Type
REMARK                         _______ _______ _______ _____ _____    ______ ____
ROOT
ATOM      1  C   UNL     1       9.603  10.562  19.964  0.00  0.00    +0.000 C 
ATOM      2  C   UNL     1      10.548  11.714  19.711  0.00  0.00    +0.000 C 
ATOM      3  C   UNL     1       9.225  11.980  20.389  0.00  0.00    +0.000 C 
ENDROOT
BRANCH   1   5
ATOM      4  O   UNL     1       8.615  10.612  17.830  0.00  0.00    +0.000 OA
ATOM      5  C   UNL     1       8.906   9.929  18.805  0.00  0.00    +0.000 C 
ATOM      6  N   UNL     1       8.676   8.567  18.936  0.00  0.00    +0.000 N 
ATOM      7  H   UNL     1       8.956   8.065  19.771  0.00  0.00    +0.000 HD
BRANCH   6   8
ATOM      8  N   UNL     1       8.064   7.903  17.913  0.00  0.00    +0.000 NA
ATOM      9  C   UNL     1       7.576   6.732  18.161  0.00  0.00    +0.000 C 
BRANCH   9  10
ATOM     10  C   UNL     1       6.882   5.969  17.097  0.00  0.00    +0.000 A 
ATOM     11  C   UNL     1       7.263   4.658  16.814  0.00  0.00    +0.000 A 
ATOM     12  C   UNL     1       6.605   3.998  15.793  0.00  0.00    +0.000 A 
ATOM     13  N   UNL     1       5.615   4.551  15.061  0.00  0.00    +0.000 NA
ATOM     14  C   UNL     1       5.265   5.821  15.362  0.00  0.00    +0.000 A 
ATOM     15  C   UNL     1       5.860   6.569  16.365  0.00  0.00    +0.000 A 
ENDBRANCH   9  10
ENDBRANCH   6   8
ENDBRANCH   1   5
BRANCH   3  16
ATOM     16  C   UNL     1       9.212  12.357  21.833  0.00  0.00    +0.000 C 
ATOM     17  O   UNL     1       9.757  13.392  22.200  0.00  0.00    +0.000 OA
ATOM     18  N   UNL     1       8.522  11.468  22.645  0.00  0.00    +0.000 N 
ATOM     19  H   UNL     1       8.087  10.641  22.252  0.00  0.00    +0.000 HD
BRANCH  18  20
ATOM     20  N   UNL     1       8.419  11.717  23.986  0.00  0.00    +0.000 NA
ATOM     21  C   UNL     1       7.239  11.601  24.509  0.00  0.00    +0.000 C 
BRANCH  21  22
ATOM     22  C   UNL     1       7.016  11.839  25.954  0.00  0.00    +0.000 A 
ATOM     23  C   UNL     1       7.640  12.904  26.600  0.00  0.00    +0.000 A 
ATOM     24  C   UNL     1       7.402  13.068  27.952  0.00  0.00    +0.000 A 
ATOM     25  N   UNL     1       6.602  12.255  28.676  0.00  0.00    +0.000 NA
ATOM     26  C   UNL     1       6.010  11.234  28.022  0.00  0.00    +0.000 A 
ATOM     27  C   UNL     1       6.181  10.984  26.669  0.00  0.00    +0.000 A 
ENDBRANCH  21  22
ENDBRANCH  18  20
ENDBRANCH   3  16
TORSDOF 6
ENDMDL
MODEL 5
REMARK VINA RESULT:      -6.5      5.789      6.573
REMARK  Name = 
REMARK  6 active torsions:
REMARK  status: ('A' for Active; 'I' for Inactive)
REMARK    1  A    between atoms: C_2  and  C_12
REMARK    2  A    between atoms: N_3  and  N_4
REMARK    3  A    between atoms: C_5  and  C_6
REMARK    4  A    between atoms: C_14  and  C_15
REMARK    5  A    between atoms: N_17  and  N_18
REMARK    6  A    between atoms: C_19  and  C_20
REMARK                            x       y       z     vdW  Elec       q    Type
REMARK                         _______ _______ _______ _____ _____    ______ ____
ROOT
ATOM      1  C   UNL     1       2.892   2.858  19.200  0.00  0.00    +0.000 C 
ATOM      2  C   UNL     1       3.565   2.636  20.534  0.00  0.00    +0.000 C 
ATOM      3  C   UNL     1       3.290   4.048  20.072  0.00  0.00    +0.000 C 
ENDROOT
BRANCH   1   5
ATOM      4  O   UNL     1       3.835   1.412  17.602  0.00  0.00    +0.000 OA
ATOM      5  C   UNL     1       3.655   2.574  17.947  0.00  0.00    +0.000 C 
ATOM      6  N   UNL     1       4.074   3.699  17.252  0.00  0.00    +0.000 N 
ATOM      7  H   UNL     1       3.878   4.633  17.596  0.00  0.00    +0.000 HD
BRANCH   6   8
ATOM      8  N   UNL     1       4.759   3.531  16.084  0.00  0.00    +0.000 NA
ATOM      9  C   UNL     1       5.253   4.584  15.519  0.00  0.00    +0.000 C 
BRANCH   9  10
ATOM     10  C   UNL     1       6.024   4.465  14.259  0.00  0.00    +0.000 A 
ATOM     11  C   UNL     1       5.606   3.583  13.263  0.00  0.00    +0.000 A 
ATOM     12  C   UNL     1       6.374   3.486  12.118  0.00  0.00    +0.000 A 
ATOM     13  N   UNL     1       7.502   4.200  11.912  0.00  0.00    +0.000 NA
ATOM     14  C   UNL     1       7.878   5.050  12.892  0.00  0.00    +0.000 A 
ATOM     15  C   UNL     1       7.180   5.222  14.076  0.00  0.00    +0.000 A 
ENDBRANCH   9  10
ENDBRANCH   6   8
ENDBRANCH   1   5
BRANCH   3  16
ATOM     16  C   UNL     1       2.246   4.851  20.774  0.00  0.00    +0.000 C 
ATOM     17  O   UNL     1       1.540   4.324  21.626  0.00  0.00    +0.000 OA
ATOM     18  N   UNL     1       2.205   6.185  20.393  0.00  0.00    +0.000 N 
ATOM     19  H   UNL     1       2.840   6.540  19.687  0.00  0.00    +0.000 HD
BRANCH  18  20
ATOM     20  N   UNL     1       1.306   7.029  20.983  0.00  0.00    +0.000 NA
ATOM     21  C   UNL     1       1.485   8.297  20.788  0.00  0.00    +0.000 C 
BRANCH  21  22
ATOM     22  C   UNL     1       0.565   9.300  21.373  0.00  0.00    +0.000 A 
ATOM     23  C   UNL     1       0.173   9.206  22.707  0.00  0.00    +0.000 A 
ATOM     24  C   UNL     1      -0.696  10.164  23.193  0.00  0.00    +0.000 A 
ATOM     25  N   UNL     1      -1.184  11.181  22.449  0.00  0.00    +0.000 NA
ATOM     26  C   UNL     1      -0.784  11.246  21.161  0.00  0.00    +0.000 A 
ATOM     27  C   UNL     1       0.086  10.338  20.577  0.00  0.00    +0.000 A 
ENDBRANCH  21  22
ENDBRANCH  18  20
ENDBRANCH   3  16
TORSDOF 6
ENDMDL
MODEL 6
REMARK VINA RESULT:      -6.4      6.053     10.006
REMARK  Name = 
REMARK  6 active torsions:
REMARK  status: ('A' for Active; 'I' for Inactive)
REMARK    1  A    between atoms: C_2  and  C_12
REMARK    2  A    between atoms: N_3  and  N_4
REMARK    3  A    between atoms: C_5  and  C_6
REMARK    4  A    between atoms: C_14  and  C_15
REMARK    5  A    between atoms: N_17  and  N_18
REMARK    6  A    between atoms: C_19  and  C_20
REMARK                            x       y       z     vdW  Elec       q    Type
REMARK                         _______ _______ _______ _____ _____    ______ ____
ROOT
ATOM      1  C   UNL     1      -0.150   9.395  21.169  0.00  0.00    +0.000 C 
ATOM      2  C   UNL     1      -0.427   9.945  19.790  0.00  0.00    +0.000 C 
ATOM      3  C   UNL     1       0.992   9.600  20.175  0.00  0.00    +0.000 C 
ENDROOT
BRANCH   1   5
ATOM      4  O   UNL     1       0.270   9.995  23.404  0.00  0.00    +0.000 OA
ATOM      5  C   UNL     1      -0.273  10.302  22.349  0.00  0.00    +0.000 C 
ATOM      6  N   UNL     1      -0.991  11.466  22.117  0.00  0.00    +0.000 N 
ATOM      7  H   UNL     1      -1.403  11.657  21.211  0.00  0.00    +0.000 HD
BRANCH   6   8
ATOM      8  N   UNL     1      -1.134  12.363  23.135  0.00  0.00    +0.000 NA
ATOM      9  C   UNL     1      -1.119  13.621  22.837  0.00  0.00    +0.000 C 
BRANCH   9  10
ATOM     10  C   UNL     1      -1.290  14.644  23.896  0.00  0.00    +0.000 A 
ATOM     11  C   UNL     1      -2.329  14.529  24.818  0.00  0.00    +0.000 A 
ATOM     12  C   UNL     1      -2.465  15.522  25.769  0.00  0.00    +0.000 A 
ATOM     13  N   UNL     1      -1.646  16.593  25.854  0.00  0.00    +0.000 NA
ATOM     14  C   UNL     1      -0.645  16.673  24.950  0.00  0.00    +0.000 A 
ATOM     15  C   UNL     1      -0.422  15.731  23.959  0.00  0.00    +0.000 A 
ENDBRANCH   9  10
ENDBRANCH   6   8
ENDBRANCH   1   5
BRANCH   3  16
ATOM     16  C   UNL     1       1.654   8.427  19.533  0.00  0.00    +0.000 C 
ATOM     17  O   UNL     1       1.911   8.450  18.335  0.00  0.00    +0.000 OA
ATOM     18  N   UNL     1       1.954   7.394  20.411  0.00  0.00    +0.000 N 
ATOM     19  H   UNL     1       1.717   7.468  21.394  0.00  0.00    +0.000 HD
BRANCH  18  20
ATOM     20  N   UNL     1       2.584   6.273  19.946  0.00  0.00    +0.000 NA
ATOM     21  C   UNL     1       1.867   5.199  19.853  0.00  0.00    +0.000 C 
BRANCH  21  22
ATOM     22  C   UNL     1       2.446   3.931  19.354  0.00  0.00    +0.000 A 
ATOM     23  C   UNL     1       3.520   3.336  20.014  0.00  0.00    +0.000 A 
ATOM     24  C   UNL     1       4.026   2.160  19.493  0.00  0.00    +0.000 A 
ATOM     25  N   UNL     1       3.538   1.560  18.385  0.00  0.00    +0.000 NA
ATOM     26  C   UNL     1       2.498   2.159  17.769  0.00  0.00    +0.000 A 
ATOM     27  C   UNL     1       1.916   3.338  18.211  0.00  0.00    +0.000 A 
ENDBRANCH  21  22
ENDBRANCH  18  20
ENDBRANCH   3  16
TORSDOF 6
ENDMDL
MODEL 7
REMARK VINA RESULT:      -6.4      4.682      9.629
REMARK  Name = 
REMARK  6 active torsions:
REMARK  status: ('A' for Active; 'I' for Inactive)
REMARK    1  A    between atoms: C_2  and  C_12
REMARK    2  A    between atoms: N_3  and  N_4
REMARK    3  A    between atoms: C_5  and  C_6
REMARK    4  A    between atoms: C_14  and  C_15
REMARK    5  A    between atoms: N_17  and  N_18
REMARK    6  A    between atoms: C_19  and  C_20
REMARK                            x       y       z     vdW  Elec       q    Type
REMARK                         _______ _______ _______ _____ _____    ______ ____
ROOT
ATOM      1  C   UNL     1       8.093   7.115  18.430  0.00  0.00    +0.000 C 
ATOM      2  C   UNL     1       7.747   7.690  17.077  0.00  0.00    +0.000 C 
ATOM      3  C   UNL     1       7.619   8.562  18.303  0.00  0.00    +0.000 C 
ENDROOT
BRANCH   1   5
ATOM      4  O   UNL     1       7.558   5.470  20.024  0.00  0.00    +0.000 OA
ATOM      5  C   UNL     1       7.188   6.093  19.036  0.00  0.00    +0.000 C 
ATOM      6  N   UNL     1       5.953   5.968  18.417  0.00  0.00    +0.000 N 
ATOM      7  H   UNL     1       5.712   6.528  17.607  0.00  0.00    +0.000 HD
BRANCH   6   8
ATOM      8  N   UNL     1       5.054   5.072  18.920  0.00  0.00    +0.000 NA
ATOM      9  C   UNL     1       3.831   5.149  18.507  0.00  0.00    +0.000 C 
BRANCH   9  10
ATOM     10  C   UNL     1       2.813   4.192  19.001  0.00  0.00    +0.000 A 
ATOM     11  C   UNL     1       1.947   3.568  18.104  0.00  0.00    +0.000 A 
ATOM     12  C   UNL     1       0.995   2.706  18.615  0.00  0.00    +0.000 A 
ATOM     13  N   UNL     1       0.863   2.434  19.931  0.00  0.00    +0.000 NA
ATOM     14  C   UNL     1       1.720   3.050  20.775  0.00  0.00    +0.000 A 
ATOM     15  C   UNL     1       2.709   3.930  20.365  0.00  0.00    +0.000 A 
ENDBRANCH   9  10
ENDBRANCH   6   8
ENDBRANCH   1   5
BRANCH   3  16
ATOM     16  C   UNL     1       8.578   9.690  18.495  0.00  0.00    +0.000 C 
ATOM     17  O   UNL     1       9.490   9.585  19.306  0.00  0.00    +0.000 OA
ATOM     18  N   UNL     1       8.342  10.781  17.670  0.00  0.00    +0.000 N 
ATOM     19  H   UNL     1       7.569  10.775  17.014  0.00  0.00    +0.000 HD
BRANCH  18  20
ATOM     20  N   UNL     1       9.168  11.869  17.734  0.00  0.00    +0.000 NA
ATOM     21  C   UNL     1       8.598  13.029  17.802  0.00  0.00    +0.000 C 
BRANCH  21  22
ATOM     22  C   UNL     1       9.397  14.273  17.885  0.00  0.00    +0.000 A 
ATOM     23  C   UNL     1       8.774  15.502  18.093  0.00  0.00    +0.000 A 
ATOM     24  C   UNL     1       9.572  16.629  18.149  0.00  0.00    +0.000 A 
ATOM     25  N   UNL     1      10.916  16.604  18.014  0.00  0.00    +0.000 NA
ATOM     26  C   UNL     1      11.491  15.398  17.815  0.00  0.00    +0.000 A 
ATOM     27  C   UNL     1      10.782  14.209  17.745  0.00  0.00    +0.000 A 
ENDBRANCH  21  22
ENDBRANCH  18  20
ENDBRANCH   3  16
TORSDOF 6
ENDMDL
MODEL 8
REMARK VINA RESULT:      -6.3      6.058      8.698
REMARK  Name = 
REMARK  6 active torsions:
REMARK  status: ('A' for Active; 'I' for Inactive)
REMARK    1  A    between atoms: C_2  and  C_12
REMARK    2  A    between atoms: N_3  and  N_4
REMARK    3  A    between atoms: C_5  and  C_6
REMARK    4  A    between atoms: C_14  and  C_15
REMARK    5  A    between atoms: N_17  and  N_18
REMARK    6  A    between atoms: C_19  and  C_20
REMARK                            x       y       z     vdW  Elec       q    Type
REMARK                         _______ _______ _______ _____ _____    ______ ____
ROOT
ATOM      1  C   UNL     1       1.023   9.753  20.131  0.00  0.00    +0.000 C 
ATOM      2  C   UNL     1      -0.390  10.168  19.797  0.00  0.00    +0.000 C 
ATOM      3  C   UNL     1      -0.095   9.588  21.160  0.00  0.00    +0.000 C 
ENDROOT
BRANCH   1   5
ATOM      4  O   UNL     1       1.728   8.530  18.250  0.00  0.00    +0.000 OA
ATOM      5  C   UNL     1       1.599   8.545  19.468  0.00  0.00    +0.000 C 
ATOM      6  N   UNL     1       1.978   7.530  20.334  0.00  0.00    +0.000 N 
ATOM      7  H   UNL     1       1.851   7.619  21.336  0.00  0.00    +0.000 HD
BRANCH   6   8
ATOM      8  N   UNL     1       2.536   6.397  19.815  0.00  0.00    +0.000 NA
ATOM      9  C   UNL     1       1.882   5.290  19.944  0.00  0.00    +0.000 C 
BRANCH   9  10
ATOM     10  C   UNL     1       2.425   4.030  19.384  0.00  0.00    +0.000 A 
ATOM     11  C   UNL     1       3.485   3.382  20.018  0.00  0.00    +0.000 A 
ATOM     12  C   UNL     1       3.976   2.227  19.442  0.00  0.00    +0.000 A 
ATOM     13  N   UNL     1       3.484   1.690  18.304  0.00  0.00    +0.000 NA
ATOM     14  C   UNL     1       2.453   2.337  17.717  0.00  0.00    +0.000 A 
ATOM     15  C   UNL     1       1.888   3.501  18.213  0.00  0.00    +0.000 A 
ENDBRANCH   9  10
ENDBRANCH   6   8
ENDBRANCH   1   5
BRANCH   3  16
ATOM     16  C   UNL     1      -0.156  10.479  22.356  0.00  0.00    +0.000 C 
ATOM     17  O   UNL     1       0.068  10.021  23.471  0.00  0.00    +0.000 OA
ATOM     18  N   UNL     1      -0.444  11.804  22.062  0.00  0.00    +0.000 N 
ATOM     19  H   UNL     1      -0.602  12.098  21.105  0.00  0.00    +0.000 HD
BRANCH  18  20
ATOM     20  N   UNL     1      -0.504  12.723  23.073  0.00  0.00    +0.000 NA
ATOM     21  C   UNL     1      -1.124  13.831  22.816  0.00  0.00    +0.000 C 
BRANCH  21  22
ATOM     22  C   UNL     1      -1.256  14.891  23.841  0.00  0.00    +0.000 A 
ATOM     23  C   UNL     1      -0.363  15.960  23.872  0.00  0.00    +0.000 A 
ATOM     24  C   UNL     1      -0.529  16.913  24.860  0.00  0.00    +0.000 A 
ATOM     25  N   UNL     1      -1.506  16.863  25.792  0.00  0.00    +0.000 NA
ATOM     26  C   UNL     1      -2.357  15.816  25.735  0.00  0.00    +0.000 A 
ATOM     27  C   UNL     1      -2.278  14.810  24.785  0.00  0.00    +0.000 A 
ENDBRANCH  21  22
ENDBRANCH  18  20
ENDBRANCH   3  16
TORSDOF 6
ENDMDL
MODEL 9
REMARK VINA RESULT:      -6.3      4.508      6.578
REMARK  Name = 
REMARK  6 active torsions:
REMARK  status: ('A' for Active; 'I' for Inactive)
REMARK    1  A    between atoms: C_2  and  C_12
REMARK    2  A    between atoms: N_3  and  N_4
REMARK    3  A    between atoms: C_5  and  C_6
REMARK    4  A    between atoms: C_14  and  C_15
REMARK    5  A    between atoms: N_17  and  N_18
REMARK    6  A    between atoms: C_19  and  C_20
REMARK                            x       y       z     vdW  Elec       q    Type
REMARK                         _______ _______ _______ _____ _____    ______ ____
ROOT
ATOM      1  C   UNL     1       0.702   9.064  19.217  0.00  0.00    +0.000 C 
ATOM      2  C   UNL     1       0.932   9.346  20.683  0.00  0.00    +0.000 C 
ATOM      3  C   UNL     1       0.580  10.487  19.758  0.00  0.00    +0.000 C 
ENDROOT
BRANCH   1   5
ATOM      4  O   UNL     1       2.131   9.382  17.377  0.00  0.00    +0.000 OA
ATOM      5  C   UNL     1       1.868   8.698  18.359  0.00  0.00    +0.000 C 
ATOM      6  N   UNL     1       2.589   7.596  18.793  0.00  0.00    +0.000 N 
ATOM      7  H   UNL     1       2.317   7.084  19.625  0.00  0.00    +0.000 HD
BRANCH   6   8
ATOM      8  N   UNL     1       3.685   7.205  18.080  0.00  0.00    +0.000 NA
ATOM      9  C   UNL     1       3.777   5.958  17.750  0.00  0.00    +0.000 C 
BRANCH   9  10
ATOM     10  C   UNL     1       4.934   5.476  16.959  0.00  0.00    +0.000 A 
ATOM     11  C   UNL     1       6.065   6.279  16.813  0.00  0.00    +0.000 A 
ATOM     12  C   UNL     1       7.105   5.798  16.042  0.00  0.00    +0.000 A 
ATOM     13  N   UNL     1       7.087   4.595  15.427  0.00  0.00    +0.000 NA
ATOM     14  C   UNL     1       5.980   3.838  15.592  0.00  0.00    +0.000 A 
ATOM     15  C   UNL     1       4.884   4.227  16.344  0.00  0.00    +0.000 A 
ENDBRANCH   9  10
ENDBRANCH   6   8
ENDBRANCH   1   5
BRANCH   3  16
ATOM     16  C   UNL     1      -0.759  11.135  19.881  0.00  0.00    +0.000 C 
ATOM     17  O   UNL     1      -1.210  11.401  20.989  0.00  0.00    +0.000 OA
ATOM     18  N   UNL     1      -1.369  11.413  18.665  0.00  0.00    +0.000 N 
ATOM     19  H   UNL     1      -0.913  11.170  17.793  0.00  0.00    +0.000 HD
BRANCH  18  20
ATOM     20  N   UNL     1      -2.589  12.029  18.646  0.00  0.00    +0.000 NA
ATOM     21  C   UNL     1      -3.610  11.288  18.351  0.00  0.00    +0.000 C 
BRANCH  21  22
ATOM     22  C   UNL     1      -4.979  11.851  18.310  0.00  0.00    +0.000 A 
ATOM     23  C   UNL     1      -5.540  12.258  17.101  0.00  0.00    +0.000 A 
ATOM     24  C   UNL     1      -6.817  12.787  17.127  0.00  0.00    +0.000 A 
ATOM     25  N   UNL     1      -7.546  12.929  18.256  0.00  0.00    +0.000 NA
ATOM     26  C   UNL     1      -6.976  12.523  19.411  0.00  0.00    +0.000 A 
ATOM     27  C   UNL     1      -5.704  11.979  19.492  0.00  0.00    +0.000 A 
ENDBRANCH  21  22
ENDBRANCH  18  20
ENDBRANCH   3  16
TORSDOF 6
ENDMDL
