MODEL 1
REMARK VINA RESULT:      -6.4      0.000      0.000
REMARK  Name = 
REMARK  8 active torsions:
REMARK  status: ('A' for Active; 'I' for Inactive)
REMARK    1  A    between atoms: C_1  and  C_2
REMARK    2  A    between atoms: C_2  and  N_3
REMARK    3  A    between atoms: C_4  and  C_5
REMARK    4  A    between atoms: C_6  and  C_7
REMARK    5  A    between atoms: C_7  and  C_8
REMARK    6  A    between atoms: N_14  and  C_15
REMARK    7  A    between atoms: C_15  and  C_16
REMARK    8  A    between atoms: C_15  and  C_22
REMARK                            x       y       z     vdW  Elec       q    Type
REMARK                         _______ _______ _______ _____ _____    ______ ____
ROOT
ATOM      1  N   UNL     1       5.441  16.496  19.317  0.00  0.00    +0.000 N 
ATOM      2  C   UNL     1       4.521  17.024  20.265  0.00  0.00    +0.000 A 
ATOM      3  C   UNL     1       4.887  18.324  20.942  0.00  0.00    +0.000 C 
ATOM      4  C   UNL     1       3.393  16.344  20.596  0.00  0.00    +0.000 A 
ATOM      5  C   UNL     1       3.174  15.073  19.804  0.00  0.00    +0.000 A 
ATOM      6  N   UNL     1       2.006  14.334  19.883  0.00  0.00    +0.000 N 
ATOM      7  C   UNL     1       0.707  14.863  19.464  0.00  0.00    +0.000 C 
ATOM      8  C   UNL     1       0.006  13.914  18.459  0.00  0.00    +0.000 C 
ATOM      9  N   UNL     1      -0.087  12.485  18.885  0.00  0.00    +0.000 NA
ATOM     10  C   UNL     1       1.312  12.060  19.162  0.00  0.00    +0.000 C 
ATOM     11  C   UNL     1       2.056  12.905  20.210  0.00  0.00    +0.000 C 
ATOM     12  N   UNL     1       4.069  14.580  18.995  0.00  0.00    +0.000 NA
ATOM     13  C   UNL     1       5.250  15.208  18.769  0.00  0.00    +0.000 A 
ATOM     14  S   UNL     1       6.384  14.375  17.814  0.00  0.00    +0.000 S 
ENDROOT
BRANCH   4  15
ATOM     15  C   UNL     1       2.409  16.653  21.717  0.00  0.00    +0.000 C 
ATOM     16  C   UNL     1       1.343  17.717  21.645  0.00  0.00    +0.000 C 
ATOM     17  O   UNL     1       2.434  15.980  22.756  0.00  0.00    +0.000 OA
ENDBRANCH   4  15
BRANCH   1  19
ATOM     18  C   UNL     1       7.859  16.902  19.856  0.00  0.00    +0.000 C 
ATOM     19  C   UNL     1       6.672  17.246  18.961  0.00  0.00    +0.000 C 
ENDBRANCH   1  19
BRANCH   9  20
ATOM     20  C   UNL     1      -1.009  12.315  20.054  0.00  0.00    +0.000 C 
BRANCH  20  21
ATOM     21  C   UNL     1      -2.475  12.283  19.601  0.00  0.00    +0.000 A 
ATOM     22  C   UNL     1      -3.498  12.792  20.418  0.00  0.00    +0.000 A 
ATOM     23  C   UNL     1      -4.838  12.682  20.038  0.00  0.00    +0.000 A 
ATOM     24  C   UNL     1      -5.173  12.058  18.839  0.00  0.00    +0.000 A 
ATOM     25  C   UNL     1      -4.172  11.555  18.011  0.00  0.00    +0.000 A 
ATOM     26  C   UNL     1      -2.830  11.672  18.385  0.00  0.00    +0.000 A 
ENDBRANCH  20  21
BRANCH  20  27
ATOM     27  C   UNL     1      -0.690  11.115  20.962  0.00  0.00    +0.000 A 
ATOM     28  C   UNL     1      -0.405   9.864  20.378  0.00  0.00    +0.000 A 
ATOM     29  C   UNL     1      -0.195   8.733  21.170  0.00  0.00    +0.000 A 
ATOM     30  C   UNL     1      -0.258   8.832  22.558  0.00  0.00    +0.000 A 
ATOM     31  C   UNL     1      -0.487  10.070  23.155  0.00  0.00    +0.000 A 
ATOM     32  C   UNL     1      -0.680  11.204  22.364  0.00  0.00    +0.000 A 
ENDBRANCH  20  27
ENDBRANCH   9  20
TORSDOF 5
ENDMDL
MODEL 2
REMARK VINA RESULT:      -6.3      5.206      8.184
REMARK  Name = 
REMARK  8 active torsions:
REMARK  status: ('A' for Active; 'I' for Inactive)
REMARK    1  A    between atoms: C_1  and  C_2
REMARK    2  A    between atoms: C_2  and  N_3
REMARK    3  A    between atoms: C_4  and  C_5
REMARK    4  A    between atoms: C_6  and  C_7
REMARK    5  A    between atoms: C_7  and  C_8
REMARK    6  A    between atoms: N_14  and  C_15
REMARK    7  A    between atoms: C_15  and  C_16
REMARK    8  A    between atoms: C_15  and  C_22
REMARK                            x       y       z     vdW  Elec       q    Type
REMARK                         _______ _______ _______ _____ _____    ______ ____
ROOT
ATOM      1  N   UNL     1       5.214   5.073  18.039  0.00  0.00    +0.000 N 
ATOM      2  C   UNL     1       4.275   4.599  18.998  0.00  0.00    +0.000 A 
ATOM      3  C   UNL     1       4.551   3.259  19.639  0.00  0.00    +0.000 C 
ATOM      4  C   UNL     1       3.141   5.295  19.268  0.00  0.00    +0.000 A 
ATOM      5  C   UNL     1       3.040   6.626  18.554  0.00  0.00    +0.000 A 
ATOM      6  N   UNL     1       2.042   7.546  18.825  0.00  0.00    +0.000 N 
ATOM      7  C   UNL     1       1.899   8.194  20.130  0.00  0.00    +0.000 C 
ATOM      8  C   UNL     1       1.841   9.737  19.993  0.00  0.00    +0.000 C 
ATOM      9  N   UNL     1       0.850  10.256  19.004  0.00  0.00    +0.000 NA
ATOM     10  C   UNL     1       1.194   9.600  17.714  0.00  0.00    +0.000 C 
ATOM     11  C   UNL     1       1.197   8.063  17.743  0.00  0.00    +0.000 C 
ATOM     12  N   UNL     1       3.878   6.999  17.629  0.00  0.00    +0.000 NA
ATOM     13  C   UNL     1       4.940   6.232  17.278  0.00  0.00    +0.000 A 
ATOM     14  S   UNL     1       5.861   6.768  15.952  0.00  0.00    +0.000 S 
ENDROOT
BRANCH   4  15
ATOM     15  C   UNL     1       1.947   4.851  20.103  0.00  0.00    +0.000 C 
ATOM     16  C   UNL     1       0.889   3.886  19.630  0.00  0.00    +0.000 C 
ATOM     17  O   UNL     1       1.825   5.261  21.265  0.00  0.00    +0.000 OA
ENDBRANCH   4  15
BRANCH   1  19
ATOM     18  C   UNL     1       7.703   4.947  18.338  0.00  0.00    +0.000 C 
ATOM     19  C   UNL     1       6.450   4.305  17.749  0.00  0.00    +0.000 C 
ENDBRANCH   1  19
BRANCH   9  20
ATOM     20  C   UNL     1      -0.559  10.005  19.449  0.00  0.00    +0.000 C 
BRANCH  20  21
ATOM     21  C   UNL     1      -0.857  10.722  20.771  0.00  0.00    +0.000 A 
ATOM     22  C   UNL     1      -0.690  10.070  22.005  0.00  0.00    +0.000 A 
ATOM     23  C   UNL     1      -1.046  10.699  23.200  0.00  0.00    +0.000 A 
ATOM     24  C   UNL     1      -1.575  11.987  23.179  0.00  0.00    +0.000 A 
ATOM     25  C   UNL     1      -1.740  12.653  21.967  0.00  0.00    +0.000 A 
ATOM     26  C   UNL     1      -1.378  12.029  20.770  0.00  0.00    +0.000 A 
ENDBRANCH  20  21
BRANCH  20  27
ATOM     27  C   UNL     1      -1.637  10.324  18.397  0.00  0.00    +0.000 A 
ATOM     28  C   UNL     1      -2.768   9.491  18.293  0.00  0.00    +0.000 A 
ATOM     29  C   UNL     1      -3.724   9.698  17.296  0.00  0.00    +0.000 A 
ATOM     30  C   UNL     1      -3.570  10.744  16.390  0.00  0.00    +0.000 A 
ATOM     31  C   UNL     1      -2.485  11.610  16.507  0.00  0.00    +0.000 A 
ATOM     32  C   UNL     1      -1.538  11.413  17.516  0.00  0.00    +0.000 A 
ENDBRANCH  20  27
ENDBRANCH   9  20
TORSDOF 5
ENDMDL
MODEL 3
REMARK VINA RESULT:      -6.3      0.518      1.040
REMARK  Name = 
REMARK  8 active torsions:
REMARK  status: ('A' for Active; 'I' for Inactive)
REMARK    1  A    between atoms: C_1  and  C_2
REMARK    2  A    between atoms: C_2  and  N_3
REMARK    3  A    between atoms: C_4  and  C_5
REMARK    4  A    between atoms: C_6  and  C_7
REMARK    5  A    between atoms: C_7  and  C_8
REMARK    6  A    between atoms: N_14  and  C_15
REMARK    7  A    between atoms: C_15  and  C_16
REMARK    8  A    between atoms: C_15  and  C_22
REMARK                            x       y       z     vdW  Elec       q    Type
REMARK                         _______ _______ _______ _____ _____    ______ ____
ROOT
ATOM      1  N   UNL     1       5.357  16.602  19.244  0.00  0.00    +0.000 N 
ATOM      2  C   UNL     1       4.385  17.155  20.124  0.00  0.00    +0.000 A 
ATOM      3  C   UNL     1       4.684  18.504  20.733  0.00  0.00    +0.000 C 
ATOM      4  C   UNL     1       3.267  16.458  20.454  0.00  0.00    +0.000 A 
ATOM      5  C   UNL     1       3.118  15.136  19.733  0.00  0.00    +0.000 A 
ATOM      6  N   UNL     1       1.971  14.365  19.815  0.00  0.00    +0.000 N 
ATOM      7  C   UNL     1       0.674  14.824  19.317  0.00  0.00    +0.000 C 
ATOM      8  C   UNL     1       0.042  13.794  18.346  0.00  0.00    +0.000 C 
ATOM      9  N   UNL     1      -0.024  12.391  18.855  0.00  0.00    +0.000 NA
ATOM     10  C   UNL     1       1.376  12.030  19.209  0.00  0.00    +0.000 C 
ATOM     11  C   UNL     1       2.052  12.960  20.230  0.00  0.00    +0.000 C 
ATOM     12  N   UNL     1       4.058  14.625  18.990  0.00  0.00    +0.000 NA
ATOM     13  C   UNL     1       5.227  15.277  18.769  0.00  0.00    +0.000 A 
ATOM     14  S   UNL     1       6.422  14.427  17.909  0.00  0.00    +0.000 S 
ENDROOT
BRANCH   4  15
ATOM     15  C   UNL     1       2.232  16.801  21.518  0.00  0.00    +0.000 C 
ATOM     16  C   UNL     1       2.325  16.382  22.963  0.00  0.00    +0.000 C 
ATOM     17  O   UNL     1       1.254  17.500  21.219  0.00  0.00    +0.000 OA
ENDBRANCH   4  15
BRANCH   1  19
ATOM     18  C   UNL     1       7.739  17.120  19.846  0.00  0.00    +0.000 C 
ATOM     19  C   UNL     1       6.577  17.370  18.888  0.00  0.00    +0.000 C 
ENDBRANCH   1  19
BRANCH   9  20
ATOM     20  C   UNL     1      -0.985  12.261  19.998  0.00  0.00    +0.000 C 
BRANCH  20  21
ATOM     21  C   UNL     1      -2.436  12.258  19.501  0.00  0.00    +0.000 A 
ATOM     22  C   UNL     1      -3.463  12.852  20.255  0.00  0.00    +0.000 A 
ATOM     23  C   UNL     1      -4.793  12.769  19.840  0.00  0.00    +0.000 A 
ATOM     24  C   UNL     1      -5.117  12.091  18.667  0.00  0.00    +0.000 A 
ATOM     25  C   UNL     1      -4.113  11.503  17.902  0.00  0.00    +0.000 A 
ATOM     26  C   UNL     1      -2.779  11.591  18.311  0.00  0.00    +0.000 A 
ENDBRANCH  20  21
BRANCH  20  27
ATOM     27  C   UNL     1      -0.722  11.066  20.932  0.00  0.00    +0.000 A 
ATOM     28  C   UNL     1      -0.815  11.246  22.325  0.00  0.00    +0.000 A 
ATOM     29  C   UNL     1      -0.500  10.208  23.206  0.00  0.00    +0.000 A 
ATOM     30  C   UNL     1      -0.096   8.972  22.711  0.00  0.00    +0.000 A 
ATOM     31  C   UNL     1      -0.047   8.758  21.334  0.00  0.00    +0.000 A 
ATOM     32  C   UNL     1      -0.378   9.790  20.454  0.00  0.00    +0.000 A 
ENDBRANCH  20  27
ENDBRANCH   9  20
TORSDOF 5
ENDMDL
MODEL 4
REMARK VINA RESULT:      -6.3      0.722      1.134
REMARK  Name = 
REMARK  8 active torsions:
REMARK  status: ('A' for Active; 'I' for Inactive)
REMARK    1  A    between atoms: C_1  and  C_2
REMARK    2  A    between atoms: C_2  and  N_3
REMARK    3  A    between atoms: C_4  and  C_5
REMARK    4  A    between atoms: C_6  and  C_7
REMARK    5  A    between atoms: C_7  and  C_8
REMARK    6  A    between atoms: N_14  and  C_15
REMARK    7  A    between atoms: C_15  and  C_16
REMARK    8  A    between atoms: C_15  and  C_22
REMARK                            x       y       z     vdW  Elec       q    Type
REMARK                         _______ _______ _______ _____ _____    ______ ____
ROOT
ATOM      1  N   UNL     1       4.923  16.884  20.013  0.00  0.00    +0.000 N 
ATOM      2  C   UNL     1       3.835  17.315  20.822  0.00  0.00    +0.000 A 
ATOM      3  C   UNL     1       3.985  18.631  21.549  0.00  0.00    +0.000 C 
ATOM      4  C   UNL     1       2.735  16.535  20.986  0.00  0.00    +0.000 A 
ATOM      5  C   UNL     1       2.743  15.264  20.165  0.00  0.00    +0.000 A 
ATOM      6  N   UNL     1       1.644  14.426  20.074  0.00  0.00    +0.000 N 
ATOM      7  C   UNL     1       0.377  14.848  19.475  0.00  0.00    +0.000 C 
ATOM      8  C   UNL     1      -0.089  13.859  18.377  0.00  0.00    +0.000 C 
ATOM      9  N   UNL     1      -0.117  12.420  18.779  0.00  0.00    +0.000 NA
ATOM     10  C   UNL     1       1.260  12.113  19.253  0.00  0.00    +0.000 C 
ATOM     11  C   UNL     1       1.771  13.001  20.399  0.00  0.00    +0.000 C 
ATOM     12  N   UNL     1       3.783  14.862  19.491  0.00  0.00    +0.000 NA
ATOM     13  C   UNL     1       4.924  15.593  19.439  0.00  0.00    +0.000 A 
ATOM     14  S   UNL     1       6.251  14.876  18.653  0.00  0.00    +0.000 S 
ENDROOT
BRANCH   4  15
ATOM     15  C   UNL     1       1.578  16.741  21.956  0.00  0.00    +0.000 C 
ATOM     16  C   UNL     1       0.432  17.693  21.725  0.00  0.00    +0.000 C 
ATOM     17  O   UNL     1       1.524  16.070  22.995  0.00  0.00    +0.000 OA
ENDBRANCH   4  15
BRANCH   1  19
ATOM     18  C   UNL     1       7.164  17.539  20.936  0.00  0.00    +0.000 C 
ATOM     19  C   UNL     1       6.121  17.743  19.840  0.00  0.00    +0.000 C 
ENDBRANCH   1  19
BRANCH   9  20
ATOM     20  C   UNL     1      -1.177  12.153  19.804  0.00  0.00    +0.000 C 
BRANCH  20  21
ATOM     21  C   UNL     1      -2.522  11.838  19.137  0.00  0.00    +0.000 A 
ATOM     22  C   UNL     1      -2.586  11.086  17.951  0.00  0.00    +0.000 A 
ATOM     23  C   UNL     1      -3.805  10.877  17.303  0.00  0.00    +0.000 A 
ATOM     24  C   UNL     1      -4.976  11.419  17.827  0.00  0.00    +0.000 A 
ATOM     25  C   UNL     1      -4.934  12.160  19.006  0.00  0.00    +0.000 A 
ATOM     26  C   UNL     1      -3.716  12.364  19.661  0.00  0.00    +0.000 A 
ENDBRANCH  20  21
BRANCH  20  27
ATOM     27  C   UNL     1      -0.816  11.078  20.844  0.00  0.00    +0.000 A 
ATOM     28  C   UNL     1      -0.351   9.823  20.407  0.00  0.00    +0.000 A 
ATOM     29  C   UNL     1      -0.095   8.794  21.317  0.00  0.00    +0.000 A 
ATOM     30  C   UNL     1      -0.292   9.004  22.679  0.00  0.00    +0.000 A 
ATOM     31  C   UNL     1      -0.704  10.254  23.136  0.00  0.00    +0.000 A 
ATOM     32  C   UNL     1      -0.943  11.288  22.228  0.00  0.00    +0.000 A 
ENDBRANCH  20  27
ENDBRANCH   9  20
TORSDOF 5
ENDMDL
MODEL 5
REMARK VINA RESULT:      -5.9      5.384      8.307
REMARK  Name = 
REMARK  8 active torsions:
REMARK  status: ('A' for Active; 'I' for Inactive)
REMARK    1  A    between atoms: C_1  and  C_2
REMARK    2  A    between atoms: C_2  and  N_3
REMARK    3  A    between atoms: C_4  and  C_5
REMARK    4  A    between atoms: C_6  and  C_7
REMARK    5  A    between atoms: C_7  and  C_8
REMARK    6  A    between atoms: N_14  and  C_15
REMARK    7  A    between atoms: C_15  and  C_16
REMARK    8  A    between atoms: C_15  and  C_22
REMARK                            x       y       z     vdW  Elec       q    Type
REMARK                         _______ _______ _______ _____ _____    ______ ____
ROOT
ATOM      1  N   UNL     1       5.393   5.035  17.847  0.00  0.00    +0.000 N 
ATOM      2  C   UNL     1       4.326   4.431  18.571  0.00  0.00    +0.000 A 
ATOM      3  C   UNL     1       4.480   2.979  18.956  0.00  0.00    +0.000 C 
ATOM      4  C   UNL     1       3.187   5.121  18.839  0.00  0.00    +0.000 A 
ATOM      5  C   UNL     1       3.215   6.569  18.402  0.00  0.00    +0.000 A 
ATOM      6  N   UNL     1       2.217   7.470  18.733  0.00  0.00    +0.000 N 
ATOM      7  C   UNL     1       1.928   7.855  20.115  0.00  0.00    +0.000 C 
ATOM      8  C   UNL     1       1.932   9.395  20.287  0.00  0.00    +0.000 C 
ATOM      9  N   UNL     1       1.090  10.151  19.312  0.00  0.00    +0.000 NA
ATOM     10  C   UNL     1       1.577   9.745  17.966  0.00  0.00    +0.000 C 
ATOM     11  C   UNL     1       1.532   8.234  17.684  0.00  0.00    +0.000 C 
ATOM     12  N   UNL     1       4.175   7.072  17.678  0.00  0.00    +0.000 NA
ATOM     13  C   UNL     1       5.252   6.334  17.309  0.00  0.00    +0.000 A 
ATOM     14  S   UNL     1       6.349   7.070  16.239  0.00  0.00    +0.000 S 
ENDROOT
BRANCH   4  15
ATOM     15  C   UNL     1       1.884   4.585  19.418  0.00  0.00    +0.000 C 
ATOM     16  C   UNL     1       1.569   4.522  20.892  0.00  0.00    +0.000 C 
ATOM     17  O   UNL     1       0.987   4.202  18.656  0.00  0.00    +0.000 OA
ENDBRANCH   4  15
BRANCH   1  19
ATOM     18  C   UNL     1       7.819   4.720  18.409  0.00  0.00    +0.000 C 
ATOM     19  C   UNL     1       6.634   4.274  17.557  0.00  0.00    +0.000 C 
ENDBRANCH   1  19
BRANCH   9  20
ATOM     20  C   UNL     1      -0.371   9.893  19.525  0.00  0.00    +0.000 C 
BRANCH  20  21
ATOM     21  C   UNL     1      -0.864  10.544  20.823  0.00  0.00    +0.000 A 
ATOM     22  C   UNL     1      -1.407  11.840  20.824  0.00  0.00    +0.000 A 
ATOM     23  C   UNL     1      -1.772  12.461  22.021  0.00  0.00    +0.000 A 
ATOM     24  C   UNL     1      -1.597  11.797  23.233  0.00  0.00    +0.000 A 
ATOM     25  C   UNL     1      -1.069  10.508  23.251  0.00  0.00    +0.000 A 
ATOM     26  C   UNL     1      -0.709   9.882  22.054  0.00  0.00    +0.000 A 
ENDBRANCH  20  21
BRANCH  20  27
ATOM     27  C   UNL     1      -1.276  10.277  18.341  0.00  0.00    +0.000 A 
ATOM     28  C   UNL     1      -1.186  11.572  17.795  0.00  0.00    +0.000 A 
ATOM     29  C   UNL     1      -2.050  11.985  16.778  0.00  0.00    +0.000 A 
ATOM     30  C   UNL     1      -3.013  11.110  16.283  0.00  0.00    +0.000 A 
ATOM     31  C   UNL     1      -3.084   9.807  16.774  0.00  0.00    +0.000 A 
ATOM     32  C   UNL     1      -2.209   9.389  17.779  0.00  0.00    +0.000 A 
ENDBRANCH  20  27
ENDBRANCH   9  20
TORSDOF 5
ENDMDL
MODEL 6
REMARK VINA RESULT:      -5.9      2.429      3.462
REMARK  Name = 
REMARK  8 active torsions:
REMARK  status: ('A' for Active; 'I' for Inactive)
REMARK    1  A    between atoms: C_1  and  C_2
REMARK    2  A    between atoms: C_2  and  N_3
REMARK    3  A    between atoms: C_4  and  C_5
REMARK    4  A    between atoms: C_6  and  C_7
REMARK    5  A    between atoms: C_7  and  C_8
REMARK    6  A    between atoms: N_14  and  C_15
REMARK    7  A    between atoms: C_15  and  C_16
REMARK    8  A    between atoms: C_15  and  C_22
REMARK                            x       y       z     vdW  Elec       q    Type
REMARK                         _______ _______ _______ _____ _____    ______ ____
ROOT
ATOM      1  N   UNL     1       5.850  14.982  21.049  0.00  0.00    +0.000 N 
ATOM      2  C   UNL     1       5.241  15.544  19.892  0.00  0.00    +0.000 A 
ATOM      3  C   UNL     1       6.080  16.471  19.044  0.00  0.00    +0.000 C 
ATOM      4  C   UNL     1       3.935  15.308  19.606  0.00  0.00    +0.000 A 
ATOM      5  C   UNL     1       3.255  14.338  20.548  0.00  0.00    +0.000 A 
ATOM      6  N   UNL     1       1.979  13.849  20.325  0.00  0.00    +0.000 N 
ATOM      7  C   UNL     1       1.642  13.018  19.168  0.00  0.00    +0.000 C 
ATOM      8  C   UNL     1       0.942  11.704  19.598  0.00  0.00    +0.000 C 
ATOM      9  N   UNL     1      -0.222  11.870  20.519  0.00  0.00    +0.000 NA
ATOM     10  C   UNL     1       0.301  12.626  21.690  0.00  0.00    +0.000 C 
ATOM     11  C   UNL     1       0.944  13.982  21.357  0.00  0.00    +0.000 C 
ATOM     12  N   UNL     1       3.816  13.897  21.638  0.00  0.00    +0.000 NA
ATOM     13  C   UNL     1       5.083  14.244  21.978  0.00  0.00    +0.000 A 
ATOM     14  S   UNL     1       5.633  13.722  23.500  0.00  0.00    +0.000 S 
ENDROOT
BRANCH   4  15
ATOM     15  C   UNL     1       3.075  15.973  18.539  0.00  0.00    +0.000 C 
ATOM     16  C   UNL     1       2.100  17.092  18.806  0.00  0.00    +0.000 C 
ATOM     17  O   UNL     1       3.185  15.622  17.357  0.00  0.00    +0.000 OA
ENDBRANCH   4  15
BRANCH   1  19
ATOM     18  C   UNL     1       8.211  14.158  20.829  0.00  0.00    +0.000 C 
ATOM     19  C   UNL     1       7.279  15.247  21.354  0.00  0.00    +0.000 C 
ENDBRANCH   1  19
BRANCH   9  20
ATOM     20  C   UNL     1      -1.376  12.542  19.838  0.00  0.00    +0.000 C 
BRANCH  20  21
ATOM     21  C   UNL     1      -2.047  11.600  18.831  0.00  0.00    +0.000 A 
ATOM     22  C   UNL     1      -1.307  10.617  18.153  0.00  0.00    +0.000 A 
ATOM     23  C   UNL     1      -1.906   9.821  17.174  0.00  0.00    +0.000 A 
ATOM     24  C   UNL     1      -3.250   9.998  16.856  0.00  0.00    +0.000 A 
ATOM     25  C   UNL     1      -4.002  10.962  17.524  0.00  0.00    +0.000 A 
ATOM     26  C   UNL     1      -3.408  11.755  18.510  0.00  0.00    +0.000 A 
ENDBRANCH  20  21
BRANCH  20  27
ATOM     27  C   UNL     1      -2.417  13.162  20.788  0.00  0.00    +0.000 A 
ATOM     28  C   UNL     1      -2.723  14.532  20.678  0.00  0.00    +0.000 A 
ATOM     29  C   UNL     1      -3.598  15.148  21.576  0.00  0.00    +0.000 A 
ATOM     30  C   UNL     1      -4.188  14.404  22.594  0.00  0.00    +0.000 A 
ATOM     31  C   UNL     1      -3.938  13.036  22.689  0.00  0.00    +0.000 A 
ATOM     32  C   UNL     1      -3.077  12.418  21.780  0.00  0.00    +0.000 A 
ENDBRANCH  20  27
ENDBRANCH   9  20
TORSDOF 5
ENDMDL
MODEL 7
REMARK VINA RESULT:      -5.8      3.121      4.365
REMARK  Name = 
REMARK  8 active torsions:
REMARK  status: ('A' for Active; 'I' for Inactive)
REMARK    1  A    between atoms: C_1  and  C_2
REMARK    2  A    between atoms: C_2  and  N_3
REMARK    3  A    between atoms: C_4  and  C_5
REMARK    4  A    between atoms: C_6  and  C_7
REMARK    5  A    between atoms: C_7  and  C_8
REMARK    6  A    between atoms: N_14  and  C_15
REMARK    7  A    between atoms: C_15  and  C_16
REMARK    8  A    between atoms: C_15  and  C_22
REMARK                            x       y       z     vdW  Elec       q    Type
REMARK                         _______ _______ _______ _____ _____    ______ ____
ROOT
ATOM      1  N   UNL     1       0.926  17.340  23.522  0.00  0.00    +0.000 N 
ATOM      2  C   UNL     1      -0.253  16.620  23.864  0.00  0.00    +0.000 A 
ATOM      3  C   UNL     1      -1.112  17.178  24.974  0.00  0.00    +0.000 C 
ATOM      4  C   UNL     1      -0.550  15.441  23.260  0.00  0.00    +0.000 A 
ATOM      5  C   UNL     1       0.407  15.045  22.156  0.00  0.00    +0.000 A 
ATOM      6  N   UNL     1       0.179  13.965  21.321  0.00  0.00    +0.000 N 
ATOM      7  C   UNL     1      -0.962  13.901  20.406  0.00  0.00    +0.000 C 
ATOM      8  C   UNL     1      -0.509  13.594  18.955  0.00  0.00    +0.000 C 
ATOM      9  N   UNL     1       0.392  12.413  18.802  0.00  0.00    +0.000 NA
ATOM     10  C   UNL     1       1.551  12.677  19.698  0.00  0.00    +0.000 C 
ATOM     11  C   UNL     1       1.194  12.915  21.175  0.00  0.00    +0.000 C 
ATOM     12  N   UNL     1       1.515  15.687  21.915  0.00  0.00    +0.000 NA
ATOM     13  C   UNL     1       1.863  16.796  22.614  0.00  0.00    +0.000 A 
ATOM     14  S   UNL     1       3.405  17.441  22.300  0.00  0.00    +0.000 S 
ENDROOT
BRANCH   4  15
ATOM     15  C   UNL     1      -1.644  14.449  23.632  0.00  0.00    +0.000 C 
ATOM     16  C   UNL     1      -3.122  14.744  23.561  0.00  0.00    +0.000 C 
ATOM     17  O   UNL     1      -1.338  13.302  23.986  0.00  0.00    +0.000 OA
ENDBRANCH   4  15
BRANCH   1  19
ATOM     18  C   UNL     1       1.984  18.450  25.509  0.00  0.00    +0.000 C 
ATOM     19  C   UNL     1       1.243  18.629  24.187  0.00  0.00    +0.000 C 
ENDBRANCH   1  19
BRANCH   9  20
ATOM     20  C   UNL     1      -0.320  11.129  19.105  0.00  0.00    +0.000 C 
BRANCH  20  21
ATOM     21  C   UNL     1      -1.544  10.950  18.197  0.00  0.00    +0.000 A 
ATOM     22  C   UNL     1      -2.765  11.581  18.490  0.00  0.00    +0.000 A 
ATOM     23  C   UNL     1      -3.897  11.344  17.708  0.00  0.00    +0.000 A 
ATOM     24  C   UNL     1      -3.827  10.472  16.625  0.00  0.00    +0.000 A 
ATOM     25  C   UNL     1      -2.623   9.845  16.313  0.00  0.00    +0.000 A 
ATOM     26  C   UNL     1      -1.486  10.086  17.089  0.00  0.00    +0.000 A 
ENDBRANCH  20  21
BRANCH  20  27
ATOM     27  C   UNL     1       0.569   9.874  19.082  0.00  0.00    +0.000 A 
ATOM     28  C   UNL     1       0.717   9.111  20.257  0.00  0.00    +0.000 A 
ATOM     29  C   UNL     1       1.582   8.015  20.298  0.00  0.00    +0.000 A 
ATOM     30  C   UNL     1       2.308   7.657  19.164  0.00  0.00    +0.000 A 
ATOM     31  C   UNL     1       2.136   8.367  17.978  0.00  0.00    +0.000 A 
ATOM     32  C   UNL     1       1.258   9.453  17.932  0.00  0.00    +0.000 A 
ENDBRANCH  20  27
ENDBRANCH   9  20
TORSDOF 5
ENDMDL
MODEL 8
REMARK VINA RESULT:      -5.8      2.289      3.192
REMARK  Name = 
REMARK  8 active torsions:
REMARK  status: ('A' for Active; 'I' for Inactive)
REMARK    1  A    between atoms: C_1  and  C_2
REMARK    2  A    between atoms: C_2  and  N_3
REMARK    3  A    between atoms: C_4  and  C_5
REMARK    4  A    between atoms: C_6  and  C_7
REMARK    5  A    between atoms: C_7  and  C_8
REMARK    6  A    between atoms: N_14  and  C_15
REMARK    7  A    between atoms: C_15  and  C_16
REMARK    8  A    between atoms: C_15  and  C_22
REMARK                            x       y       z     vdW  Elec       q    Type
REMARK                         _______ _______ _______ _____ _____    ______ ____
ROOT
ATOM      1  N   UNL     1       5.819  15.311  21.045  0.00  0.00    +0.000 N 
ATOM      2  C   UNL     1       5.136  16.003  20.006  0.00  0.00    +0.000 A 
ATOM      3  C   UNL     1       5.889  17.098  19.286  0.00  0.00    +0.000 C 
ATOM      4  C   UNL     1       3.835  15.734  19.727  0.00  0.00    +0.000 A 
ATOM      5  C   UNL     1       3.246  14.593  20.528  0.00  0.00    +0.000 A 
ATOM      6  N   UNL     1       1.992  14.068  20.271  0.00  0.00    +0.000 N 
ATOM      7  C   UNL     1       1.657  13.403  19.011  0.00  0.00    +0.000 C 
ATOM      8  C   UNL     1       1.047  11.999  19.254  0.00  0.00    +0.000 C 
ATOM      9  N   UNL     1      -0.088  11.953  20.225  0.00  0.00    +0.000 NA
ATOM     10  C   UNL     1       0.438  12.552  21.481  0.00  0.00    +0.000 C 
ATOM     11  C   UNL     1       0.992  13.980  21.342  0.00  0.00    +0.000 C 
ATOM     12  N   UNL     1       3.873  14.027  21.520  0.00  0.00    +0.000 NA
ATOM     13  C   UNL     1       5.131  14.394  21.871  0.00  0.00    +0.000 A 
ATOM     14  S   UNL     1       5.767  13.682  23.278  0.00  0.00    +0.000 S 
ENDROOT
BRANCH   4  15
ATOM     15  C   UNL     1       2.899  16.500  18.801  0.00  0.00    +0.000 C 
ATOM     16  C   UNL     1       2.962  16.451  17.295  0.00  0.00    +0.000 C 
ATOM     17  O   UNL     1       1.991  17.191  19.282  0.00  0.00    +0.000 OA
ENDBRANCH   4  15
BRANCH   1  19
ATOM     18  C   UNL     1       8.211  14.657  20.651  0.00  0.00    +0.000 C 
ATOM     19  C   UNL     1       7.242  15.612  21.343  0.00  0.00    +0.000 C 
ENDBRANCH   1  19
BRANCH   9  20
ATOM     20  C   UNL     1      -1.302  12.649  19.690  0.00  0.00    +0.000 C 
BRANCH  20  21
ATOM     21  C   UNL     1      -2.044  11.766  18.678  0.00  0.00    +0.000 A 
ATOM     22  C   UNL     1      -3.402  11.978  18.388  0.00  0.00    +0.000 A 
ATOM     23  C   UNL     1      -4.093  11.117  17.532  0.00  0.00    +0.000 A 
ATOM     24  C   UNL     1      -3.437  10.032  16.957  0.00  0.00    +0.000 A 
ATOM     25  C   UNL     1      -2.089   9.811  17.225  0.00  0.00    +0.000 A 
ATOM     26  C   UNL     1      -1.393  10.675  18.075  0.00  0.00    +0.000 A 
ENDBRANCH  20  21
BRANCH  20  27
ATOM     27  C   UNL     1      -2.268  13.183  20.763  0.00  0.00    +0.000 A 
ATOM     28  C   UNL     1      -2.842  12.285  21.683  0.00  0.00    +0.000 A 
ATOM     29  C   UNL     1      -3.787  12.718  22.616  0.00  0.00    +0.000 A 
ATOM     30  C   UNL     1      -4.170  14.057  22.650  0.00  0.00    +0.000 A 
ATOM     31  C   UNL     1      -3.576  14.970  21.781  0.00  0.00    +0.000 A 
ATOM     32  C   UNL     1      -2.618  14.540  20.861  0.00  0.00    +0.000 A 
ENDBRANCH  20  27
ENDBRANCH   9  20
TORSDOF 5
ENDMDL
MODEL 9
REMARK VINA RESULT:      -5.7      3.956      5.393
REMARK  Name = 
REMARK  8 active torsions:
REMARK  status: ('A' for Active; 'I' for Inactive)
REMARK    1  A    between atoms: C_1  and  C_2
REMARK    2  A    between atoms: C_2  and  N_3
REMARK    3  A    between atoms: C_4  and  C_5
REMARK    4  A    between atoms: C_6  and  C_7
REMARK    5  A    between atoms: C_7  and  C_8
REMARK    6  A    between atoms: N_14  and  C_15
REMARK    7  A    between atoms: C_15  and  C_16
REMARK    8  A    between atoms: C_15  and  C_22
REMARK                            x       y       z     vdW  Elec       q    Type
REMARK                         _______ _______ _______ _____ _____    ______ ____
ROOT
ATOM      1  N   UNL     1      -1.051  17.100  23.876  0.00  0.00    +0.000 N 
ATOM      2  C   UNL     1      -2.180  16.235  23.916  0.00  0.00    +0.000 A 
ATOM      3  C   UNL     1      -3.342  16.647  24.788  0.00  0.00    +0.000 C 
ATOM      4  C   UNL     1      -2.177  15.053  23.248  0.00  0.00    +0.000 A 
ATOM      5  C   UNL     1      -0.942  14.813  22.406  0.00  0.00    +0.000 A 
ATOM      6  N   UNL     1      -0.828  13.746  21.532  0.00  0.00    +0.000 N 
ATOM      7  C   UNL     1      -1.699  13.584  20.367  0.00  0.00    +0.000 C 
ATOM      8  C   UNL     1      -0.877  13.386  19.067  0.00  0.00    +0.000 C 
ATOM      9  N   UNL     1       0.172  12.325  19.128  0.00  0.00    +0.000 NA
ATOM     10  C   UNL     1       1.040  12.688  20.281  0.00  0.00    +0.000 C 
ATOM     11  C   UNL     1       0.312  12.828  21.629  0.00  0.00    +0.000 C 
ATOM     12  N   UNL     1       0.104  15.589  22.447  0.00  0.00    +0.000 NA
ATOM     13  C   UNL     1       0.136  16.704  23.218  0.00  0.00    +0.000 A 
ATOM     14  S   UNL     1       1.617  17.536  23.294  0.00  0.00    +0.000 S 
ENDROOT
BRANCH   4  15
ATOM     15  C   UNL     1      -3.199  13.927  23.335  0.00  0.00    +0.000 C 
ATOM     16  C   UNL     1      -2.918  12.564  23.919  0.00  0.00    +0.000 C 
ATOM     17  O   UNL     1      -4.357  14.119  22.945  0.00  0.00    +0.000 OA
ENDBRANCH   4  15
BRANCH   1  19
ATOM     18  C   UNL     1      -0.581  18.263  26.051  0.00  0.00    +0.000 C 
ATOM     19  C   UNL     1      -1.063  18.391  24.608  0.00  0.00    +0.000 C 
ENDBRANCH   1  19
BRANCH   9  20
ATOM     20  C   UNL     1      -0.430  10.957  19.238  0.00  0.00    +0.000 C 
BRANCH  20  21
ATOM     21  C   UNL     1      -1.547  10.760  18.205  0.00  0.00    +0.000 A 
ATOM     22  C   UNL     1      -2.488   9.726  18.341  0.00  0.00    +0.000 A 
ATOM     23  C   UNL     1      -3.448   9.499  17.352  0.00  0.00    +0.000 A 
ATOM     24  C   UNL     1      -3.479  10.300  16.213  0.00  0.00    +0.000 A 
ATOM     25  C   UNL     1      -2.560  11.336  16.065  0.00  0.00    +0.000 A 
ATOM     26  C   UNL     1      -1.603  11.570  17.057  0.00  0.00    +0.000 A 
ENDBRANCH  20  21
BRANCH  20  27
ATOM     27  C   UNL     1       0.581   9.798  19.181  0.00  0.00    +0.000 A 
ATOM     28  C   UNL     1       1.196   9.479  17.955  0.00  0.00    +0.000 A 
ATOM     29  C   UNL     1       2.053   8.381  17.845  0.00  0.00    +0.000 A 
ATOM     30  C   UNL     1       2.316   7.587  18.958  0.00  0.00    +0.000 A 
ATOM     31  C   UNL     1       1.757   7.916  20.191  0.00  0.00    +0.000 A 
ATOM     32  C   UNL     1       0.914   9.024  20.305  0.00  0.00    +0.000 A 
ENDBRANCH  20  27
ENDBRANCH   9  20
TORSDOF 5
ENDMDL
