MODEL 1
REMARK VINA RESULT:      -7.0      0.000      0.000
REMARK  Name = 
REMARK  14 active torsions:
REMARK  status: ('A' for Active; 'I' for Inactive)
REMARK    1  A    between atoms: C_1  and  O_2
REMARK    2  A    between atoms: O_2  and  C_3
REMARK    3  A    between atoms: C_6  and  C_7
REMARK    4  A    between atoms: C_7  and  C_8
REMARK    5  A    between atoms: C_10  and  O_11
REMARK    6  A    between atoms: O_11  and  C_12
REMARK    7  A    between atoms: C_13  and  O_14
REMARK    8  A    between atoms: O_14  and  C_15
REMARK    9  A    between atoms: C_16  and  O_17
REMARK   10  A    between atoms: O_17  and  C_18
REMARK   11  A    between atoms: C_21  and  C_22
REMARK   12  A    between atoms: C_22  and  C_24
REMARK   13  A    between atoms: C_28  and  C_29
REMARK   14  A    between atoms: C_32  and  O_33
REMARK                            x       y       z     vdW  Elec       q    Type
REMARK                         _______ _______ _______ _____ _____    ______ ____
ROOT
ATOM      1  C   UNL     1       0.684  11.450  19.227  0.00  0.00    +0.000 C 
ATOM      2  C   UNL     1       1.641  12.461  18.537  0.00  0.00    +0.000 C 
ATOM      3  C   UNL     1       1.503  13.659  19.405  0.00  0.00    +0.000 C 
ATOM      4  C   UNL     1       0.999  13.253  20.571  0.00  0.00    +0.000 C 
ATOM      5  C   UNL     1       0.593  14.012  21.788  0.00  0.00    +0.000 C 
ATOM      6  O   UNL     1       0.785  11.864  20.635  0.00  0.00    +0.000 OA
ENDROOT
BRANCH   1  10
ATOM      7  C   UNL     1       2.430   7.462  18.903  0.00  0.00    +0.000 A 
ATOM      8  C   UNL     1       2.443   8.346  17.819  0.00  0.00    +0.000 A 
ATOM      9  C   UNL     1       1.827   9.597  17.895  0.00  0.00    +0.000 A 
ATOM     10  C   UNL     1       1.203  10.019  19.080  0.00  0.00    +0.000 A 
ATOM     11  C   UNL     1       1.136   9.104  20.145  0.00  0.00    +0.000 A 
ATOM     12  C   UNL     1       1.741   7.840  20.058  0.00  0.00    +0.000 A 
BRANCH   7  14
ATOM     13  C   UNL     1       2.425   5.223  18.057  0.00  0.00    +0.000 C 
ATOM     14  O   UNL     1       3.120   6.308  18.654  0.00  0.00    +0.000 OA
ENDBRANCH   7  14
BRANCH  12  15
ATOM     15  O   UNL     1       1.647   7.006  21.137  0.00  0.00    +0.000 OA
ATOM     16  H   UNL     1       1.216   6.180  20.866  0.00  0.00    +0.000 HD
ENDBRANCH  12  15
ENDBRANCH   1  10
BRANCH   1  17
ATOM     17  C   UNL     1      -0.802  11.600  18.827  0.00  0.00    +0.000 A 
ATOM     18  C   UNL     1      -1.291  10.901  17.707  0.00  0.00    +0.000 A 
ATOM     19  C   UNL     1      -2.664  10.745  17.460  0.00  0.00    +0.000 A 
ATOM     20  C   UNL     1      -3.585  11.379  18.314  0.00  0.00    +0.000 A 
ATOM     21  C   UNL     1      -3.101  12.187  19.368  0.00  0.00    +0.000 A 
ATOM     22  C   UNL     1      -1.727  12.296  19.613  0.00  0.00    +0.000 A 
BRANCH  19  23
ATOM     23  O   UNL     1      -3.136   9.968  16.434  0.00  0.00    +0.000 OA
ATOM     24  C   UNL     1      -3.032  10.460  15.103  0.00  0.00    +0.000 C 
ENDBRANCH  19  23
BRANCH  20  25
ATOM     25  O   UNL     1      -4.958  11.321  18.252  0.00  0.00    +0.000 OA
ATOM     26  C   UNL     1      -5.657  12.135  17.324  0.00  0.00    +0.000 C 
ENDBRANCH  20  25
BRANCH  21  27
ATOM     27  O   UNL     1      -4.043  12.763  20.192  0.00  0.00    +0.000 OA
ATOM     28  C   UNL     1      -3.780  12.710  21.588  0.00  0.00    +0.000 C 
ENDBRANCH  21  27
ENDBRANCH   1  17
BRANCH   3  29
ATOM     29  C   UNL     1       1.807  15.043  18.946  0.00  0.00    +0.000 C 
ATOM     30  O   UNL     1       2.983  15.368  18.755  0.00  0.00    +0.000 OA
BRANCH  29  31
ATOM     31  C   UNL     1       0.648  16.023  18.732  0.00  0.00    +0.000 C 
ATOM     32  F   UNL     1       0.317  16.751  19.838  0.00  0.00    +0.000 F 
ATOM     33  F   UNL     1       0.926  16.936  17.762  0.00  0.00    +0.000 F 
ATOM     34  F   UNL     1      -0.497  15.392  18.355  0.00  0.00    +0.000 F 
ENDBRANCH  29  31
ENDBRANCH   3  29
TORSDOF 9
ENDMDL
MODEL 2
REMARK VINA RESULT:      -7.0      1.155      1.351
REMARK  Name = 
REMARK  14 active torsions:
REMARK  status: ('A' for Active; 'I' for Inactive)
REMARK    1  A    between atoms: C_1  and  O_2
REMARK    2  A    between atoms: O_2  and  C_3
REMARK    3  A    between atoms: C_6  and  C_7
REMARK    4  A    between atoms: C_7  and  C_8
REMARK    5  A    between atoms: C_10  and  O_11
REMARK    6  A    between atoms: O_11  and  C_12
REMARK    7  A    between atoms: C_13  and  O_14
REMARK    8  A    between atoms: O_14  and  C_15
REMARK    9  A    between atoms: C_16  and  O_17
REMARK   10  A    between atoms: O_17  and  C_18
REMARK   11  A    between atoms: C_21  and  C_22
REMARK   12  A    between atoms: C_22  and  C_24
REMARK   13  A    between atoms: C_28  and  C_29
REMARK   14  A    between atoms: C_32  and  O_33
REMARK                            x       y       z     vdW  Elec       q    Type
REMARK                         _______ _______ _______ _____ _____    ______ ____
ROOT
ATOM      1  C   UNL     1       0.672  11.322  19.164  0.00  0.00    +0.000 C 
ATOM      2  C   UNL     1       1.624  12.336  18.469  0.00  0.00    +0.000 C 
ATOM      3  C   UNL     1       1.457  13.545  19.316  0.00  0.00    +0.000 C 
ATOM      4  C   UNL     1       0.943  13.151  20.481  0.00  0.00    +0.000 C 
ATOM      5  C   UNL     1       0.510  13.924  21.680  0.00  0.00    +0.000 C 
ATOM      6  O   UNL     1       0.748  11.761  20.566  0.00  0.00    +0.000 OA
ENDROOT
BRANCH   1  10
ATOM      7  C   UNL     1       2.482   7.357  18.920  0.00  0.00    +0.000 A 
ATOM      8  C   UNL     1       2.467   8.213  17.814  0.00  0.00    +0.000 A 
ATOM      9  C   UNL     1       1.830   9.454  17.865  0.00  0.00    +0.000 A 
ATOM     10  C   UNL     1       1.214   9.897  19.047  0.00  0.00    +0.000 A 
ATOM     11  C   UNL     1       1.176   9.009  20.137  0.00  0.00    +0.000 A 
ATOM     12  C   UNL     1       1.802   7.754  20.075  0.00  0.00    +0.000 A 
BRANCH   7  14
ATOM     13  C   UNL     1       2.544   5.146  18.006  0.00  0.00    +0.000 C 
ATOM     14  O   UNL     1       3.189   6.209  18.692  0.00  0.00    +0.000 OA
ENDBRANCH   7  14
BRANCH  12  15
ATOM     15  O   UNL     1       1.736   6.946  21.176  0.00  0.00    +0.000 OA
ATOM     16  H   UNL     1       0.945   6.388  21.116  0.00  0.00    +0.000 HD
ENDBRANCH  12  15
ENDBRANCH   1  10
BRANCH   1  17
ATOM     17  C   UNL     1      -0.810  11.444  18.742  0.00  0.00    +0.000 A 
ATOM     18  C   UNL     1      -1.266  10.747  17.606  0.00  0.00    +0.000 A 
ATOM     19  C   UNL     1      -2.631  10.563  17.336  0.00  0.00    +0.000 A 
ATOM     20  C   UNL     1      -3.580  11.167  18.182  0.00  0.00    +0.000 A 
ATOM     21  C   UNL     1      -3.130  11.973  19.254  0.00  0.00    +0.000 A 
ATOM     22  C   UNL     1      -1.763  12.109  19.521  0.00  0.00    +0.000 A 
BRANCH  19  23
ATOM     23  O   UNL     1      -3.070   9.788  16.294  0.00  0.00    +0.000 OA
ATOM     24  C   UNL     1      -3.103  10.355  14.989  0.00  0.00    +0.000 C 
ENDBRANCH  19  23
BRANCH  20  25
ATOM     25  O   UNL     1      -4.950  11.079  18.098  0.00  0.00    +0.000 OA
ATOM     26  C   UNL     1      -5.663  11.977  17.265  0.00  0.00    +0.000 C 
ENDBRANCH  20  25
BRANCH  21  27
ATOM     27  O   UNL     1      -4.098  12.518  20.069  0.00  0.00    +0.000 OA
ATOM     28  C   UNL     1      -3.677  12.928  21.363  0.00  0.00    +0.000 C 
ENDBRANCH  21  27
ENDBRANCH   1  17
BRANCH   3  29
ATOM     29  C   UNL     1       1.746  14.926  18.838  0.00  0.00    +0.000 C 
ATOM     30  O   UNL     1       0.820  15.737  18.747  0.00  0.00    +0.000 OA
BRANCH  29  31
ATOM     31  C   UNL     1       3.187  15.293  18.465  0.00  0.00    +0.000 C 
ATOM     32  F   UNL     1       4.137  14.515  19.059  0.00  0.00    +0.000 F 
ATOM     33  F   UNL     1       3.410  15.185  17.126  0.00  0.00    +0.000 F 
ATOM     34  F   UNL     1       3.497  16.573  18.808  0.00  0.00    +0.000 F 
ENDBRANCH  29  31
ENDBRANCH   3  29
TORSDOF 9
ENDMDL
MODEL 3
REMARK VINA RESULT:      -6.9      2.805      6.288
REMARK  Name = 
REMARK  14 active torsions:
REMARK  status: ('A' for Active; 'I' for Inactive)
REMARK    1  A    between atoms: C_1  and  O_2
REMARK    2  A    between atoms: O_2  and  C_3
REMARK    3  A    between atoms: C_6  and  C_7
REMARK    4  A    between atoms: C_7  and  C_8
REMARK    5  A    between atoms: C_10  and  O_11
REMARK    6  A    between atoms: O_11  and  C_12
REMARK    7  A    between atoms: C_13  and  O_14
REMARK    8  A    between atoms: O_14  and  C_15
REMARK    9  A    between atoms: C_16  and  O_17
REMARK   10  A    between atoms: O_17  and  C_18
REMARK   11  A    between atoms: C_21  and  C_22
REMARK   12  A    between atoms: C_22  and  C_24
REMARK   13  A    between atoms: C_28  and  C_29
REMARK   14  A    between atoms: C_32  and  O_33
REMARK                            x       y       z     vdW  Elec       q    Type
REMARK                         _______ _______ _______ _____ _____    ______ ____
ROOT
ATOM      1  C   UNL     1       0.068  12.475  19.471  0.00  0.00    +0.000 C 
ATOM      2  C   UNL     1       0.567  12.212  20.920  0.00  0.00    +0.000 C 
ATOM      3  C   UNL     1       0.902  10.766  20.874  0.00  0.00    +0.000 C 
ATOM      4  C   UNL     1       1.043  10.427  19.592  0.00  0.00    +0.000 C 
ATOM      5  C   UNL     1       1.315   9.114  18.943  0.00  0.00    +0.000 C 
ATOM      6  O   UNL     1       0.868  11.505  18.706  0.00  0.00    +0.000 OA
ENDROOT
BRANCH   1  10
ATOM      7  C   UNL     1       1.138  16.587  18.469  0.00  0.00    +0.000 A 
ATOM      8  C   UNL     1      -0.180  16.239  18.782  0.00  0.00    +0.000 A 
ATOM      9  C   UNL     1      -0.541  14.915  19.037  0.00  0.00    +0.000 A 
ATOM     10  C   UNL     1       0.421  13.893  19.021  0.00  0.00    +0.000 A 
ATOM     11  C   UNL     1       1.732  14.235  18.644  0.00  0.00    +0.000 A 
ATOM     12  C   UNL     1       2.086  15.565  18.370  0.00  0.00    +0.000 A 
BRANCH   7  14
ATOM     13  C   UNL     1       0.895  18.508  17.062  0.00  0.00    +0.000 C 
ATOM     14  O   UNL     1       1.304  17.933  18.294  0.00  0.00    +0.000 OA
ENDBRANCH   7  14
BRANCH  12  15
ATOM     15  O   UNL     1       3.382  15.828  18.021  0.00  0.00    +0.000 OA
ATOM     16  H   UNL     1       3.718  16.559  18.564  0.00  0.00    +0.000 HD
ENDBRANCH  12  15
ENDBRANCH   1  10
BRANCH   1  17
ATOM     17  C   UNL     1      -1.415  12.113  19.230  0.00  0.00    +0.000 A 
ATOM     18  C   UNL     1      -2.368  12.398  20.226  0.00  0.00    +0.000 A 
ATOM     19  C   UNL     1      -3.749  12.382  19.971  0.00  0.00    +0.000 A 
ATOM     20  C   UNL     1      -4.201  11.985  18.700  0.00  0.00    +0.000 A 
ATOM     21  C   UNL     1      -3.256  11.576  17.731  0.00  0.00    +0.000 A 
ATOM     22  C   UNL     1      -1.884  11.637  18.000  0.00  0.00    +0.000 A 
BRANCH  19  23
ATOM     23  O   UNL     1      -4.667  12.772  20.911  0.00  0.00    +0.000 OA
ATOM     24  C   UNL     1      -4.293  12.744  22.283  0.00  0.00    +0.000 C 
ENDBRANCH  19  23
BRANCH  20  25
ATOM     25  O   UNL     1      -5.502  11.933  18.255  0.00  0.00    +0.000 OA
ATOM     26  C   UNL     1      -6.186  13.134  17.936  0.00  0.00    +0.000 C 
ENDBRANCH  20  25
BRANCH  21  27
ATOM     27  O   UNL     1      -3.748  11.224  16.493  0.00  0.00    +0.000 OA
ATOM     28  C   UNL     1      -2.800  10.751  15.546  0.00  0.00    +0.000 C 
ENDBRANCH  21  27
ENDBRANCH   1  17
BRANCH   3  29
ATOM     29  C   UNL     1       0.956   9.899  22.084  0.00  0.00    +0.000 C 
ATOM     30  O   UNL     1       2.056   9.549  22.523  0.00  0.00    +0.000 OA
BRANCH  29  31
ATOM     31  C   UNL     1      -0.358   9.463  22.741  0.00  0.00    +0.000 C 
ATOM     32  F   UNL     1      -0.240   9.117  24.056  0.00  0.00    +0.000 F 
ATOM     33  F   UNL     1      -1.297  10.448  22.704  0.00  0.00    +0.000 F 
ATOM     34  F   UNL     1      -0.906   8.379  22.126  0.00  0.00    +0.000 F 
ENDBRANCH  29  31
ENDBRANCH   3  29
TORSDOF 9
ENDMDL
MODEL 4
REMARK VINA RESULT:      -6.9      0.572      2.341
REMARK  Name = 
REMARK  14 active torsions:
REMARK  status: ('A' for Active; 'I' for Inactive)
REMARK    1  A    between atoms: C_1  and  O_2
REMARK    2  A    between atoms: O_2  and  C_3
REMARK    3  A    between atoms: C_6  and  C_7
REMARK    4  A    between atoms: C_7  and  C_8
REMARK    5  A    between atoms: C_10  and  O_11
REMARK    6  A    between atoms: O_11  and  C_12
REMARK    7  A    between atoms: C_13  and  O_14
REMARK    8  A    between atoms: O_14  and  C_15
REMARK    9  A    between atoms: C_16  and  O_17
REMARK   10  A    between atoms: O_17  and  C_18
REMARK   11  A    between atoms: C_21  and  C_22
REMARK   12  A    between atoms: C_22  and  C_24
REMARK   13  A    between atoms: C_28  and  C_29
REMARK   14  A    between atoms: C_32  and  O_33
REMARK                            x       y       z     vdW  Elec       q    Type
REMARK                         _______ _______ _______ _____ _____    ______ ____
ROOT
ATOM      1  C   UNL     1       0.477  11.195  19.303  0.00  0.00    +0.000 C 
ATOM      2  C   UNL     1       1.255  12.283  18.511  0.00  0.00    +0.000 C 
ATOM      3  C   UNL     1       1.092  13.475  19.382  0.00  0.00    +0.000 C 
ATOM      4  C   UNL     1       0.752  13.042  20.596  0.00  0.00    +0.000 C 
ATOM      5  C   UNL     1       0.402  13.777  21.844  0.00  0.00    +0.000 C 
ATOM      6  O   UNL     1       0.682  11.640  20.691  0.00  0.00    +0.000 OA
ENDROOT
BRANCH   1  10
ATOM      7  C   UNL     1       2.558   7.385  18.841  0.00  0.00    +0.000 A 
ATOM      8  C   UNL     1       2.446   8.281  17.773  0.00  0.00    +0.000 A 
ATOM      9  C   UNL     1       1.724   9.470  17.894  0.00  0.00    +0.000 A 
ATOM     10  C   UNL     1       1.116   9.819  19.111  0.00  0.00    +0.000 A 
ATOM     11  C   UNL     1       1.176   8.888  20.163  0.00  0.00    +0.000 A 
ATOM     12  C   UNL     1       1.888   7.685  20.030  0.00  0.00    +0.000 A 
BRANCH   7  14
ATOM     13  C   UNL     1       2.707   5.142  18.020  0.00  0.00    +0.000 C 
ATOM     14  O   UNL     1       3.337   6.301  18.545  0.00  0.00    +0.000 OA
ENDBRANCH   7  14
BRANCH  12  15
ATOM     15  O   UNL     1       1.915   6.831  21.097  0.00  0.00    +0.000 OA
ATOM     16  H   UNL     1       2.767   6.367  21.115  0.00  0.00    +0.000 HD
ENDBRANCH  12  15
ENDBRANCH   1  10
BRANCH   1  17
ATOM     17  C   UNL     1      -1.049  11.195  19.059  0.00  0.00    +0.000 A 
ATOM     18  C   UNL     1      -1.881  11.983  19.878  0.00  0.00    +0.000 A 
ATOM     19  C   UNL     1      -3.212  12.272  19.539  0.00  0.00    +0.000 A 
ATOM     20  C   UNL     1      -3.763  11.687  18.384  0.00  0.00    +0.000 A 
ATOM     21  C   UNL     1      -2.973  10.794  17.623  0.00  0.00    +0.000 A 
ATOM     22  C   UNL     1      -1.637  10.553  17.964  0.00  0.00    +0.000 A 
BRANCH  19  23
ATOM     23  O   UNL     1      -3.982  13.131  20.278  0.00  0.00    +0.000 OA
ATOM     24  C   UNL     1      -4.674  12.623  21.413  0.00  0.00    +0.000 C 
ENDBRANCH  19  23
BRANCH  20  25
ATOM     25  O   UNL     1      -5.028  11.870  17.877  0.00  0.00    +0.000 OA
ATOM     26  C   UNL     1      -6.104  11.090  18.370  0.00  0.00    +0.000 C 
ENDBRANCH  20  25
BRANCH  21  27
ATOM     27  O   UNL     1      -3.549  10.270  16.486  0.00  0.00    +0.000 OA
ATOM     28  C   UNL     1      -2.935  10.613  15.250  0.00  0.00    +0.000 C 
ENDBRANCH  21  27
ENDBRANCH   1  17
BRANCH   3  29
ATOM     29  C   UNL     1       1.210  14.875  18.885  0.00  0.00    +0.000 C 
ATOM     30  O   UNL     1       2.275  15.246  18.383  0.00  0.00    +0.000 OA
BRANCH  29  31
ATOM     31  C   UNL     1       0.005  15.812  19.021  0.00  0.00    +0.000 C 
ATOM     32  F   UNL     1      -1.180  15.175  19.246  0.00  0.00    +0.000 F 
ATOM     33  F   UNL     1       0.153  16.685  20.056  0.00  0.00    +0.000 F 
ATOM     34  F   UNL     1      -0.191  16.565  17.904  0.00  0.00    +0.000 F 
ENDBRANCH  29  31
ENDBRANCH   3  29
TORSDOF 9
ENDMDL
MODEL 5
REMARK VINA RESULT:      -6.9      1.116      2.573
REMARK  Name = 
REMARK  14 active torsions:
REMARK  status: ('A' for Active; 'I' for Inactive)
REMARK    1  A    between atoms: C_1  and  O_2
REMARK    2  A    between atoms: O_2  and  C_3
REMARK    3  A    between atoms: C_6  and  C_7
REMARK    4  A    between atoms: C_7  and  C_8
REMARK    5  A    between atoms: C_10  and  O_11
REMARK    6  A    between atoms: O_11  and  C_12
REMARK    7  A    between atoms: C_13  and  O_14
REMARK    8  A    between atoms: O_14  and  C_15
REMARK    9  A    between atoms: C_16  and  O_17
REMARK   10  A    between atoms: O_17  and  C_18
REMARK   11  A    between atoms: C_21  and  C_22
REMARK   12  A    between atoms: C_22  and  C_24
REMARK   13  A    between atoms: C_28  and  C_29
REMARK   14  A    between atoms: C_32  and  O_33
REMARK                            x       y       z     vdW  Elec       q    Type
REMARK                         _______ _______ _______ _____ _____    ______ ____
ROOT
ATOM      1  C   UNL     1       0.406  11.384  19.290  0.00  0.00    +0.000 C 
ATOM      2  C   UNL     1       1.179  12.452  18.466  0.00  0.00    +0.000 C 
ATOM      3  C   UNL     1       1.040  13.660  19.320  0.00  0.00    +0.000 C 
ATOM      4  C   UNL     1       0.718  13.249  20.547  0.00  0.00    +0.000 C 
ATOM      5  C   UNL     1       0.395  14.008  21.788  0.00  0.00    +0.000 C 
ATOM      6  O   UNL     1       0.639  11.850  20.666  0.00  0.00    +0.000 OA
ENDROOT
BRANCH   1  10
ATOM      7  C   UNL     1       2.446   7.549  18.861  0.00  0.00    +0.000 A 
ATOM      8  C   UNL     1       2.346   8.437  17.785  0.00  0.00    +0.000 A 
ATOM      9  C   UNL     1       1.636   9.634  17.897  0.00  0.00    +0.000 A 
ATOM     10  C   UNL     1       1.030   9.999  19.109  0.00  0.00    +0.000 A 
ATOM     11  C   UNL     1       1.079   9.076  20.168  0.00  0.00    +0.000 A 
ATOM     12  C   UNL     1       1.777   7.865  20.046  0.00  0.00    +0.000 A 
BRANCH   7  14
ATOM     13  C   UNL     1       2.570   5.292  18.074  0.00  0.00    +0.000 C 
ATOM     14  O   UNL     1       3.214   6.454  18.574  0.00  0.00    +0.000 OA
ENDBRANCH   7  14
BRANCH  12  15
ATOM     15  O   UNL     1       1.793   7.019  21.120  0.00  0.00    +0.000 OA
ATOM     16  H   UNL     1       0.896   6.685  21.278  0.00  0.00    +0.000 HD
ENDBRANCH  12  15
ENDBRANCH   1  10
BRANCH   1  17
ATOM     17  C   UNL     1      -1.124  11.393  19.072  0.00  0.00    +0.000 A 
ATOM     18  C   UNL     1      -1.962  11.925  20.070  0.00  0.00    +0.000 A 
ATOM     19  C   UNL     1      -3.308  12.244  19.830  0.00  0.00    +0.000 A 
ATOM     20  C   UNL     1      -3.865  11.944  18.573  0.00  0.00    +0.000 A 
ATOM     21  C   UNL     1      -3.064  11.294  17.605  0.00  0.00    +0.000 A 
ATOM     22  C   UNL     1      -1.715  11.021  17.859  0.00  0.00    +0.000 A 
BRANCH  19  23
ATOM     23  O   UNL     1      -4.089  12.867  20.769  0.00  0.00    +0.000 OA
ATOM     24  C   UNL     1      -3.765  12.700  22.144  0.00  0.00    +0.000 C 
ENDBRANCH  19  23
BRANCH  20  25
ATOM     25  O   UNL     1      -5.145  12.203  18.142  0.00  0.00    +0.000 OA
ATOM     26  C   UNL     1      -6.193  11.305  18.466  0.00  0.00    +0.000 C 
ENDBRANCH  20  25
BRANCH  21  27
ATOM     27  O   UNL     1      -3.647  11.048  16.381  0.00  0.00    +0.000 OA
ATOM     28  C   UNL     1      -2.787  10.569  15.355  0.00  0.00    +0.000 C 
ENDBRANCH  21  27
ENDBRANCH   1  17
BRANCH   3  29
ATOM     29  C   UNL     1       1.160  15.050  18.798  0.00  0.00    +0.000 C 
ATOM     30  O   UNL     1       0.135  15.709  18.602  0.00  0.00    +0.000 OA
BRANCH  29  31
ATOM     31  C   UNL     1       2.556  15.615  18.514  0.00  0.00    +0.000 C 
ATOM     32  F   UNL     1       3.496  15.286  19.446  0.00  0.00    +0.000 F 
ATOM     33  F   UNL     1       3.051  15.175  17.324  0.00  0.00    +0.000 F 
ATOM     34  F   UNL     1       2.559  16.975  18.456  0.00  0.00    +0.000 F 
ENDBRANCH  29  31
ENDBRANCH   3  29
TORSDOF 9
ENDMDL
MODEL 6
REMARK VINA RESULT:      -6.7      2.690      5.796
REMARK  Name = 
REMARK  14 active torsions:
REMARK  status: ('A' for Active; 'I' for Inactive)
REMARK    1  A    between atoms: C_1  and  O_2
REMARK    2  A    between atoms: O_2  and  C_3
REMARK    3  A    between atoms: C_6  and  C_7
REMARK    4  A    between atoms: C_7  and  C_8
REMARK    5  A    between atoms: C_10  and  O_11
REMARK    6  A    between atoms: O_11  and  C_12
REMARK    7  A    between atoms: C_13  and  O_14
REMARK    8  A    between atoms: O_14  and  C_15
REMARK    9  A    between atoms: C_16  and  O_17
REMARK   10  A    between atoms: O_17  and  C_18
REMARK   11  A    between atoms: C_21  and  C_22
REMARK   12  A    between atoms: C_22  and  C_24
REMARK   13  A    between atoms: C_28  and  C_29
REMARK   14  A    between atoms: C_32  and  O_33
REMARK                            x       y       z     vdW  Elec       q    Type
REMARK                         _______ _______ _______ _____ _____    ______ ____
ROOT
ATOM      1  C   UNL     1       0.619  12.415  19.442  0.00  0.00    +0.000 C 
ATOM      2  C   UNL     1       1.025  11.770  20.797  0.00  0.00    +0.000 C 
ATOM      3  C   UNL     1       1.037  10.324  20.459  0.00  0.00    +0.000 C 
ATOM      4  C   UNL     1       1.123  10.222  19.133  0.00  0.00    +0.000 C 
ATOM      5  C   UNL     1       1.113   9.036  18.231  0.00  0.00    +0.000 C 
ATOM      6  O   UNL     1       1.202  11.466  18.480  0.00  0.00    +0.000 OA
ENDROOT
BRANCH   1  10
ATOM      7  C   UNL     1       2.734  16.219  19.109  0.00  0.00    +0.000 A 
ATOM      8  C   UNL     1       1.836  15.982  20.154  0.00  0.00    +0.000 A 
ATOM      9  C   UNL     1       1.106  14.794  20.228  0.00  0.00    +0.000 A 
ATOM     10  C   UNL     1       1.280  13.783  19.270  0.00  0.00    +0.000 A 
ATOM     11  C   UNL     1       2.135  14.051  18.186  0.00  0.00    +0.000 A 
ATOM     12  C   UNL     1       2.853  15.254  18.105  0.00  0.00    +0.000 A 
BRANCH   7  14
ATOM     13  C   UNL     1       4.590  17.454  19.980  0.00  0.00    +0.000 C 
ATOM     14  O   UNL     1       3.385  17.416  19.230  0.00  0.00    +0.000 OA
ENDBRANCH   7  14
BRANCH  12  15
ATOM     15  O   UNL     1       3.676  15.443  17.030  0.00  0.00    +0.000 OA
ATOM     16  H   UNL     1       4.306  14.707  16.975  0.00  0.00    +0.000 HD
ENDBRANCH  12  15
ENDBRANCH   1  10
BRANCH   1  17
ATOM     17  C   UNL     1      -0.902  12.438  19.175  0.00  0.00    +0.000 A 
ATOM     18  C   UNL     1      -1.394  11.998  17.930  0.00  0.00    +0.000 A 
ATOM     19  C   UNL     1      -2.750  11.705  17.719  0.00  0.00    +0.000 A 
ATOM     20  C   UNL     1      -3.667  11.938  18.761  0.00  0.00    +0.000 A 
ATOM     21  C   UNL     1      -3.201  12.497  19.973  0.00  0.00    +0.000 A 
ATOM     22  C   UNL     1      -1.837  12.745  20.169  0.00  0.00    +0.000 A 
BRANCH  19  23
ATOM     23  O   UNL     1      -3.206  11.170  16.542  0.00  0.00    +0.000 OA
ATOM     24  C   UNL     1      -2.693   9.910  16.123  0.00  0.00    +0.000 C 
ENDBRANCH  19  23
BRANCH  20  25
ATOM     25  O   UNL     1      -5.019  11.689  18.754  0.00  0.00    +0.000 OA
ATOM     26  C   UNL     1      -5.891  12.549  18.039  0.00  0.00    +0.000 C 
ENDBRANCH  20  25
BRANCH  21  27
ATOM     27  O   UNL     1      -4.133  12.679  20.971  0.00  0.00    +0.000 OA
ATOM     28  C   UNL     1      -3.644  12.657  22.306  0.00  0.00    +0.000 C 
ENDBRANCH  21  27
ENDBRANCH   1  17
BRANCH   3  29
ATOM     29  C   UNL     1       0.882   9.244  21.474  0.00  0.00    +0.000 C 
ATOM     30  O   UNL     1       1.658   8.284  21.453  0.00  0.00    +0.000 OA
BRANCH  29  31
ATOM     31  C   UNL     1      -0.245   9.357  22.507  0.00  0.00    +0.000 C 
ATOM     32  F   UNL     1      -1.066  10.431  22.328  0.00  0.00    +0.000 F 
ATOM     33  F   UNL     1      -1.061   8.266  22.491  0.00  0.00    +0.000 F 
ATOM     34  F   UNL     1       0.230   9.467  23.777  0.00  0.00    +0.000 F 
ENDBRANCH  29  31
ENDBRANCH   3  29
TORSDOF 9
ENDMDL
MODEL 7
REMARK VINA RESULT:      -6.6      2.911      6.407
REMARK  Name = 
REMARK  14 active torsions:
REMARK  status: ('A' for Active; 'I' for Inactive)
REMARK    1  A    between atoms: C_1  and  O_2
REMARK    2  A    between atoms: O_2  and  C_3
REMARK    3  A    between atoms: C_6  and  C_7
REMARK    4  A    between atoms: C_7  and  C_8
REMARK    5  A    between atoms: C_10  and  O_11
REMARK    6  A    between atoms: O_11  and  C_12
REMARK    7  A    between atoms: C_13  and  O_14
REMARK    8  A    between atoms: O_14  and  C_15
REMARK    9  A    between atoms: C_16  and  O_17
REMARK   10  A    between atoms: O_17  and  C_18
REMARK   11  A    between atoms: C_21  and  C_22
REMARK   12  A    between atoms: C_22  and  C_24
REMARK   13  A    between atoms: C_28  and  C_29
REMARK   14  A    between atoms: C_32  and  O_33
REMARK                            x       y       z     vdW  Elec       q    Type
REMARK                         _______ _______ _______ _____ _____    ______ ____
ROOT
ATOM      1  C   UNL     1      -0.018  12.711  19.693  0.00  0.00    +0.000 C 
ATOM      2  C   UNL     1       0.497  12.331  21.110  0.00  0.00    +0.000 C 
ATOM      3  C   UNL     1       0.850  10.899  20.936  0.00  0.00    +0.000 C 
ATOM      4  C   UNL     1       0.984  10.674  19.628  0.00  0.00    +0.000 C 
ATOM      5  C   UNL     1       1.265   9.425  18.866  0.00  0.00    +0.000 C 
ATOM      6  O   UNL     1       0.787  11.823  18.840  0.00  0.00    +0.000 OA
ENDROOT
BRANCH   1  10
ATOM      7  C   UNL     1       0.931  16.793  18.471  0.00  0.00    +0.000 A 
ATOM      8  C   UNL     1       1.943  15.878  18.779  0.00  0.00    +0.000 A 
ATOM      9  C   UNL     1       1.645  14.593  19.236  0.00  0.00    +0.000 A 
ATOM     10  C   UNL     1       0.314  14.168  19.365  0.00  0.00    +0.000 A 
ATOM     11  C   UNL     1      -0.700  15.109  19.116  0.00  0.00    +0.000 A 
ATOM     12  C   UNL     1      -0.396  16.407  18.675  0.00  0.00    +0.000 A 
BRANCH   7  14
ATOM     13  C   UNL     1       1.304  18.252  16.611  0.00  0.00    +0.000 C 
ATOM     14  O   UNL     1       1.417  17.982  18.000  0.00  0.00    +0.000 OA
ENDBRANCH   7  14
BRANCH  12  15
ATOM     15  O   UNL     1      -1.432  17.267  18.440  0.00  0.00    +0.000 OA
ATOM     16  H   UNL     1      -2.060  17.221  19.178  0.00  0.00    +0.000 HD
ENDBRANCH  12  15
ENDBRANCH   1  10
BRANCH   1  17
ATOM     17  C   UNL     1      -1.498  12.352  19.434  0.00  0.00    +0.000 A 
ATOM     18  C   UNL     1      -2.487  12.799  20.331  0.00  0.00    +0.000 A 
ATOM     19  C   UNL     1      -3.854  12.777  20.014  0.00  0.00    +0.000 A 
ATOM     20  C   UNL     1      -4.261  12.213  18.791  0.00  0.00    +0.000 A 
ATOM     21  C   UNL     1      -3.285  11.648  17.938  0.00  0.00    +0.000 A 
ATOM     22  C   UNL     1      -1.925  11.716  18.262  0.00  0.00    +0.000 A 
BRANCH  19  23
ATOM     23  O   UNL     1      -4.803  13.318  20.843  0.00  0.00    +0.000 OA
ATOM     24  C   UNL     1      -5.343  12.508  21.882  0.00  0.00    +0.000 C 
ENDBRANCH  19  23
BRANCH  20  25
ATOM     25  O   UNL     1      -5.541  12.127  18.295  0.00  0.00    +0.000 OA
ATOM     26  C   UNL     1      -6.344  11.002  18.610  0.00  0.00    +0.000 C 
ENDBRANCH  20  25
BRANCH  21  27
ATOM     27  O   UNL     1      -3.731  11.134  16.740  0.00  0.00    +0.000 OA
ATOM     28  C   UNL     1      -2.732  10.732  15.812  0.00  0.00    +0.000 C 
ENDBRANCH  21  27
ENDBRANCH   1  17
BRANCH   3  29
ATOM     29  C   UNL     1       0.926   9.931  22.066  0.00  0.00    +0.000 C 
ATOM     30  O   UNL     1       2.031   9.518  22.429  0.00  0.00    +0.000 OA
BRANCH  29  31
ATOM     31  C   UNL     1      -0.373   9.473  22.737  0.00  0.00    +0.000 C 
ATOM     32  F   UNL     1      -0.939   8.368  22.170  0.00  0.00    +0.000 F 
ATOM     33  F   UNL     1      -0.185   9.155  24.048  0.00  0.00    +0.000 F 
ATOM     34  F   UNL     1      -1.337  10.433  22.704  0.00  0.00    +0.000 F 
ENDBRANCH  29  31
ENDBRANCH   3  29
TORSDOF 9
ENDMDL
MODEL 8
REMARK VINA RESULT:      -6.5      1.179      2.686
REMARK  Name = 
REMARK  14 active torsions:
REMARK  status: ('A' for Active; 'I' for Inactive)
REMARK    1  A    between atoms: C_1  and  O_2
REMARK    2  A    between atoms: O_2  and  C_3
REMARK    3  A    between atoms: C_6  and  C_7
REMARK    4  A    between atoms: C_7  and  C_8
REMARK    5  A    between atoms: C_10  and  O_11
REMARK    6  A    between atoms: O_11  and  C_12
REMARK    7  A    between atoms: C_13  and  O_14
REMARK    8  A    between atoms: O_14  and  C_15
REMARK    9  A    between atoms: C_16  and  O_17
REMARK   10  A    between atoms: O_17  and  C_18
REMARK   11  A    between atoms: C_21  and  C_22
REMARK   12  A    between atoms: C_22  and  C_24
REMARK   13  A    between atoms: C_28  and  C_29
REMARK   14  A    between atoms: C_32  and  O_33
REMARK                            x       y       z     vdW  Elec       q    Type
REMARK                         _______ _______ _______ _____ _____    ______ ____
ROOT
ATOM      1  C   UNL     1       0.405  11.850  19.694  0.00  0.00    +0.000 C 
ATOM      2  C   UNL     1       0.943  12.851  18.633  0.00  0.00    +0.000 C 
ATOM      3  C   UNL     1       1.068  14.102  19.425  0.00  0.00    +0.000 C 
ATOM      4  C   UNL     1       1.088  13.761  20.714  0.00  0.00    +0.000 C 
ATOM      5  C   UNL     1       1.136  14.587  21.952  0.00  0.00    +0.000 C 
ATOM      6  O   UNL     1       1.017  12.372  20.926  0.00  0.00    +0.000 OA
ENDROOT
BRANCH   1  10
ATOM      7  C   UNL     1       2.167   7.917  18.998  0.00  0.00    +0.000 A 
ATOM      8  C   UNL     1       2.045   8.847  17.961  0.00  0.00    +0.000 A 
ATOM      9  C   UNL     1       1.421  10.080  18.161  0.00  0.00    +0.000 A 
ATOM     10  C   UNL     1       0.928  10.438  19.426  0.00  0.00    +0.000 A 
ATOM     11  C   UNL     1       0.995   9.477  20.450  0.00  0.00    +0.000 A 
ATOM     12  C   UNL     1       1.606   8.231  20.239  0.00  0.00    +0.000 A 
BRANCH   7  14
ATOM     13  C   UNL     1       3.851   6.908  17.629  0.00  0.00    +0.000 C 
ATOM     14  O   UNL     1       2.843   6.789  18.623  0.00  0.00    +0.000 OA
ENDBRANCH   7  14
BRANCH  12  15
ATOM     15  O   UNL     1       1.647   7.349  21.283  0.00  0.00    +0.000 OA
ATOM     16  H   UNL     1       1.350   7.795  22.091  0.00  0.00    +0.000 HD
ENDBRANCH  12  15
ENDBRANCH   1  10
BRANCH   1  17
ATOM     17  C   UNL     1      -1.125  11.901  19.904  0.00  0.00    +0.000 A 
ATOM     18  C   UNL     1      -1.640  12.295  21.154  0.00  0.00    +0.000 A 
ATOM     19  C   UNL     1      -2.985  12.654  21.333  0.00  0.00    +0.000 A 
ATOM     20  C   UNL     1      -3.871  12.538  20.247  0.00  0.00    +0.000 A 
ATOM     21  C   UNL     1      -3.390  12.025  19.020  0.00  0.00    +0.000 A 
ATOM     22  C   UNL     1      -2.036  11.708  18.859  0.00  0.00    +0.000 A 
BRANCH  19  23
ATOM     23  O   UNL     1      -3.456  13.145  22.523  0.00  0.00    +0.000 OA
ATOM     24  C   UNL     1      -3.290  12.360  23.698  0.00  0.00    +0.000 C 
ENDBRANCH  19  23
BRANCH  20  25
ATOM     25  O   UNL     1      -5.207  12.865  20.219  0.00  0.00    +0.000 OA
ATOM     26  C   UNL     1      -5.596  14.227  20.152  0.00  0.00    +0.000 C 
ENDBRANCH  20  25
BRANCH  21  27
ATOM     27  O   UNL     1      -4.290  11.958  17.979  0.00  0.00    +0.000 OA
ATOM     28  C   UNL     1      -4.024  10.988  16.974  0.00  0.00    +0.000 C 
ENDBRANCH  21  27
ENDBRANCH   1  17
BRANCH   3  29
ATOM     29  C   UNL     1       1.068  15.461  18.815  0.00  0.00    +0.000 C 
ATOM     30  O   UNL     1       2.092  15.868  18.257  0.00  0.00    +0.000 OA
BRANCH  29  31
ATOM     31  C   UNL     1      -0.202  16.313  18.907  0.00  0.00    +0.000 C 
ATOM     32  F   UNL     1      -1.273  15.668  19.453  0.00  0.00    +0.000 F 
ATOM     33  F   UNL     1      -0.015  17.425  19.672  0.00  0.00    +0.000 F 
ATOM     34  F   UNL     1      -0.620  16.748  17.687  0.00  0.00    +0.000 F 
ENDBRANCH  29  31
ENDBRANCH   3  29
TORSDOF 9
ENDMDL
MODEL 9
REMARK VINA RESULT:      -6.5      1.494      2.901
REMARK  Name = 
REMARK  14 active torsions:
REMARK  status: ('A' for Active; 'I' for Inactive)
REMARK    1  A    between atoms: C_1  and  O_2
REMARK    2  A    between atoms: O_2  and  C_3
REMARK    3  A    between atoms: C_6  and  C_7
REMARK    4  A    between atoms: C_7  and  C_8
REMARK    5  A    between atoms: C_10  and  O_11
REMARK    6  A    between atoms: O_11  and  C_12
REMARK    7  A    between atoms: C_13  and  O_14
REMARK    8  A    between atoms: O_14  and  C_15
REMARK    9  A    between atoms: C_16  and  O_17
REMARK   10  A    between atoms: O_17  and  C_18
REMARK   11  A    between atoms: C_21  and  C_22
REMARK   12  A    between atoms: C_22  and  C_24
REMARK   13  A    between atoms: C_28  and  C_29
REMARK   14  A    between atoms: C_32  and  O_33
REMARK                            x       y       z     vdW  Elec       q    Type
REMARK                         _______ _______ _______ _____ _____    ______ ____
ROOT
ATOM      1  C   UNL     1       0.575  11.808  19.660  0.00  0.00    +0.000 C 
ATOM      2  C   UNL     1       1.068  12.777  18.549  0.00  0.00    +0.000 C 
ATOM      3  C   UNL     1       1.278  14.037  19.308  0.00  0.00    +0.000 C 
ATOM      4  C   UNL     1       1.373  13.716  20.599  0.00  0.00    +0.000 C 
ATOM      5  C   UNL     1       1.522  14.560  21.817  0.00  0.00    +0.000 C 
ATOM      6  O   UNL     1       1.280  12.333  20.840  0.00  0.00    +0.000 OA
ENDROOT
BRANCH   1  10
ATOM      7  C   UNL     1       2.184   7.815  18.934  0.00  0.00    +0.000 A 
ATOM      8  C   UNL     1       2.072   8.748  17.897  0.00  0.00    +0.000 A 
ATOM      9  C   UNL     1       1.496  10.002  18.109  0.00  0.00    +0.000 A 
ATOM     10  C   UNL     1       1.043  10.378  19.383  0.00  0.00    +0.000 A 
ATOM     11  C   UNL     1       1.099   9.417  20.407  0.00  0.00    +0.000 A 
ATOM     12  C   UNL     1       1.662   8.150  20.186  0.00  0.00    +0.000 A 
BRANCH   7  14
ATOM     13  C   UNL     1       3.925   6.767  17.670  0.00  0.00    +0.000 C 
ATOM     14  O   UNL     1       2.813   6.664  18.546  0.00  0.00    +0.000 OA
ENDBRANCH   7  14
BRANCH  12  15
ATOM     15  O   UNL     1       1.694   7.268  21.230  0.00  0.00    +0.000 OA
ATOM     16  H   UNL     1       0.974   7.474  21.846  0.00  0.00    +0.000 HD
ENDBRANCH  12  15
ENDBRANCH   1  10
BRANCH   1  17
ATOM     17  C   UNL     1      -0.936  11.904  19.967  0.00  0.00    +0.000 A 
ATOM     18  C   UNL     1      -1.358  12.329  21.242  0.00  0.00    +0.000 A 
ATOM     19  C   UNL     1      -2.679  12.727  21.502  0.00  0.00    +0.000 A 
ATOM     20  C   UNL     1      -3.636  12.619  20.477  0.00  0.00    +0.000 A 
ATOM     21  C   UNL     1      -3.250  12.076  19.230  0.00  0.00    +0.000 A 
ATOM     22  C   UNL     1      -1.917  11.721  18.987  0.00  0.00    +0.000 A 
BRANCH  19  23
ATOM     23  O   UNL     1      -3.058  13.247  22.712  0.00  0.00    +0.000 OA
ATOM     24  C   UNL     1      -3.503  12.356  23.728  0.00  0.00    +0.000 C 
ENDBRANCH  19  23
BRANCH  20  25
ATOM     25  O   UNL     1      -4.962  12.983  20.531  0.00  0.00    +0.000 OA
ATOM     26  C   UNL     1      -5.319  14.353  20.461  0.00  0.00    +0.000 C 
ENDBRANCH  20  25
BRANCH  21  27
ATOM     27  O   UNL     1      -4.217  12.019  18.251  0.00  0.00    +0.000 OA
ATOM     28  C   UNL     1      -3.960  11.149  17.157  0.00  0.00    +0.000 C 
ENDBRANCH  21  27
ENDBRANCH   1  17
BRANCH   3  29
ATOM     29  C   UNL     1       1.273  15.385  18.676  0.00  0.00    +0.000 C 
ATOM     30  O   UNL     1       0.211  16.010  18.603  0.00  0.00    +0.000 OA
BRANCH  29  31
ATOM     31  C   UNL     1       2.588  15.950  18.128  0.00  0.00    +0.000 C 
ATOM     32  F   UNL     1       2.439  17.046  17.329  0.00  0.00    +0.000 F 
ATOM     33  F   UNL     1       3.431  16.336  19.125  0.00  0.00    +0.000 F 
ATOM     34  F   UNL     1       3.266  15.040  17.376  0.00  0.00    +0.000 F 
ENDBRANCH  29  31
ENDBRANCH   3  29
TORSDOF 9
ENDMDL
