MODEL 1
REMARK VINA RESULT:      -8.7      0.000      0.000
REMARK  Name = 
REMARK  6 active torsions:
REMARK  status: ('A' for Active; 'I' for Inactive)
REMARK    1  A    between atoms: C_2  and  C_31
REMARK    2  A    between atoms: N_3  and  C_4
REMARK    3  A    between atoms: C_7  and  N_8
REMARK    4  A    between atoms: N_8  and  C_9
REMARK    5  A    between atoms: C_11  and  N_12
REMARK    6  A    between atoms: C_17  and  O_18
REMARK                            x       y       z     vdW  Elec       q    Type
REMARK                         _______ _______ _______ _____ _____    ______ ____
ROOT
ATOM      1  C   UNL     1       2.942   7.153  17.725  0.00  0.00    +0.000 A 
ATOM      2  C   UNL     1       3.828   7.523  16.717  0.00  0.00    +0.000 A 
ATOM      3  C   UNL     1       4.827   6.657  16.297  0.00  0.00    +0.000 A 
ATOM      4  C   UNL     1       5.012   5.403  16.889  0.00  0.00    +0.000 A 
ATOM      5  C   UNL     1       4.178   5.045  17.969  0.00  0.00    +0.000 A 
ATOM      6  C   UNL     1       3.131   5.902  18.368  0.00  0.00    +0.000 A 
ATOM      7  C   UNL     1       2.199   5.459  19.442  0.00  0.00    +0.000 C 
ATOM      8  O   UNL     1       1.214   6.132  19.735  0.00  0.00    +0.000 OA
ATOM      9  C   UNL     1       2.463   4.210  20.178  0.00  0.00    +0.000 A 
ATOM     10  C   UNL     1       1.638   3.848  21.253  0.00  0.00    +0.000 A 
ATOM     11  C   UNL     1       1.906   2.692  21.988  0.00  0.00    +0.000 A 
ATOM     12  C   UNL     1       2.993   1.890  21.646  0.00  0.00    +0.000 A 
ATOM     13  C   UNL     1       3.806   2.240  20.567  0.00  0.00    +0.000 A 
ATOM     14  C   UNL     1       3.538   3.403  19.829  0.00  0.00    +0.000 A 
ATOM     15  C   UNL     1       4.410   3.769  18.698  0.00  0.00    +0.000 C 
ATOM     16  O   UNL     1       5.344   3.027  18.404  0.00  0.00    +0.000 OA
ENDROOT
BRANCH   1  19
ATOM     17  O   UNL     1       2.756  10.084  17.419  0.00  0.00    +0.000 OA
ATOM     18  C   UNL     1       1.901   9.410  17.982  0.00  0.00    +0.000 C 
ATOM     19  N   UNL     1       1.898   8.030  18.117  0.00  0.00    +0.000 N 
ATOM     20  H   UNL     1       1.010   7.581  18.355  0.00  0.00    +0.000 HD
BRANCH  18  21
ATOM     21  C   UNL     1       0.724  10.120  18.532  0.00  0.00    +0.000 A 
ATOM     22  C   UNL     1      -0.495   9.993  17.853  0.00  0.00    +0.000 A 
ATOM     23  C   UNL     1      -1.619  10.679  18.304  0.00  0.00    +0.000 A 
ATOM     24  C   UNL     1      -1.525  11.506  19.423  0.00  0.00    +0.000 A 
ATOM     25  C   UNL     1      -0.306  11.651  20.090  0.00  0.00    +0.000 A 
ATOM     26  C   UNL     1       0.824  10.959  19.646  0.00  0.00    +0.000 A 
ENDBRANCH  18  21
ENDBRANCH   1  19
BRANCH   4  27
ATOM     27  N   UNL     1       5.948   4.524  16.311  0.00  0.00    +0.000 N 
ATOM     28  H   UNL     1       6.351   3.819  16.935  0.00  0.00    +0.000 HD
BRANCH  27  29
ATOM     29  C   UNL     1       6.334   4.412  14.959  0.00  0.00    +0.000 A 
ATOM     30  C   UNL     1       5.609   3.606  14.067  0.00  0.00    +0.000 A 
ATOM     31  C   UNL     1       5.913   3.607  12.702  0.00  0.00    +0.000 A 
ATOM     32  C   UNL     1       6.946   4.409  12.204  0.00  0.00    +0.000 A 
ATOM     33  C   UNL     1       7.690   5.198  13.085  0.00  0.00    +0.000 A 
ATOM     34  C   UNL     1       7.384   5.190  14.450  0.00  0.00    +0.000 A 
BRANCH  31  35
ATOM     35  N   UNL     1       5.125   2.772  11.788  0.00  0.00    +0.000 N 
ATOM     36  O   UNL     1       4.016   3.192  11.428  0.00  0.00    +0.000 OA
ATOM     37  O   UNL     1       5.617   1.694  11.427  0.00  0.00    +0.000 OA
ENDBRANCH  31  35
BRANCH  34  38
ATOM     38  O   UNL     1       8.095   5.978  15.317  0.00  0.00    +0.000 OA
ATOM     39  H   UNL     1       7.724   6.874  15.311  0.00  0.00    +0.000 HD
ENDBRANCH  34  38
ENDBRANCH  27  29
ENDBRANCH   4  27
TORSDOF 6
ENDMDL
MODEL 2
REMARK VINA RESULT:      -8.6      4.577     11.855
REMARK  Name = 
REMARK  6 active torsions:
REMARK  status: ('A' for Active; 'I' for Inactive)
REMARK    1  A    between atoms: C_2  and  C_31
REMARK    2  A    between atoms: N_3  and  C_4
REMARK    3  A    between atoms: C_7  and  N_8
REMARK    4  A    between atoms: N_8  and  C_9
REMARK    5  A    between atoms: C_11  and  N_12
REMARK    6  A    between atoms: C_17  and  O_18
REMARK                            x       y       z     vdW  Elec       q    Type
REMARK                         _______ _______ _______ _____ _____    ______ ____
ROOT
ATOM      1  C   UNL     1       0.310  10.272  18.709  0.00  0.00    +0.000 A 
ATOM      2  C   UNL     1      -0.969   9.898  19.115  0.00  0.00    +0.000 A 
ATOM      3  C   UNL     1      -1.920  10.856  19.434  0.00  0.00    +0.000 A 
ATOM      4  C   UNL     1      -1.628  12.224  19.403  0.00  0.00    +0.000 A 
ATOM      5  C   UNL     1      -0.313  12.618  19.077  0.00  0.00    +0.000 A 
ATOM      6  C   UNL     1       0.644  11.650  18.705  0.00  0.00    +0.000 A 
ATOM      7  C   UNL     1       1.994  12.096  18.266  0.00  0.00    +0.000 C 
ATOM      8  O   UNL     1       2.812  11.289  17.831  0.00  0.00    +0.000 OA
ATOM      9  C   UNL     1       2.370  13.518  18.365  0.00  0.00    +0.000 A 
ATOM     10  C   UNL     1       3.676  13.917  18.043  0.00  0.00    +0.000 A 
ATOM     11  C   UNL     1       4.057  15.253  18.178  0.00  0.00    +0.000 A 
ATOM     12  C   UNL     1       3.135  16.195  18.629  0.00  0.00    +0.000 A 
ATOM     13  C   UNL     1       1.831  15.803  18.935  0.00  0.00    +0.000 A 
ATOM     14  C   UNL     1       1.446  14.459  18.801  0.00  0.00    +0.000 A 
ATOM     15  C   UNL     1       0.070  14.054  19.138  0.00  0.00    +0.000 C 
ATOM     16  O   UNL     1      -0.728  14.912  19.505  0.00  0.00    +0.000 OA
ENDROOT
BRANCH   1  19
ATOM     17  O   UNL     1       1.470   8.104  20.345  0.00  0.00    +0.000 OA
ATOM     18  C   UNL     1       1.797   8.321  19.184  0.00  0.00    +0.000 C 
ATOM     19  N   UNL     1       1.260   9.284  18.344  0.00  0.00    +0.000 N 
ATOM     20  H   UNL     1       1.421   9.176  17.339  0.00  0.00    +0.000 HD
BRANCH  18  21
ATOM     21  C   UNL     1       2.830   7.443  18.589  0.00  0.00    +0.000 A 
ATOM     22  C   UNL     1       3.170   6.270  19.278  0.00  0.00    +0.000 A 
ATOM     23  C   UNL     1       4.169   5.436  18.785  0.00  0.00    +0.000 A 
ATOM     24  C   UNL     1       4.842   5.777  17.612  0.00  0.00    +0.000 A 
ATOM     25  C   UNL     1       4.520   6.956  16.934  0.00  0.00    +0.000 A 
ATOM     26  C   UNL     1       3.514   7.794  17.421  0.00  0.00    +0.000 A 
ENDBRANCH  18  21
ENDBRANCH   1  19
BRANCH   4  27
ATOM     27  N   UNL     1      -2.683  13.136  19.596  0.00  0.00    +0.000 N 
ATOM     28  H   UNL     1      -2.691  13.954  18.979  0.00  0.00    +0.000 HD
BRANCH  27  29
ATOM     29  C   UNL     1      -3.794  13.029  20.457  0.00  0.00    +0.000 A 
ATOM     30  C   UNL     1      -3.624  12.953  21.848  0.00  0.00    +0.000 A 
ATOM     31  C   UNL     1      -4.730  12.985  22.702  0.00  0.00    +0.000 A 
ATOM     32  C   UNL     1      -6.026  13.092  22.184  0.00  0.00    +0.000 A 
ATOM     33  C   UNL     1      -6.211  13.145  20.800  0.00  0.00    +0.000 A 
ATOM     34  C   UNL     1      -5.101  13.108  19.950  0.00  0.00    +0.000 A 
BRANCH  31  35
ATOM     35  N   UNL     1      -4.521  12.926  24.154  0.00  0.00    +0.000 N 
ATOM     36  O   UNL     1      -3.798  13.789  24.672  0.00  0.00    +0.000 OA
ATOM     37  O   UNL     1      -5.086  12.017  24.778  0.00  0.00    +0.000 OA
ENDBRANCH  31  35
BRANCH  34  38
ATOM     38  O   UNL     1      -5.272  13.182  18.592  0.00  0.00    +0.000 OA
ATOM     39  H   UNL     1      -5.135  12.302  18.206  0.00  0.00    +0.000 HD
ENDBRANCH  34  38
ENDBRANCH  27  29
ENDBRANCH   4  27
TORSDOF 6
ENDMDL
MODEL 3
REMARK VINA RESULT:      -8.5      4.706     11.826
REMARK  Name = 
REMARK  6 active torsions:
REMARK  status: ('A' for Active; 'I' for Inactive)
REMARK    1  A    between atoms: C_2  and  C_31
REMARK    2  A    between atoms: N_3  and  C_4
REMARK    3  A    between atoms: C_7  and  N_8
REMARK    4  A    between atoms: N_8  and  C_9
REMARK    5  A    between atoms: C_11  and  N_12
REMARK    6  A    between atoms: C_17  and  O_18
REMARK                            x       y       z     vdW  Elec       q    Type
REMARK                         _______ _______ _______ _____ _____    ______ ____
ROOT
ATOM      1  C   UNL     1       0.198  10.492  18.814  0.00  0.00    +0.000 A 
ATOM      2  C   UNL     1      -1.087  10.169  19.244  0.00  0.00    +0.000 A 
ATOM      3  C   UNL     1      -1.998  11.164  19.566  0.00  0.00    +0.000 A 
ATOM      4  C   UNL     1      -1.658  12.520  19.514  0.00  0.00    +0.000 A 
ATOM      5  C   UNL     1      -0.336  12.864  19.163  0.00  0.00    +0.000 A 
ATOM      6  C   UNL     1       0.580  11.858  18.788  0.00  0.00    +0.000 A 
ATOM      7  C   UNL     1       1.939  12.250  18.322  0.00  0.00    +0.000 C 
ATOM      8  O   UNL     1       2.720  11.409  17.885  0.00  0.00    +0.000 OA
ATOM      9  C   UNL     1       2.366  13.659  18.398  0.00  0.00    +0.000 A 
ATOM     10  C   UNL     1       3.680  14.007  18.052  0.00  0.00    +0.000 A 
ATOM     11  C   UNL     1       4.111  15.330  18.165  0.00  0.00    +0.000 A 
ATOM     12  C   UNL     1       3.229  16.310  18.618  0.00  0.00    +0.000 A 
ATOM     13  C   UNL     1       1.917  15.968  18.949  0.00  0.00    +0.000 A 
ATOM     14  C   UNL     1       1.484  14.638  18.837  0.00  0.00    +0.000 A 
ATOM     15  C   UNL     1       0.099  14.286  19.200  0.00  0.00    +0.000 C 
ATOM     16  O   UNL     1      -0.662  15.176  19.570  0.00  0.00    +0.000 OA
ENDROOT
BRANCH   1  19
ATOM     17  O   UNL     1       1.339   8.329  20.468  0.00  0.00    +0.000 OA
ATOM     18  C   UNL     1       1.639   8.508  19.293  0.00  0.00    +0.000 C 
ATOM     19  N   UNL     1       1.106   9.467  18.446  0.00  0.00    +0.000 N 
ATOM     20  H   UNL     1       1.235   9.331  17.439  0.00  0.00    +0.000 HD
BRANCH  18  21
ATOM     21  C   UNL     1       2.627   7.584  18.692  0.00  0.00    +0.000 A 
ATOM     22  C   UNL     1       2.910   6.392  19.372  0.00  0.00    +0.000 A 
ATOM     23  C   UNL     1       3.866   5.513  18.872  0.00  0.00    +0.000 A 
ATOM     24  C   UNL     1       4.553   5.829  17.700  0.00  0.00    +0.000 A 
ATOM     25  C   UNL     1       4.288   7.027  17.030  0.00  0.00    +0.000 A 
ATOM     26  C   UNL     1       3.325   7.909  17.525  0.00  0.00    +0.000 A 
ENDBRANCH  18  21
ENDBRANCH   1  19
BRANCH   4  27
ATOM     27  N   UNL     1      -2.677  13.472  19.712  0.00  0.00    +0.000 N 
ATOM     28  H   UNL     1      -2.777  14.184  18.983  0.00  0.00    +0.000 HD
BRANCH  27  29
ATOM     29  C   UNL     1      -3.652  13.520  20.729  0.00  0.00    +0.000 A 
ATOM     30  C   UNL     1      -4.880  12.855  20.583  0.00  0.00    +0.000 A 
ATOM     31  C   UNL     1      -5.785  12.793  21.647  0.00  0.00    +0.000 A 
ATOM     32  C   UNL     1      -5.482  13.392  22.874  0.00  0.00    +0.000 A 
ATOM     33  C   UNL     1      -4.273  14.076  23.026  0.00  0.00    +0.000 A 
ATOM     34  C   UNL     1      -3.374  14.140  21.957  0.00  0.00    +0.000 A 
BRANCH  31  35
ATOM     35  N   UNL     1      -7.052  12.073  21.473  0.00  0.00    +0.000 N 
ATOM     36  O   UNL     1      -7.470  11.395  22.423  0.00  0.00    +0.000 OA
ATOM     37  O   UNL     1      -7.633  12.188  20.385  0.00  0.00    +0.000 OA
ENDBRANCH  31  35
BRANCH  34  38
ATOM     38  O   UNL     1      -2.176  14.790  22.104  0.00  0.00    +0.000 OA
ATOM     39  H   UNL     1      -1.697  14.770  21.260  0.00  0.00    +0.000 HD
ENDBRANCH  34  38
ENDBRANCH  27  29
ENDBRANCH   4  27
TORSDOF 6
ENDMDL
MODEL 4
REMARK VINA RESULT:      -8.3      4.925     12.192
REMARK  Name = 
REMARK  6 active torsions:
REMARK  status: ('A' for Active; 'I' for Inactive)
REMARK    1  A    between atoms: C_2  and  C_31
REMARK    2  A    between atoms: N_3  and  C_4
REMARK    3  A    between atoms: C_7  and  N_8
REMARK    4  A    between atoms: N_8  and  C_9
REMARK    5  A    between atoms: C_11  and  N_12
REMARK    6  A    between atoms: C_17  and  O_18
REMARK                            x       y       z     vdW  Elec       q    Type
REMARK                         _______ _______ _______ _____ _____    ______ ____
ROOT
ATOM      1  C   UNL     1       0.128  10.958  19.144  0.00  0.00    +0.000 A 
ATOM      2  C   UNL     1      -1.142  10.741  19.672  0.00  0.00    +0.000 A 
ATOM      3  C   UNL     1      -1.969  11.809  19.989  0.00  0.00    +0.000 A 
ATOM      4  C   UNL     1      -1.554  13.136  19.831  0.00  0.00    +0.000 A 
ATOM      5  C   UNL     1      -0.240  13.374  19.377  0.00  0.00    +0.000 A 
ATOM      6  C   UNL     1       0.588  12.293  19.009  0.00  0.00    +0.000 A 
ATOM      7  C   UNL     1       1.934  12.571  18.436  0.00  0.00    +0.000 C 
ATOM      8  O   UNL     1       2.634  11.659  18.004  0.00  0.00    +0.000 OA
ATOM      9  C   UNL     1       2.448  13.952  18.397  0.00  0.00    +0.000 A 
ATOM     10  C   UNL     1       3.754  14.196  17.947  0.00  0.00    +0.000 A 
ATOM     11  C   UNL     1       4.268  15.494  17.951  0.00  0.00    +0.000 A 
ATOM     12  C   UNL     1       3.478  16.552  18.397  0.00  0.00    +0.000 A 
ATOM     13  C   UNL     1       2.173  16.313  18.830  0.00  0.00    +0.000 A 
ATOM     14  C   UNL     1       1.655  15.008  18.828  0.00  0.00    +0.000 A 
ATOM     15  C   UNL     1       0.279  14.766  19.298  0.00  0.00    +0.000 C 
ATOM     16  O   UNL     1      -0.402  15.722  19.659  0.00  0.00    +0.000 OA
ENDROOT
BRANCH   1  19
ATOM     17  O   UNL     1       1.017   8.675  20.793  0.00  0.00    +0.000 OA
ATOM     18  C   UNL     1       1.365   8.842  19.630  0.00  0.00    +0.000 C 
ATOM     19  N   UNL     1       0.949   9.857  18.784  0.00  0.00    +0.000 N 
ATOM     20  H   UNL     1       1.093   9.724  17.780  0.00  0.00    +0.000 HD
BRANCH  18  21
ATOM     21  C   UNL     1       2.281   7.839  19.041  0.00  0.00    +0.000 A 
ATOM     22  C   UNL     1       2.908   8.154  17.827  0.00  0.00    +0.000 A 
ATOM     23  C   UNL     1       3.740   7.225  17.209  0.00  0.00    +0.000 A 
ATOM     24  C   UNL     1       3.936   5.974  17.792  0.00  0.00    +0.000 A 
ATOM     25  C   UNL     1       3.295   5.647  18.991  0.00  0.00    +0.000 A 
ATOM     26  C   UNL     1       2.464   6.579  19.618  0.00  0.00    +0.000 A 
ENDBRANCH  18  21
ENDBRANCH   1  19
BRANCH   4  27
ATOM     27  N   UNL     1      -2.500  14.159  20.032  0.00  0.00    +0.000 N 
ATOM     28  H   UNL     1      -2.744  14.717  19.209  0.00  0.00    +0.000 HD
BRANCH  27  29
ATOM     29  C   UNL     1      -3.239  14.459  21.195  0.00  0.00    +0.000 A 
ATOM     30  C   UNL     1      -3.916  13.451  21.900  0.00  0.00    +0.000 A 
ATOM     31  C   UNL     1      -4.531  13.730  23.123  0.00  0.00    +0.000 A 
ATOM     32  C   UNL     1      -4.484  15.020  23.665  0.00  0.00    +0.000 A 
ATOM     33  C   UNL     1      -3.834  16.038  22.962  0.00  0.00    +0.000 A 
ATOM     34  C   UNL     1      -3.224  15.753  21.737  0.00  0.00    +0.000 A 
BRANCH  31  35
ATOM     35  N   UNL     1      -5.212  12.652  23.850  0.00  0.00    +0.000 N 
ATOM     36  O   UNL     1      -4.576  12.050  24.727  0.00  0.00    +0.000 OA
ATOM     37  O   UNL     1      -6.388  12.408  23.545  0.00  0.00    +0.000 OA
ENDBRANCH  31  35
BRANCH  34  38
ATOM     38  O   UNL     1      -2.566  16.741  21.052  0.00  0.00    +0.000 OA
ATOM     39  H   UNL     1      -2.494  16.487  20.118  0.00  0.00    +0.000 HD
ENDBRANCH  34  38
ENDBRANCH  27  29
ENDBRANCH   4  27
TORSDOF 6
ENDMDL
MODEL 5
REMARK VINA RESULT:      -8.3      3.974      7.860
REMARK  Name = 
REMARK  6 active torsions:
REMARK  status: ('A' for Active; 'I' for Inactive)
REMARK    1  A    between atoms: C_2  and  C_31
REMARK    2  A    between atoms: N_3  and  C_4
REMARK    3  A    between atoms: C_7  and  N_8
REMARK    4  A    between atoms: N_8  and  C_9
REMARK    5  A    between atoms: C_11  and  N_12
REMARK    6  A    between atoms: C_17  and  O_18
REMARK                            x       y       z     vdW  Elec       q    Type
REMARK                         _______ _______ _______ _____ _____    ______ ____
ROOT
ATOM      1  C   UNL     1      -0.359  10.921  21.333  0.00  0.00    +0.000 A 
ATOM      2  C   UNL     1       0.759  10.233  21.797  0.00  0.00    +0.000 A 
ATOM      3  C   UNL     1       1.481   9.402  20.952  0.00  0.00    +0.000 A 
ATOM      4  C   UNL     1       1.099   9.190  19.623  0.00  0.00    +0.000 A 
ATOM      5  C   UNL     1      -0.080   9.812  19.160  0.00  0.00    +0.000 A 
ATOM      6  C   UNL     1      -0.791  10.694  20.001  0.00  0.00    +0.000 A 
ATOM      7  C   UNL     1      -1.973  11.419  19.459  0.00  0.00    +0.000 C 
ATOM      8  O   UNL     1      -2.546  12.275  20.128  0.00  0.00    +0.000 OA
ATOM      9  C   UNL     1      -2.479  11.101  18.111  0.00  0.00    +0.000 A 
ATOM     10  C   UNL     1      -3.651  11.715  17.645  0.00  0.00    +0.000 A 
ATOM     11  C   UNL     1      -4.166  11.386  16.390  0.00  0.00    +0.000 A 
ATOM     12  C   UNL     1      -3.509  10.448  15.594  0.00  0.00    +0.000 A 
ATOM     13  C   UNL     1      -2.335   9.848  16.050  0.00  0.00    +0.000 A 
ATOM     14  C   UNL     1      -1.817  10.177  17.313  0.00  0.00    +0.000 A 
ATOM     15  C   UNL     1      -0.582   9.528  17.789  0.00  0.00    +0.000 C 
ATOM     16  O   UNL     1      -0.011   8.727  17.054  0.00  0.00    +0.000 OA
ENDROOT
BRANCH   1  19
ATOM     17  O   UNL     1       0.329  13.670  22.162  0.00  0.00    +0.000 OA
ATOM     18  C   UNL     1      -0.654  13.067  22.578  0.00  0.00    +0.000 C 
ATOM     19  N   UNL     1      -1.065  11.800  22.194  0.00  0.00    +0.000 N 
ATOM     20  H   UNL     1      -2.031  11.534  22.402  0.00  0.00    +0.000 HD
BRANCH  18  21
ATOM     21  C   UNL     1      -1.527  13.769  23.547  0.00  0.00    +0.000 A 
ATOM     22  C   UNL     1      -2.857  13.341  23.661  0.00  0.00    +0.000 A 
ATOM     23  C   UNL     1      -3.730  13.999  24.523  0.00  0.00    +0.000 A 
ATOM     24  C   UNL     1      -3.282  15.095  25.260  0.00  0.00    +0.000 A 
ATOM     25  C   UNL     1      -1.962  15.538  25.132  0.00  0.00    +0.000 A 
ATOM     26  C   UNL     1      -1.081  14.876  24.274  0.00  0.00    +0.000 A 
ENDBRANCH  18  21
ENDBRANCH   1  19
BRANCH   4  27
ATOM     27  N   UNL     1       1.963   8.454  18.789  0.00  0.00    +0.000 N 
ATOM     28  H   UNL     1       2.307   8.938  17.955  0.00  0.00    +0.000 HD
BRANCH  27  29
ATOM     29  C   UNL     1       2.506   7.170  18.998  0.00  0.00    +0.000 A 
ATOM     30  C   UNL     1       1.921   6.279  19.913  0.00  0.00    +0.000 A 
ATOM     31  C   UNL     1       2.379   4.963  20.015  0.00  0.00    +0.000 A 
ATOM     32  C   UNL     1       3.430   4.511  19.208  0.00  0.00    +0.000 A 
ATOM     33  C   UNL     1       4.036   5.393  18.310  0.00  0.00    +0.000 A 
ATOM     34  C   UNL     1       3.576   6.710  18.215  0.00  0.00    +0.000 A 
BRANCH  31  35
ATOM     35  N   UNL     1       1.735   4.047  20.964  0.00  0.00    +0.000 N 
ATOM     36  O   UNL     1       2.307   3.830  22.042  0.00  0.00    +0.000 OA
ATOM     37  O   UNL     1       0.651   3.547  20.633  0.00  0.00    +0.000 OA
ENDBRANCH  31  35
BRANCH  34  38
ATOM     38  O   UNL     1       4.151   7.576  17.321  0.00  0.00    +0.000 OA
ATOM     39  H   UNL     1       4.642   8.257  17.808  0.00  0.00    +0.000 HD
ENDBRANCH  34  38
ENDBRANCH  27  29
ENDBRANCH   4  27
TORSDOF 6
ENDMDL
MODEL 6
REMARK VINA RESULT:      -8.3      5.390     12.440
REMARK  Name = 
REMARK  6 active torsions:
REMARK  status: ('A' for Active; 'I' for Inactive)
REMARK    1  A    between atoms: C_2  and  C_31
REMARK    2  A    between atoms: N_3  and  C_4
REMARK    3  A    between atoms: C_7  and  N_8
REMARK    4  A    between atoms: N_8  and  C_9
REMARK    5  A    between atoms: C_11  and  N_12
REMARK    6  A    between atoms: C_17  and  O_18
REMARK                            x       y       z     vdW  Elec       q    Type
REMARK                         _______ _______ _______ _____ _____    ______ ____
ROOT
ATOM      1  C   UNL     1      -0.078  10.533  21.353  0.00  0.00    +0.000 A 
ATOM      2  C   UNL     1      -0.855  10.281  22.480  0.00  0.00    +0.000 A 
ATOM      3  C   UNL     1      -1.411  11.325  23.205  0.00  0.00    +0.000 A 
ATOM      4  C   UNL     1      -1.185  12.662  22.865  0.00  0.00    +0.000 A 
ATOM      5  C   UNL     1      -0.331  12.939  21.777  0.00  0.00    +0.000 A 
ATOM      6  C   UNL     1       0.199  11.881  21.007  0.00  0.00    +0.000 A 
ATOM      7  C   UNL     1       1.014  12.197  19.802  0.00  0.00    +0.000 C 
ATOM      8  O   UNL     1       1.396  11.305  19.050  0.00  0.00    +0.000 OA
ATOM      9  C   UNL     1       1.386  13.593  19.509  0.00  0.00    +0.000 A 
ATOM     10  C   UNL     1       2.236  13.875  18.429  0.00  0.00    +0.000 A 
ATOM     11  C   UNL     1       2.634  15.188  18.171  0.00  0.00    +0.000 A 
ATOM     12  C   UNL     1       2.179  16.224  18.985  0.00  0.00    +0.000 A 
ATOM     13  C   UNL     1       1.321  15.947  20.051  0.00  0.00    +0.000 A 
ATOM     14  C   UNL     1       0.921  14.627  20.313  0.00  0.00    +0.000 A 
ATOM     15  C   UNL     1       0.024  14.345  21.448  0.00  0.00    +0.000 C 
ATOM     16  O   UNL     1      -0.382  15.282  22.129  0.00  0.00    +0.000 OA
ENDROOT
BRANCH   1  19
ATOM     17  O   UNL     1       1.810   8.418  22.179  0.00  0.00    +0.000 OA
ATOM     18  C   UNL     1       1.374   8.524  21.038  0.00  0.00    +0.000 C 
ATOM     19  N   UNL     1       0.450   9.457  20.594  0.00  0.00    +0.000 N 
ATOM     20  H   UNL     1      -0.027   9.264  19.710  0.00  0.00    +0.000 HD
BRANCH  18  21
ATOM     21  C   UNL     1       1.832   7.534  20.037  0.00  0.00    +0.000 A 
ATOM     22  C   UNL     1       1.852   6.183  20.412  0.00  0.00    +0.000 A 
ATOM     23  C   UNL     1       2.319   5.219  19.523  0.00  0.00    +0.000 A 
ATOM     24  C   UNL     1       2.781   5.603  18.264  0.00  0.00    +0.000 A 
ATOM     25  C   UNL     1       2.782   6.951  17.895  0.00  0.00    +0.000 A 
ATOM     26  C   UNL     1       2.309   7.921  18.781  0.00  0.00    +0.000 A 
ENDBRANCH  18  21
ENDBRANCH   1  19
BRANCH   4  27
ATOM     27  N   UNL     1      -1.902  13.658  23.557  0.00  0.00    +0.000 N 
ATOM     28  H   UNL     1      -1.354  14.256  24.182  0.00  0.00    +0.000 HD
BRANCH  27  29
ATOM     29  C   UNL     1      -3.260  14.014  23.431  0.00  0.00    +0.000 A 
ATOM     30  C   UNL     1      -4.247  13.035  23.231  0.00  0.00    +0.000 A 
ATOM     31  C   UNL     1      -5.601  13.379  23.243  0.00  0.00    +0.000 A 
ATOM     32  C   UNL     1      -5.996  14.705  23.454  0.00  0.00    +0.000 A 
ATOM     33  C   UNL     1      -5.024  15.693  23.632  0.00  0.00    +0.000 A 
ATOM     34  C   UNL     1      -3.670  15.343  23.613  0.00  0.00    +0.000 A 
BRANCH  31  35
ATOM     35  N   UNL     1      -6.612  12.332  23.053  0.00  0.00    +0.000 N 
ATOM     36  O   UNL     1      -7.208  11.911  24.056  0.00  0.00    +0.000 OA
ATOM     37  O   UNL     1      -6.814  11.933  21.898  0.00  0.00    +0.000 OA
ENDBRANCH  31  35
BRANCH  34  38
ATOM     38  O   UNL     1      -2.710  16.302  23.809  0.00  0.00    +0.000 OA
ATOM     39  H   UNL     1      -3.142  17.154  23.982  0.00  0.00    +0.000 HD
ENDBRANCH  34  38
ENDBRANCH  27  29
ENDBRANCH   4  27
TORSDOF 6
ENDMDL
MODEL 7
REMARK VINA RESULT:      -8.2      4.569     11.727
REMARK  Name = 
REMARK  6 active torsions:
REMARK  status: ('A' for Active; 'I' for Inactive)
REMARK    1  A    between atoms: C_2  and  C_31
REMARK    2  A    between atoms: N_3  and  C_4
REMARK    3  A    between atoms: C_7  and  N_8
REMARK    4  A    between atoms: N_8  and  C_9
REMARK    5  A    between atoms: C_11  and  N_12
REMARK    6  A    between atoms: C_17  and  O_18
REMARK                            x       y       z     vdW  Elec       q    Type
REMARK                         _______ _______ _______ _____ _____    ______ ____
ROOT
ATOM      1  C   UNL     1       0.616  10.081  19.829  0.00  0.00    +0.000 A 
ATOM      2  C   UNL     1       0.927  10.698  21.039  0.00  0.00    +0.000 A 
ATOM      3  C   UNL     1       0.044  11.591  21.627  0.00  0.00    +0.000 A 
ATOM      4  C   UNL     1      -1.167  11.939  21.020  0.00  0.00    +0.000 A 
ATOM      5  C   UNL     1      -1.461  11.390  19.754  0.00  0.00    +0.000 A 
ATOM      6  C   UNL     1      -0.588  10.445  19.173  0.00  0.00    +0.000 A 
ATOM      7  C   UNL     1      -0.969   9.801  17.886  0.00  0.00    +0.000 C 
ATOM      8  O   UNL     1      -0.287   8.896  17.411  0.00  0.00    +0.000 OA
ATOM      9  C   UNL     1      -2.165  10.258  17.158  0.00  0.00    +0.000 A 
ATOM     10  C   UNL     1      -2.463   9.717  15.898  0.00  0.00    +0.000 A 
ATOM     11  C   UNL     1      -3.567  10.176  15.178  0.00  0.00    +0.000 A 
ATOM     12  C   UNL     1      -4.380  11.173  15.715  0.00  0.00    +0.000 A 
ATOM     13  C   UNL     1      -4.094  11.702  16.974  0.00  0.00    +0.000 A 
ATOM     14  C   UNL     1      -2.984  11.242  17.699  0.00  0.00    +0.000 A 
ATOM     15  C   UNL     1      -2.684  11.816  19.023  0.00  0.00    +0.000 C 
ATOM     16  O   UNL     1      -3.435  12.672  19.482  0.00  0.00    +0.000 OA
ENDROOT
BRANCH   1  19
ATOM     17  O   UNL     1       1.377   7.402  20.813  0.00  0.00    +0.000 OA
ATOM     18  C   UNL     1       1.854   7.911  19.805  0.00  0.00    +0.000 C 
ATOM     19  N   UNL     1       1.508   9.137  19.259  0.00  0.00    +0.000 N 
ATOM     20  H   UNL     1       1.773   9.312  18.286  0.00  0.00    +0.000 HD
BRANCH  18  21
ATOM     21  C   UNL     1       2.865   7.128  19.057  0.00  0.00    +0.000 A 
ATOM     22  C   UNL     1       3.309   7.633  17.828  0.00  0.00    +0.000 A 
ATOM     23  C   UNL     1       4.222   6.911  17.065  0.00  0.00    +0.000 A 
ATOM     24  C   UNL     1       4.682   5.676  17.520  0.00  0.00    +0.000 A 
ATOM     25  C   UNL     1       4.225   5.159  18.735  0.00  0.00    +0.000 A 
ATOM     26  C   UNL     1       3.313   5.883  19.508  0.00  0.00    +0.000 A 
ENDBRANCH  18  21
ENDBRANCH   1  19
BRANCH   4  27
ATOM     27  N   UNL     1      -2.074  12.735  21.746  0.00  0.00    +0.000 N 
ATOM     28  H   UNL     1      -2.970  12.299  21.980  0.00  0.00    +0.000 HD
BRANCH  27  29
ATOM     29  C   UNL     1      -1.878  14.021  22.289  0.00  0.00    +0.000 A 
ATOM     30  C   UNL     1      -1.592  14.193  23.653  0.00  0.00    +0.000 A 
ATOM     31  C   UNL     1      -1.265  15.455  24.156  0.00  0.00    +0.000 A 
ATOM     32  C   UNL     1      -1.219  16.568  23.310  0.00  0.00    +0.000 A 
ATOM     33  C   UNL     1      -1.524  16.415  21.955  0.00  0.00    +0.000 A 
ATOM     34  C   UNL     1      -1.855  15.151  21.457  0.00  0.00    +0.000 A 
BRANCH  31  35
ATOM     35  N   UNL     1      -0.950  15.602  25.582  0.00  0.00    +0.000 N 
ATOM     36  O   UNL     1      -1.813  15.266  26.406  0.00  0.00    +0.000 OA
ATOM     37  O   UNL     1       0.166  16.051  25.879  0.00  0.00    +0.000 OA
ENDBRANCH  31  35
BRANCH  34  38
ATOM     38  O   UNL     1      -2.134  14.989  20.125  0.00  0.00    +0.000 OA
ATOM     39  H   UNL     1      -1.596  15.611  19.609  0.00  0.00    +0.000 HD
ENDBRANCH  34  38
ENDBRANCH  27  29
ENDBRANCH   4  27
TORSDOF 6
ENDMDL
MODEL 8
REMARK VINA RESULT:      -8.2      5.162     12.446
REMARK  Name = 
REMARK  6 active torsions:
REMARK  status: ('A' for Active; 'I' for Inactive)
REMARK    1  A    between atoms: C_2  and  C_31
REMARK    2  A    between atoms: N_3  and  C_4
REMARK    3  A    between atoms: C_7  and  N_8
REMARK    4  A    between atoms: N_8  and  C_9
REMARK    5  A    between atoms: C_11  and  N_12
REMARK    6  A    between atoms: C_17  and  O_18
REMARK                            x       y       z     vdW  Elec       q    Type
REMARK                         _______ _______ _______ _____ _____    ______ ____
ROOT
ATOM      1  C   UNL     1       0.116  11.040  19.119  0.00  0.00    +0.000 A 
ATOM      2  C   UNL     1      -1.162  10.855  19.640  0.00  0.00    +0.000 A 
ATOM      3  C   UNL     1      -1.959  11.943  19.966  0.00  0.00    +0.000 A 
ATOM      4  C   UNL     1      -1.505  13.258  19.827  0.00  0.00    +0.000 A 
ATOM      5  C   UNL     1      -0.182  13.463  19.381  0.00  0.00    +0.000 A 
ATOM      6  C   UNL     1       0.616  12.363  19.003  0.00  0.00    +0.000 A 
ATOM      7  C   UNL     1       1.971  12.608  18.438  0.00  0.00    +0.000 C 
ATOM      8  O   UNL     1       2.646  11.681  17.998  0.00  0.00    +0.000 OA
ATOM      9  C   UNL     1       2.526  13.973  18.418  0.00  0.00    +0.000 A 
ATOM     10  C   UNL     1       3.841  14.185  17.977  0.00  0.00    +0.000 A 
ATOM     11  C   UNL     1       4.393  15.467  17.999  0.00  0.00    +0.000 A 
ATOM     12  C   UNL     1       3.632  16.542  18.455  0.00  0.00    +0.000 A 
ATOM     13  C   UNL     1       2.319  16.336  18.880  0.00  0.00    +0.000 A 
ATOM     14  C   UNL     1       1.763  15.048  18.860  0.00  0.00    +0.000 A 
ATOM     15  C   UNL     1       0.379  14.840  19.322  0.00  0.00    +0.000 C 
ATOM     16  O   UNL     1      -0.275  15.811  19.691  0.00  0.00    +0.000 OA
ENDROOT
BRANCH   1  19
ATOM     17  O   UNL     1       1.082   8.804  20.789  0.00  0.00    +0.000 OA
ATOM     18  C   UNL     1       1.363   8.930  19.603  0.00  0.00    +0.000 C 
ATOM     19  N   UNL     1       0.905   9.921  18.749  0.00  0.00    +0.000 N 
ATOM     20  H   UNL     1       0.989   9.753  17.743  0.00  0.00    +0.000 HD
BRANCH  18  21
ATOM     21  C   UNL     1       2.234   7.898  18.994  0.00  0.00    +0.000 A 
ATOM     22  C   UNL     1       2.420   6.699  19.696  0.00  0.00    +0.000 A 
ATOM     23  C   UNL     1       3.267   5.718  19.189  0.00  0.00    +0.000 A 
ATOM     24  C   UNL     1       3.943   5.938  17.989  0.00  0.00    +0.000 A 
ATOM     25  C   UNL     1       3.777   7.141  17.298  0.00  0.00    +0.000 A 
ATOM     26  C   UNL     1       2.922   8.126  17.799  0.00  0.00    +0.000 A 
ENDBRANCH  18  21
ENDBRANCH   1  19
BRANCH   4  27
ATOM     27  N   UNL     1      -2.421  14.307  20.037  0.00  0.00    +0.000 N 
ATOM     28  H   UNL     1      -2.430  15.047  19.330  0.00  0.00    +0.000 HD
BRANCH  27  29
ATOM     29  C   UNL     1      -3.405  14.429  21.039  0.00  0.00    +0.000 A 
ATOM     30  C   UNL     1      -3.064  14.832  22.340  0.00  0.00    +0.000 A 
ATOM     31  C   UNL     1      -4.059  15.083  23.289  0.00  0.00    +0.000 A 
ATOM     32  C   UNL     1      -5.411  14.935  22.959  0.00  0.00    +0.000 A 
ATOM     33  C   UNL     1      -5.763  14.512  21.674  0.00  0.00    +0.000 A 
ATOM     34  C   UNL     1      -4.763  14.258  20.730  0.00  0.00    +0.000 A 
BRANCH  31  35
ATOM     35  N   UNL     1      -3.675  15.524  24.635  0.00  0.00    +0.000 N 
ATOM     36  O   UNL     1      -4.274  16.494  25.122  0.00  0.00    +0.000 OA
ATOM     37  O   UNL     1      -2.774  14.897  25.209  0.00  0.00    +0.000 OA
ENDBRANCH  31  35
BRANCH  34  38
ATOM     38  O   UNL     1      -5.101  13.864  19.462  0.00  0.00    +0.000 OA
ATOM     39  H   UNL     1      -4.877  14.573  18.838  0.00  0.00    +0.000 HD
ENDBRANCH  34  38
ENDBRANCH  27  29
ENDBRANCH   4  27
TORSDOF 6
ENDMDL
MODEL 9
REMARK VINA RESULT:      -8.2      5.059     12.018
REMARK  Name = 
REMARK  6 active torsions:
REMARK  status: ('A' for Active; 'I' for Inactive)
REMARK    1  A    between atoms: C_2  and  C_31
REMARK    2  A    between atoms: N_3  and  C_4
REMARK    3  A    between atoms: C_7  and  N_8
REMARK    4  A    between atoms: N_8  and  C_9
REMARK    5  A    between atoms: C_11  and  N_12
REMARK    6  A    between atoms: C_17  and  O_18
REMARK                            x       y       z     vdW  Elec       q    Type
REMARK                         _______ _______ _______ _____ _____    ______ ____
ROOT
ATOM      1  C   UNL     1       0.319  10.173  21.144  0.00  0.00    +0.000 A 
ATOM      2  C   UNL     1      -0.405   9.629  22.202  0.00  0.00    +0.000 A 
ATOM      3  C   UNL     1      -1.205  10.434  23.000  0.00  0.00    +0.000 A 
ATOM      4  C   UNL     1      -1.289  11.816  22.806  0.00  0.00    +0.000 A 
ATOM      5  C   UNL     1      -0.496  12.396  21.793  0.00  0.00    +0.000 A 
ATOM      6  C   UNL     1       0.283  11.578  20.948  0.00  0.00    +0.000 A 
ATOM      7  C   UNL     1       1.030  12.200  19.821  0.00  0.00    +0.000 C 
ATOM      8  O   UNL     1       1.627  11.505  19.003  0.00  0.00    +0.000 OA
ATOM      9  C   UNL     1       1.075  13.667  19.687  0.00  0.00    +0.000 A 
ATOM     10  C   UNL     1       1.862  14.251  18.682  0.00  0.00    +0.000 A 
ATOM     11  C   UNL     1       1.949  15.640  18.575  0.00  0.00    +0.000 A 
ATOM     12  C   UNL     1       1.246  16.450  19.466  0.00  0.00    +0.000 A 
ATOM     13  C   UNL     1       0.451  15.871  20.456  0.00  0.00    +0.000 A 
ATOM     14  C   UNL     1       0.364  14.475  20.566  0.00  0.00    +0.000 A 
ATOM     15  C   UNL     1      -0.470  13.874  21.623  0.00  0.00    +0.000 C 
ATOM     16  O   UNL     1      -1.099  14.614  22.374  0.00  0.00    +0.000 OA
ENDROOT
BRANCH   1  19
ATOM     17  O   UNL     1       1.058   7.338  21.514  0.00  0.00    +0.000 OA
ATOM     18  C   UNL     1       1.447   8.019  20.571  0.00  0.00    +0.000 C 
ATOM     19  N   UNL     1       1.101   9.334  20.308  0.00  0.00    +0.000 N 
ATOM     20  H   UNL     1       1.268   9.686  19.362  0.00  0.00    +0.000 HD
BRANCH  18  21
ATOM     21  C   UNL     1       2.335   7.369  19.580  0.00  0.00    +0.000 A 
ATOM     22  C   UNL     1       2.605   8.058  18.390  0.00  0.00    +0.000 A 
ATOM     23  C   UNL     1       3.395   7.469  17.406  0.00  0.00    +0.000 A 
ATOM     24  C   UNL     1       3.903   6.185  17.602  0.00  0.00    +0.000 A 
ATOM     25  C   UNL     1       3.618   5.486  18.778  0.00  0.00    +0.000 A 
ATOM     26  C   UNL     1       2.831   6.076  19.771  0.00  0.00    +0.000 A 
ENDBRANCH  18  21
ENDBRANCH   1  19
BRANCH   4  27
ATOM     27  N   UNL     1      -2.233  12.541  23.558  0.00  0.00    +0.000 N 
ATOM     28  H   UNL     1      -1.865  13.074  24.351  0.00  0.00    +0.000 HD
BRANCH  27  29
ATOM     29  C   UNL     1      -3.610  12.717  23.309  0.00  0.00    +0.000 A 
ATOM     30  C   UNL     1      -4.105  12.765  21.996  0.00  0.00    +0.000 A 
ATOM     31  C   UNL     1      -5.482  12.802  21.758  0.00  0.00    +0.000 A 
ATOM     32  C   UNL     1      -6.389  12.792  22.823  0.00  0.00    +0.000 A 
ATOM     33  C   UNL     1      -5.908  12.767  24.135  0.00  0.00    +0.000 A 
ATOM     34  C   UNL     1      -4.530  12.735  24.368  0.00  0.00    +0.000 A 
BRANCH  31  35
ATOM     35  N   UNL     1      -5.972  12.830  20.374  0.00  0.00    +0.000 N 
ATOM     36  O   UNL     1      -6.636  11.863  19.974  0.00  0.00    +0.000 OA
ATOM     37  O   UNL     1      -5.696  13.824  19.688  0.00  0.00    +0.000 OA
ENDBRANCH  31  35
BRANCH  34  38
ATOM     38  O   UNL     1      -4.052  12.689  25.652  0.00  0.00    +0.000 OA
ATOM     39  H   UNL     1      -4.768  12.914  26.267  0.00  0.00    +0.000 HD
ENDBRANCH  34  38
ENDBRANCH  27  29
ENDBRANCH   4  27
TORSDOF 6
ENDMDL
