MODEL 1
REMARK VINA RESULT:      -6.4      0.000      0.000
REMARK  Name = 
REMARK  8 active torsions:
REMARK  status: ('A' for Active; 'I' for Inactive)
REMARK    1  A    between atoms: C_2  and  C_3
REMARK    2  A    between atoms: C_3  and  N_4
REMARK    3  A    between atoms: N_4  and  C_5
REMARK    4  A    between atoms: C_11  and  O_12
REMARK    5  A    between atoms: O_12  and  C_13
REMARK    6  A    between atoms: C_13  and  N_15
REMARK    7  A    between atoms: N_15  and  C_16
REMARK    8  A    between atoms: N_15  and  C_17
REMARK                            x       y       z     vdW  Elec       q    Type
REMARK                         _______ _______ _______ _____ _____    ______ ____
ROOT
ATOM      1  C   UNL     1       1.880   5.210  19.971  0.00  0.00    +0.000 C 
ATOM      2  C   UNL     1       1.734   4.179  21.121  0.00  0.00    +0.000 C 
ATOM      3  C   UNL     1       1.657   2.813  20.449  0.00  0.00    +0.000 C 
ATOM      4  C   UNL     1       2.495   3.060  19.247  0.00  0.00    +0.000 A 
ATOM      5  C   UNL     1       3.091   2.089  18.452  0.00  0.00    +0.000 A 
ATOM      6  C   UNL     1       3.845   2.464  17.344  0.00  0.00    +0.000 A 
ATOM      7  C   UNL     1       3.957   3.809  16.985  0.00  0.00    +0.000 A 
ATOM      8  C   UNL     1       3.341   4.798  17.769  0.00  0.00    +0.000 A 
ATOM      9  C   UNL     1       2.639   4.407  18.928  0.00  0.00    +0.000 A 
ENDROOT
BRANCH   1  10
ATOM     10  N   UNL     1       2.567   6.382  20.496  0.00  0.00    +0.000 NA
ATOM     11  H   UNL     1       2.715   6.270  21.499  0.00  0.00    +0.000 HD
BRANCH  10  12
ATOM     12  C   UNL     1       1.759   7.548  20.270  0.00  0.00    +0.000 C 
BRANCH  12  14
ATOM     13  C   UNL     1       2.240   8.618  17.701  0.00  0.00    +0.000 C 
ATOM     14  C   UNL     1       2.018   8.124  18.887  0.00  0.00    +0.000 C 
ENDBRANCH  12  14
ENDBRANCH  10  12
ENDBRANCH   1  10
BRANCH   7  15
ATOM     15  O   UNL     1       4.782   4.234  15.859  0.00  0.00    +0.000 OA
BRANCH  15  16
ATOM     16  C   UNL     1       6.114   4.748  15.724  0.00  0.00    +0.000 C 
ATOM     17  S   UNL     1       6.885   4.649  14.245  0.00  0.00    +0.000 S 
BRANCH  16  18
ATOM     18  N   UNL     1       6.645   5.339  16.888  0.00  0.00    +0.000 N 
ATOM     19  C   UNL     1       6.387   6.743  17.264  0.00  0.00    +0.000 C 
ATOM     20  C   UNL     1       7.540   4.647  17.789  0.00  0.00    +0.000 C 
ENDBRANCH  16  18
ENDBRANCH  15  16
ENDBRANCH   7  15
TORSDOF 6
ENDMDL
MODEL 2
REMARK VINA RESULT:      -6.3      0.983      1.602
REMARK  Name = 
REMARK  8 active torsions:
REMARK  status: ('A' for Active; 'I' for Inactive)
REMARK    1  A    between atoms: C_2  and  C_3
REMARK    2  A    between atoms: C_3  and  N_4
REMARK    3  A    between atoms: N_4  and  C_5
REMARK    4  A    between atoms: C_11  and  O_12
REMARK    5  A    between atoms: O_12  and  C_13
REMARK    6  A    between atoms: C_13  and  N_15
REMARK    7  A    between atoms: N_15  and  C_16
REMARK    8  A    between atoms: N_15  and  C_17
REMARK                            x       y       z     vdW  Elec       q    Type
REMARK                         _______ _______ _______ _____ _____    ______ ____
ROOT
ATOM      1  C   UNL     1       1.513   5.191  20.025  0.00  0.00    +0.000 C 
ATOM      2  C   UNL     1       1.283   3.894  20.843  0.00  0.00    +0.000 C 
ATOM      3  C   UNL     1       1.349   2.750  19.837  0.00  0.00    +0.000 C 
ATOM      4  C   UNL     1       2.308   3.315  18.854  0.00  0.00    +0.000 A 
ATOM      5  C   UNL     1       3.036   2.595  17.916  0.00  0.00    +0.000 A 
ATOM      6  C   UNL     1       3.896   3.257  17.044  0.00  0.00    +0.000 A 
ATOM      7  C   UNL     1       3.986   4.650  17.061  0.00  0.00    +0.000 A 
ATOM      8  C   UNL     1       3.238   5.391  17.990  0.00  0.00    +0.000 A 
ATOM      9  C   UNL     1       2.425   4.700  18.913  0.00  0.00    +0.000 A 
ENDROOT
BRANCH   1  10
ATOM     10  N   UNL     1       2.079   6.195  20.916  0.00  0.00    +0.000 NA
ATOM     11  H   UNL     1       1.632   6.131  21.830  0.00  0.00    +0.000 HD
BRANCH  10  12
ATOM     12  C   UNL     1       1.843   7.503  20.370  0.00  0.00    +0.000 C 
BRANCH  12  14
ATOM     13  C   UNL     1      -0.093   8.890  21.886  0.00  0.00    +0.000 C 
ATOM     14  C   UNL     1       0.801   8.249  21.186  0.00  0.00    +0.000 C 
ENDBRANCH  12  14
ENDBRANCH  10  12
ENDBRANCH   1  10
BRANCH   7  15
ATOM     15  O   UNL     1       4.916   5.367  16.194  0.00  0.00    +0.000 OA
BRANCH  15  16
ATOM     16  C   UNL     1       6.323   5.278  15.933  0.00  0.00    +0.000 C 
ATOM     17  S   UNL     1       6.848   4.824  14.413  0.00  0.00    +0.000 S 
BRANCH  16  18
ATOM     18  N   UNL     1       7.153   5.629  17.017  0.00  0.00    +0.000 N 
ATOM     19  C   UNL     1       7.792   4.629  17.895  0.00  0.00    +0.000 C 
ATOM     20  C   UNL     1       7.406   6.998  17.407  0.00  0.00    +0.000 C 
ENDBRANCH  16  18
ENDBRANCH  15  16
ENDBRANCH   7  15
TORSDOF 6
ENDMDL
MODEL 3
REMARK VINA RESULT:      -6.3      2.674      4.555
REMARK  Name = 
REMARK  8 active torsions:
REMARK  status: ('A' for Active; 'I' for Inactive)
REMARK    1  A    between atoms: C_2  and  C_3
REMARK    2  A    between atoms: C_3  and  N_4
REMARK    3  A    between atoms: N_4  and  C_5
REMARK    4  A    between atoms: C_11  and  O_12
REMARK    5  A    between atoms: O_12  and  C_13
REMARK    6  A    between atoms: C_13  and  N_15
REMARK    7  A    between atoms: N_15  and  C_16
REMARK    8  A    between atoms: N_15  and  C_17
REMARK                            x       y       z     vdW  Elec       q    Type
REMARK                         _______ _______ _______ _____ _____    ______ ____
ROOT
ATOM      1  C   UNL     1       2.850   4.266  18.127  0.00  0.00    +0.000 C 
ATOM      2  C   UNL     1       2.274   5.666  18.464  0.00  0.00    +0.000 C 
ATOM      3  C   UNL     1       3.419   6.650  18.250  0.00  0.00    +0.000 C 
ATOM      4  C   UNL     1       4.162   5.961  17.163  0.00  0.00    +0.000 A 
ATOM      5  C   UNL     1       5.083   6.547  16.305  0.00  0.00    +0.000 A 
ATOM      6  C   UNL     1       5.717   5.777  15.333  0.00  0.00    +0.000 A 
ATOM      7  C   UNL     1       5.482   4.403  15.254  0.00  0.00    +0.000 A 
ATOM      8  C   UNL     1       4.568   3.795  16.131  0.00  0.00    +0.000 A 
ATOM      9  C   UNL     1       3.882   4.602  17.063  0.00  0.00    +0.000 A 
ENDROOT
BRANCH   1  10
ATOM     10  N   UNL     1       1.749   3.413  17.698  0.00  0.00    +0.000 NA
ATOM     11  H   UNL     1       0.866   3.907  17.826  0.00  0.00    +0.000 HD
BRANCH  10  12
ATOM     12  C   UNL     1       1.737   2.217  18.494  0.00  0.00    +0.000 C 
BRANCH  12  14
ATOM     13  C   UNL     1       1.336   2.831  21.221  0.00  0.00    +0.000 C 
ATOM     14  C   UNL     1       1.521   2.547  19.962  0.00  0.00    +0.000 C 
ENDBRANCH  12  14
ENDBRANCH  10  12
ENDBRANCH   1  10
BRANCH   7  15
ATOM     15  O   UNL     1       6.092   3.581  14.214  0.00  0.00    +0.000 OA
BRANCH  15  16
ATOM     16  C   UNL     1       6.346   3.752  12.814  0.00  0.00    +0.000 C 
ATOM     17  S   UNL     1       7.525   4.827  12.319  0.00  0.00    +0.000 S 
BRANCH  16  18
ATOM     18  N   UNL     1       5.569   2.938  11.965  0.00  0.00    +0.000 N 
ATOM     19  C   UNL     1       4.209   3.308  11.524  0.00  0.00    +0.000 C 
ATOM     20  C   UNL     1       6.004   1.641  11.496  0.00  0.00    +0.000 C 
ENDBRANCH  16  18
ENDBRANCH  15  16
ENDBRANCH   7  15
TORSDOF 6
ENDMDL
MODEL 4
REMARK VINA RESULT:      -6.0      1.243      1.693
REMARK  Name = 
REMARK  8 active torsions:
REMARK  status: ('A' for Active; 'I' for Inactive)
REMARK    1  A    between atoms: C_2  and  C_3
REMARK    2  A    between atoms: C_3  and  N_4
REMARK    3  A    between atoms: N_4  and  C_5
REMARK    4  A    between atoms: C_11  and  O_12
REMARK    5  A    between atoms: O_12  and  C_13
REMARK    6  A    between atoms: C_13  and  N_15
REMARK    7  A    between atoms: N_15  and  C_16
REMARK    8  A    between atoms: N_15  and  C_17
REMARK                            x       y       z     vdW  Elec       q    Type
REMARK                         _______ _______ _______ _____ _____    ______ ____
ROOT
ATOM      1  C   UNL     1       1.737   5.079  20.062  0.00  0.00    +0.000 C 
ATOM      2  C   UNL     1       1.576   3.961  21.125  0.00  0.00    +0.000 C 
ATOM      3  C   UNL     1       1.531   2.650  20.348  0.00  0.00    +0.000 C 
ATOM      4  C   UNL     1       2.394   2.997  19.190  0.00  0.00    +0.000 A 
ATOM      5  C   UNL     1       3.019   2.096  18.338  0.00  0.00    +0.000 A 
ATOM      6  C   UNL     1       3.795   2.562  17.280  0.00  0.00    +0.000 A 
ATOM      7  C   UNL     1       3.899   3.932  17.028  0.00  0.00    +0.000 A 
ATOM      8  C   UNL     1       3.254   4.852  17.870  0.00  0.00    +0.000 A 
ATOM      9  C   UNL     1       2.530   4.366  18.979  0.00  0.00    +0.000 A 
ENDROOT
BRANCH   1  10
ATOM     10  N   UNL     1       2.398   6.214  20.691  0.00  0.00    +0.000 NA
ATOM     11  H   UNL     1       2.436   6.069  21.700  0.00  0.00    +0.000 HD
BRANCH  10  12
ATOM     12  C   UNL     1       1.652   7.410  20.418  0.00  0.00    +0.000 C 
BRANCH  12  14
ATOM     13  C   UNL     1       2.376   8.495  17.914  0.00  0.00    +0.000 C 
ATOM     14  C   UNL     1       2.042   7.994  19.070  0.00  0.00    +0.000 C 
ENDBRANCH  12  14
ENDBRANCH  10  12
ENDBRANCH   1  10
BRANCH   7  15
ATOM     15  O   UNL     1       4.746   4.451  15.958  0.00  0.00    +0.000 OA
BRANCH  15  16
ATOM     16  C   UNL     1       6.160   4.494  15.724  0.00  0.00    +0.000 C 
ATOM     17  S   UNL     1       7.205   4.566  17.025  0.00  0.00    +0.000 S 
BRANCH  16  18
ATOM     18  N   UNL     1       6.540   4.434  14.368  0.00  0.00    +0.000 N 
ATOM     19  C   UNL     1       7.602   5.285  13.794  0.00  0.00    +0.000 C 
ATOM     20  C   UNL     1       5.886   3.582  13.400  0.00  0.00    +0.000 C 
ENDBRANCH  16  18
ENDBRANCH  15  16
ENDBRANCH   7  15
TORSDOF 6
ENDMDL
MODEL 5
REMARK VINA RESULT:      -6.0      2.870      5.831
REMARK  Name = 
REMARK  8 active torsions:
REMARK  status: ('A' for Active; 'I' for Inactive)
REMARK    1  A    between atoms: C_2  and  C_3
REMARK    2  A    between atoms: C_3  and  N_4
REMARK    3  A    between atoms: N_4  and  C_5
REMARK    4  A    between atoms: C_11  and  O_12
REMARK    5  A    between atoms: O_12  and  C_13
REMARK    6  A    between atoms: C_13  and  N_15
REMARK    7  A    between atoms: N_15  and  C_16
REMARK    8  A    between atoms: N_15  and  C_17
REMARK                            x       y       z     vdW  Elec       q    Type
REMARK                         _______ _______ _______ _____ _____    ______ ____
ROOT
ATOM      1  C   UNL     1       4.274   3.710  17.896  0.00  0.00    +0.000 C 
ATOM      2  C   UNL     1       3.516   2.368  17.726  0.00  0.00    +0.000 C 
ATOM      3  C   UNL     1       2.735   2.164  19.019  0.00  0.00    +0.000 C 
ATOM      4  C   UNL     1       2.469   3.576  19.395  0.00  0.00    +0.000 A 
ATOM      5  C   UNL     1       1.490   4.017  20.277  0.00  0.00    +0.000 A 
ATOM      6  C   UNL     1       1.358   5.376  20.548  0.00  0.00    +0.000 A 
ATOM      7  C   UNL     1       2.244   6.299  19.987  0.00  0.00    +0.000 A 
ATOM      8  C   UNL     1       3.251   5.863  19.111  0.00  0.00    +0.000 A 
ATOM      9  C   UNL     1       3.326   4.491  18.792  0.00  0.00    +0.000 A 
ENDROOT
BRANCH   1  10
ATOM     10  N   UNL     1       4.504   4.272  16.572  0.00  0.00    +0.000 NA
ATOM     11  H   UNL     1       3.905   3.804  15.894  0.00  0.00    +0.000 HD
BRANCH  10  12
ATOM     12  C   UNL     1       5.878   4.070  16.202  0.00  0.00    +0.000 C 
BRANCH  12  14
ATOM     13  C   UNL     1       6.136   3.811  13.402  0.00  0.00    +0.000 C 
ATOM     14  C   UNL     1       6.017   3.931  14.695  0.00  0.00    +0.000 C 
ENDBRANCH  12  14
ENDBRANCH  10  12
ENDBRANCH   1  10
BRANCH   7  15
ATOM     15  O   UNL     1       2.097   7.733  20.212  0.00  0.00    +0.000 OA
BRANCH  15  16
ATOM     16  C   UNL     1       1.374   8.786  19.561  0.00  0.00    +0.000 C 
ATOM     17  S   UNL     1       1.790   9.226  18.004  0.00  0.00    +0.000 S 
BRANCH  16  18
ATOM     18  N   UNL     1       0.322   9.342  20.318  0.00  0.00    +0.000 N 
ATOM     19  C   UNL     1      -0.417  10.549  19.898  0.00  0.00    +0.000 C 
ATOM     20  C   UNL     1      -0.089   8.820  21.602  0.00  0.00    +0.000 C 
ENDBRANCH  16  18
ENDBRANCH  15  16
ENDBRANCH   7  15
TORSDOF 6
ENDMDL
MODEL 6
REMARK VINA RESULT:      -6.0      1.101      1.320
REMARK  Name = 
REMARK  8 active torsions:
REMARK  status: ('A' for Active; 'I' for Inactive)
REMARK    1  A    between atoms: C_2  and  C_3
REMARK    2  A    between atoms: C_3  and  N_4
REMARK    3  A    between atoms: N_4  and  C_5
REMARK    4  A    between atoms: C_11  and  O_12
REMARK    5  A    between atoms: O_12  and  C_13
REMARK    6  A    between atoms: C_13  and  N_15
REMARK    7  A    between atoms: N_15  and  C_16
REMARK    8  A    between atoms: N_15  and  C_17
REMARK                            x       y       z     vdW  Elec       q    Type
REMARK                         _______ _______ _______ _____ _____    ______ ____
ROOT
ATOM      1  C   UNL     1       1.676   5.152  19.781  0.00  0.00    +0.000 C 
ATOM      2  C   UNL     1       0.743   4.044  20.334  0.00  0.00    +0.000 C 
ATOM      3  C   UNL     1       0.825   2.894  19.337  0.00  0.00    +0.000 C 
ATOM      4  C   UNL     1       2.218   3.063  18.849  0.00  0.00    +0.000 A 
ATOM      5  C   UNL     1       2.981   2.098  18.204  0.00  0.00    +0.000 A 
ATOM      6  C   UNL     1       4.275   2.398  17.788  0.00  0.00    +0.000 A 
ATOM      7  C   UNL     1       4.793   3.684  17.957  0.00  0.00    +0.000 A 
ATOM      8  C   UNL     1       4.022   4.674  18.588  0.00  0.00    +0.000 A 
ATOM      9  C   UNL     1       2.740   4.334  19.066  0.00  0.00    +0.000 A 
ENDROOT
BRANCH   1  10
ATOM     10  N   UNL     1       2.140   5.957  20.903  0.00  0.00    +0.000 NA
ATOM     11  H   UNL     1       1.749   5.590  21.770  0.00  0.00    +0.000 HD
BRANCH  10  12
ATOM     12  C   UNL     1       1.701   7.314  20.728  0.00  0.00    +0.000 C 
BRANCH  12  14
ATOM     13  C   UNL     1       2.340   8.249  18.141  0.00  0.00    +0.000 C 
ATOM     14  C   UNL     1       2.046   7.817  19.336  0.00  0.00    +0.000 C 
ENDBRANCH  12  14
ENDBRANCH  10  12
ENDBRANCH   1  10
BRANCH   7  15
ATOM     15  O   UNL     1       6.164   4.012  17.579  0.00  0.00    +0.000 OA
BRANCH  15  16
ATOM     16  C   UNL     1       6.786   5.111  16.900  0.00  0.00    +0.000 C 
ATOM     17  S   UNL     1       6.757   5.167  15.230  0.00  0.00    +0.000 S 
BRANCH  16  18
ATOM     18  N   UNL     1       7.350   6.089  17.744  0.00  0.00    +0.000 N 
ATOM     19  C   UNL     1       7.811   5.796  19.115  0.00  0.00    +0.000 C 
ATOM     20  C   UNL     1       7.472   7.481  17.371  0.00  0.00    +0.000 C 
ENDBRANCH  16  18
ENDBRANCH  15  16
ENDBRANCH   7  15
TORSDOF 6
ENDMDL
MODEL 7
REMARK VINA RESULT:      -6.0      3.126      5.600
REMARK  Name = 
REMARK  8 active torsions:
REMARK  status: ('A' for Active; 'I' for Inactive)
REMARK    1  A    between atoms: C_2  and  C_3
REMARK    2  A    between atoms: C_3  and  N_4
REMARK    3  A    between atoms: N_4  and  C_5
REMARK    4  A    between atoms: C_11  and  O_12
REMARK    5  A    between atoms: O_12  and  C_13
REMARK    6  A    between atoms: C_13  and  N_15
REMARK    7  A    between atoms: N_15  and  C_16
REMARK    8  A    between atoms: N_15  and  C_17
REMARK                            x       y       z     vdW  Elec       q    Type
REMARK                         _______ _______ _______ _____ _____    ______ ____
ROOT
ATOM      1  C   UNL     1       0.692   9.468  20.821  0.00  0.00    +0.000 C 
ATOM      2  C   UNL     1       0.088  10.339  19.689  0.00  0.00    +0.000 C 
ATOM      3  C   UNL     1       1.096  10.294  18.546  0.00  0.00    +0.000 C 
ATOM      4  C   UNL     1       1.670   8.940  18.749  0.00  0.00    +0.000 A 
ATOM      5  C   UNL     1       2.367   8.197  17.805  0.00  0.00    +0.000 A 
ATOM      6  C   UNL     1       2.862   6.939  18.136  0.00  0.00    +0.000 A 
ATOM      7  C   UNL     1       2.719   6.441  19.433  0.00  0.00    +0.000 A 
ATOM      8  C   UNL     1       2.034   7.192  20.403  0.00  0.00    +0.000 A 
ATOM      9  C   UNL     1       1.478   8.434  20.031  0.00  0.00    +0.000 A 
ENDROOT
BRANCH   1  10
ATOM     10  N   UNL     1      -0.403   8.952  21.631  0.00  0.00    +0.000 NA
ATOM     11  H   UNL     1      -1.292   9.223  21.213  0.00  0.00    +0.000 HD
BRANCH  10  12
ATOM     12  C   UNL     1      -0.318   9.508  22.953  0.00  0.00    +0.000 C 
BRANCH  12  14
ATOM     13  C   UNL     1      -1.799  11.906  23.131  0.00  0.00    +0.000 C 
ATOM     14  C   UNL     1      -1.115  10.799  23.049  0.00  0.00    +0.000 C 
ENDBRANCH  12  14
ENDBRANCH  10  12
ENDBRANCH   1  10
BRANCH   7  15
ATOM     15  O   UNL     1       3.181   5.104  19.795  0.00  0.00    +0.000 OA
BRANCH  15  16
ATOM     16  C   UNL     1       2.958   3.786  19.278  0.00  0.00    +0.000 C 
ATOM     17  S   UNL     1       4.035   3.144  18.174  0.00  0.00    +0.000 S 
BRANCH  16  18
ATOM     18  N   UNL     1       1.827   3.126  19.800  0.00  0.00    +0.000 N 
ATOM     19  C   UNL     1       0.784   2.523  18.946  0.00  0.00    +0.000 C 
ATOM     20  C   UNL     1       1.550   3.032  21.216  0.00  0.00    +0.000 C 
ENDBRANCH  16  18
ENDBRANCH  15  16
ENDBRANCH   7  15
TORSDOF 6
ENDMDL
MODEL 8
REMARK VINA RESULT:      -6.0      3.390      5.514
REMARK  Name = 
REMARK  8 active torsions:
REMARK  status: ('A' for Active; 'I' for Inactive)
REMARK    1  A    between atoms: C_2  and  C_3
REMARK    2  A    between atoms: C_3  and  N_4
REMARK    3  A    between atoms: N_4  and  C_5
REMARK    4  A    between atoms: C_11  and  O_12
REMARK    5  A    between atoms: O_12  and  C_13
REMARK    6  A    between atoms: C_13  and  N_15
REMARK    7  A    between atoms: N_15  and  C_16
REMARK    8  A    between atoms: N_15  and  C_17
REMARK                            x       y       z     vdW  Elec       q    Type
REMARK                         _______ _______ _______ _____ _____    ______ ____
ROOT
ATOM      1  C   UNL     1       1.013   9.157  20.364  0.00  0.00    +0.000 C 
ATOM      2  C   UNL     1       0.579   9.982  19.125  0.00  0.00    +0.000 C 
ATOM      3  C   UNL     1       1.684   9.795  18.091  0.00  0.00    +0.000 C 
ATOM      4  C   UNL     1       2.143   8.425  18.437  0.00  0.00    +0.000 A 
ATOM      5  C   UNL     1       2.874   7.577  17.615  0.00  0.00    +0.000 A 
ATOM      6  C   UNL     1       3.248   6.317  18.073  0.00  0.00    +0.000 A 
ATOM      7  C   UNL     1       2.950   5.920  19.379  0.00  0.00    +0.000 A 
ATOM      8  C   UNL     1       2.230   6.779  20.226  0.00  0.00    +0.000 A 
ATOM      9  C   UNL     1       1.797   8.023  19.723  0.00  0.00    +0.000 A 
ENDROOT
BRANCH   1  10
ATOM     10  N   UNL     1      -0.186   8.768  21.094  0.00  0.00    +0.000 NA
ATOM     11  H   UNL     1      -0.992   9.262  20.712  0.00  0.00    +0.000 HD
BRANCH  10  12
ATOM     12  C   UNL     1      -0.034   9.120  22.478  0.00  0.00    +0.000 C 
BRANCH  12  14
ATOM     13  C   UNL     1      -1.467  11.478  23.078  0.00  0.00    +0.000 C 
ATOM     14  C   UNL     1      -0.805  10.389  22.801  0.00  0.00    +0.000 C 
ENDBRANCH  12  14
ENDBRANCH  10  12
ENDBRANCH   1  10
BRANCH   7  15
ATOM     15  O   UNL     1       3.284   4.587  19.869  0.00  0.00    +0.000 OA
BRANCH  15  16
ATOM     16  C   UNL     1       2.530   3.407  20.173  0.00  0.00    +0.000 C 
ATOM     17  S   UNL     1       2.116   3.084  21.760  0.00  0.00    +0.000 S 
BRANCH  16  18
ATOM     18  N   UNL     1       2.169   2.627  19.056  0.00  0.00    +0.000 N 
ATOM     19  C   UNL     1       3.162   2.018  18.148  0.00  0.00    +0.000 C 
ATOM     20  C   UNL     1       0.797   2.401  18.659  0.00  0.00    +0.000 C 
ENDBRANCH  16  18
ENDBRANCH  15  16
ENDBRANCH   7  15
TORSDOF 6
ENDMDL
MODEL 9
REMARK VINA RESULT:      -6.0      1.434      2.075
REMARK  Name = 
REMARK  8 active torsions:
REMARK  status: ('A' for Active; 'I' for Inactive)
REMARK    1  A    between atoms: C_2  and  C_3
REMARK    2  A    between atoms: C_3  and  N_4
REMARK    3  A    between atoms: N_4  and  C_5
REMARK    4  A    between atoms: C_11  and  O_12
REMARK    5  A    between atoms: O_12  and  C_13
REMARK    6  A    between atoms: C_13  and  N_15
REMARK    7  A    between atoms: N_15  and  C_16
REMARK    8  A    between atoms: N_15  and  C_17
REMARK                            x       y       z     vdW  Elec       q    Type
REMARK                         _______ _______ _______ _____ _____    ______ ____
ROOT
ATOM      1  C   UNL     1       1.803   5.054  20.066  0.00  0.00    +0.000 C 
ATOM      2  C   UNL     1       1.673   3.991  21.188  0.00  0.00    +0.000 C 
ATOM      3  C   UNL     1       1.594   2.644  20.479  0.00  0.00    +0.000 C 
ATOM      4  C   UNL     1       2.419   2.927  19.276  0.00  0.00    +0.000 A 
ATOM      5  C   UNL     1       3.009   1.981  18.449  0.00  0.00    +0.000 A 
ATOM      6  C   UNL     1       3.750   2.388  17.343  0.00  0.00    +0.000 A 
ATOM      7  C   UNL     1       3.853   3.743  17.021  0.00  0.00    +0.000 A 
ATOM      8  C   UNL     1       3.242   4.708  17.838  0.00  0.00    +0.000 A 
ATOM      9  C   UNL     1       2.554   4.282  18.994  0.00  0.00    +0.000 A 
ENDROOT
BRANCH   1  10
ATOM     10  N   UNL     1       2.491   6.213  20.616  0.00  0.00    +0.000 NA
ATOM     11  H   UNL     1       2.346   6.249  21.624  0.00  0.00    +0.000 HD
BRANCH  10  12
ATOM     12  C   UNL     1       1.958   7.408  20.023  0.00  0.00    +0.000 C 
BRANCH  12  14
ATOM     13  C   UNL     1       0.524   8.921  21.929  0.00  0.00    +0.000 C 
ATOM     14  C   UNL     1       1.186   8.222  21.049  0.00  0.00    +0.000 C 
ENDBRANCH  12  14
ENDBRANCH  10  12
ENDBRANCH   1  10
BRANCH   7  15
ATOM     15  O   UNL     1       4.666   4.203  15.899  0.00  0.00    +0.000 OA
BRANCH  15  16
ATOM     16  C   UNL     1       6.069   4.406  15.687  0.00  0.00    +0.000 C 
ATOM     17  S   UNL     1       7.076   4.609  17.004  0.00  0.00    +0.000 S 
BRANCH  16  18
ATOM     18  N   UNL     1       6.477   4.377  14.338  0.00  0.00    +0.000 N 
ATOM     19  C   UNL     1       7.604   5.181  13.824  0.00  0.00    +0.000 C 
ATOM     20  C   UNL     1       5.795   3.609  13.321  0.00  0.00    +0.000 C 
ENDBRANCH  16  18
ENDBRANCH  15  16
ENDBRANCH   7  15
TORSDOF 6
ENDMDL
