MODEL 1
REMARK VINA RESULT:      -6.8      0.000      0.000
REMARK  Name = 
REMARK  4 active torsions:
REMARK  status: ('A' for Active; 'I' for Inactive)
REMARK    1  A    between atoms: C_1  and  O_2
REMARK    2  A    between atoms: O_2  and  C_3
REMARK    3  A    between atoms: C_6  and  C_7
REMARK    4  A    between atoms: C_11  and  C_12
REMARK                            x       y       z     vdW  Elec       q    Type
REMARK                         _______ _______ _______ _____ _____    ______ ____
ROOT
ATOM      1  C   UNL     1       0.395  11.601  19.471  0.00  0.00    +0.000 C 
ATOM      2  S   UNL     1       1.621  12.729  18.649  0.00  0.00    +0.000 S 
ATOM      3  C   UNL     1       1.194  14.235  19.513  0.00  0.00    +0.000 A 
ATOM      4  C   UNL     1       0.802  15.336  18.765  0.00  0.00    +0.000 A 
ATOM      5  C   UNL     1       0.171  16.408  19.401  0.00  0.00    +0.000 A 
ATOM      6  C   UNL     1      -0.568  17.413  18.571  0.00  0.00    +0.000 C 
ATOM      7  C   UNL     1       0.155  16.477  20.802  0.00  0.00    +0.000 A 
ATOM      8  C   UNL     1       0.577  15.386  21.558  0.00  0.00    +0.000 A 
ATOM      9  C   UNL     1       0.972  14.218  20.905  0.00  0.00    +0.000 A 
ATOM     10  N   UNL     1       0.760  12.982  21.568  0.00  0.00    +0.000 NA
ATOM     11  C   UNL     1      -0.018  12.242  20.823  0.00  0.00    +0.000 C 
ATOM     12  C   UNL     1      -1.486  12.417  20.810  0.00  0.00    +0.000 A 
ATOM     13  C   UNL     1      -2.293  13.140  21.672  0.00  0.00    +0.000 A 
ATOM     14  C   UNL     1      -3.659  13.236  21.371  0.00  0.00    +0.000 A 
ATOM     15  C   UNL     1      -4.198  12.598  20.240  0.00  0.00    +0.000 A 
ATOM     16  C   UNL     1      -3.359  11.962  19.330  0.00  0.00    +0.000 A 
ATOM     17  C   UNL     1      -2.006  11.943  19.614  0.00  0.00    +0.000 A 
ATOM     18  C   UNL     1      -0.927  11.614  18.695  0.00  0.00    +0.000 C 
ATOM     19  O   UNL     1      -1.131  11.418  17.510  0.00  0.00    +0.000 OA
ENDROOT
BRANCH   1  23
ATOM     20  C   UNL     1       1.996   7.565  19.781  0.00  0.00    +0.000 A 
ATOM     21  C   UNL     1       2.078   8.252  18.565  0.00  0.00    +0.000 A 
ATOM     22  C   UNL     1       1.548   9.544  18.419  0.00  0.00    +0.000 A 
ATOM     23  C   UNL     1       0.906  10.162  19.495  0.00  0.00    +0.000 A 
ATOM     24  C   UNL     1       0.806   9.439  20.705  0.00  0.00    +0.000 A 
ATOM     25  C   UNL     1       1.346   8.163  20.852  0.00  0.00    +0.000 A 
BRANCH  20  27
ATOM     26  C   UNL     1       1.856   5.335  20.558  0.00  0.00    +0.000 C 
ATOM     27  O   UNL     1       2.551   6.316  19.797  0.00  0.00    +0.000 OA
ENDBRANCH  20  27
ENDBRANCH   1  23
TORSDOF 2
ENDMDL
MODEL 2
REMARK VINA RESULT:      -6.7      0.999      1.163
REMARK  Name = 
REMARK  4 active torsions:
REMARK  status: ('A' for Active; 'I' for Inactive)
REMARK    1  A    between atoms: C_1  and  O_2
REMARK    2  A    between atoms: O_2  and  C_3
REMARK    3  A    between atoms: C_6  and  C_7
REMARK    4  A    between atoms: C_11  and  C_12
REMARK                            x       y       z     vdW  Elec       q    Type
REMARK                         _______ _______ _______ _____ _____    ______ ____
ROOT
ATOM      1  C   UNL     1       0.897  11.657  19.370  0.00  0.00    +0.000 C 
ATOM      2  S   UNL     1       1.913  12.752  18.265  0.00  0.00    +0.000 S 
ATOM      3  C   UNL     1       1.880  14.227  19.276  0.00  0.00    +0.000 A 
ATOM      4  C   UNL     1       1.374  15.394  18.722  0.00  0.00    +0.000 A 
ATOM      5  C   UNL     1       1.044  16.464  19.558  0.00  0.00    +0.000 A 
ATOM      6  C   UNL     1       0.177  17.563  19.025  0.00  0.00    +0.000 C 
ATOM      7  C   UNL     1       1.446  16.448  20.902  0.00  0.00    +0.000 A 
ATOM      8  C   UNL     1       1.983  15.288  21.454  0.00  0.00    +0.000 A 
ATOM      9  C   UNL     1       2.075  14.140  20.669  0.00  0.00    +0.000 A 
ATOM     10  N   UNL     1       1.969  12.881  21.316  0.00  0.00    +0.000 NA
ATOM     11  C   UNL     1       0.950  12.239  20.807  0.00  0.00    +0.000 C 
ATOM     12  C   UNL     1      -0.437  12.508  21.238  0.00  0.00    +0.000 A 
ATOM     13  C   UNL     1      -0.896  13.229  22.328  0.00  0.00    +0.000 A 
ATOM     14  C   UNL     1      -2.278  13.430  22.452  0.00  0.00    +0.000 A 
ATOM     15  C   UNL     1      -3.174  12.898  21.508  0.00  0.00    +0.000 A 
ATOM     16  C   UNL     1      -2.692  12.266  20.365  0.00  0.00    +0.000 A 
ATOM     17  C   UNL     1      -1.321  12.143  20.233  0.00  0.00    +0.000 A 
ATOM     18  C   UNL     1      -0.590  11.802  19.023  0.00  0.00    +0.000 C 
ATOM     19  O   UNL     1      -1.147  11.692  17.945  0.00  0.00    +0.000 OA
ENDROOT
BRANCH   1  23
ATOM     20  C   UNL     1       2.146   7.498  19.076  0.00  0.00    +0.000 A 
ATOM     21  C   UNL     1       2.199   8.319  17.944  0.00  0.00    +0.000 A 
ATOM     22  C   UNL     1       1.777   9.658  17.994  0.00  0.00    +0.000 A 
ATOM     23  C   UNL     1       1.276  10.190  19.184  0.00  0.00    +0.000 A 
ATOM     24  C   UNL     1       1.202   9.334  20.307  0.00  0.00    +0.000 A 
ATOM     25  C   UNL     1       1.634   8.010  20.260  0.00  0.00    +0.000 A 
BRANCH  20  27
ATOM     26  C   UNL     1       3.536   6.019  17.858  0.00  0.00    +0.000 C 
ATOM     27  O   UNL     1       2.586   6.215  18.900  0.00  0.00    +0.000 OA
ENDBRANCH  20  27
ENDBRANCH   1  23
TORSDOF 2
ENDMDL
MODEL 3
REMARK VINA RESULT:      -6.6      1.169      1.490
REMARK  Name = 
REMARK  4 active torsions:
REMARK  status: ('A' for Active; 'I' for Inactive)
REMARK    1  A    between atoms: C_1  and  O_2
REMARK    2  A    between atoms: O_2  and  C_3
REMARK    3  A    between atoms: C_6  and  C_7
REMARK    4  A    between atoms: C_11  and  C_12
REMARK                            x       y       z     vdW  Elec       q    Type
REMARK                         _______ _______ _______ _____ _____    ______ ____
ROOT
ATOM      1  C   UNL     1       0.118  12.018  20.046  0.00  0.00    +0.000 C 
ATOM      2  S   UNL     1       0.600  13.004  18.547  0.00  0.00    +0.000 S 
ATOM      3  C   UNL     1       0.643  14.619  19.313  0.00  0.00    +0.000 A 
ATOM      4  C   UNL     1      -0.166  15.618  18.790  0.00  0.00    +0.000 A 
ATOM      5  C   UNL     1      -0.394  16.777  19.537  0.00  0.00    +0.000 A 
ATOM      6  C   UNL     1      -1.529  17.676  19.154  0.00  0.00    +0.000 C 
ATOM      7  C   UNL     1       0.375  17.032  20.681  0.00  0.00    +0.000 A 
ATOM      8  C   UNL     1       1.213  16.044  21.192  0.00  0.00    +0.000 A 
ATOM      9  C   UNL     1       1.242  14.792  20.577  0.00  0.00    +0.000 A 
ATOM     10  N   UNL     1       1.513  13.659  21.387  0.00  0.00    +0.000 NA
ATOM     11  C   UNL     1       0.496  12.841  21.306  0.00  0.00    +0.000 C 
ATOM     12  C   UNL     1      -0.733  13.040  22.102  0.00  0.00    +0.000 A 
ATOM     13  C   UNL     1      -0.959  13.887  23.175  0.00  0.00    +0.000 A 
ATOM     14  C   UNL     1      -2.261  13.968  23.689  0.00  0.00    +0.000 A 
ATOM     15  C   UNL     1      -3.302  13.195  23.145  0.00  0.00    +0.000 A 
ATOM     16  C   UNL     1      -3.083  12.428  22.005  0.00  0.00    +0.000 A 
ATOM     17  C   UNL     1      -1.805  12.422  21.476  0.00  0.00    +0.000 A 
ATOM     18  C   UNL     1      -1.410  11.953  20.157  0.00  0.00    +0.000 C 
ATOM     19  O   UNL     1      -2.232  11.605  19.327  0.00  0.00    +0.000 OA
ENDROOT
BRANCH   1  23
ATOM     20  C   UNL     1       1.771   7.993  20.002  0.00  0.00    +0.000 A 
ATOM     21  C   UNL     1       1.718   8.733  18.816  0.00  0.00    +0.000 A 
ATOM     22  C   UNL     1       1.166  10.024  18.786  0.00  0.00    +0.000 A 
ATOM     23  C   UNL     1       0.639  10.586  19.951  0.00  0.00    +0.000 A 
ATOM     24  C   UNL     1       0.673   9.809  21.131  0.00  0.00    +0.000 A 
ATOM     25  C   UNL     1       1.235   8.534  21.162  0.00  0.00    +0.000 A 
BRANCH  20  27
ATOM     26  C   UNL     1       2.798   6.378  18.609  0.00  0.00    +0.000 C 
ATOM     27  O   UNL     1       2.334   6.751  19.903  0.00  0.00    +0.000 OA
ENDBRANCH  20  27
ENDBRANCH   1  23
TORSDOF 2
ENDMDL
MODEL 4
REMARK VINA RESULT:      -6.6      2.934      6.124
REMARK  Name = 
REMARK  4 active torsions:
REMARK  status: ('A' for Active; 'I' for Inactive)
REMARK    1  A    between atoms: C_1  and  O_2
REMARK    2  A    between atoms: O_2  and  C_3
REMARK    3  A    between atoms: C_6  and  C_7
REMARK    4  A    between atoms: C_11  and  C_12
REMARK                            x       y       z     vdW  Elec       q    Type
REMARK                         _______ _______ _______ _____ _____    ______ ____
ROOT
ATOM      1  C   UNL     1      -1.693  12.975  22.027  0.00  0.00    +0.000 C 
ATOM      2  S   UNL     1      -0.839  14.381  22.890  0.00  0.00    +0.000 S 
ATOM      3  C   UNL     1       0.301  14.820  21.585  0.00  0.00    +0.000 A 
ATOM      4  C   UNL     1       1.661  14.802  21.863  0.00  0.00    +0.000 A 
ATOM      5  C   UNL     1       2.577  14.830  20.808  0.00  0.00    +0.000 A 
ATOM      6  C   UNL     1       4.002  14.450  21.074  0.00  0.00    +0.000 C 
ATOM      7  C   UNL     1       2.136  15.118  19.509  0.00  0.00    +0.000 A 
ATOM      8  C   UNL     1       0.773  15.168  19.230  0.00  0.00    +0.000 A 
ATOM      9  C   UNL     1      -0.139  14.887  20.247  0.00  0.00    +0.000 A 
ATOM     10  N   UNL     1      -1.378  14.297  19.885  0.00  0.00    +0.000 NA
ATOM     11  C   UNL     1      -1.483  13.148  20.500  0.00  0.00    +0.000 C 
ATOM     12  C   UNL     1      -0.824  11.927  19.993  0.00  0.00    +0.000 A 
ATOM     13  C   UNL     1      -0.230  11.693  18.763  0.00  0.00    +0.000 A 
ATOM     14  C   UNL     1       0.430  10.472  18.571  0.00  0.00    +0.000 A 
ATOM     15  C   UNL     1       0.470   9.503  19.589  0.00  0.00    +0.000 A 
ATOM     16  C   UNL     1      -0.041   9.792  20.851  0.00  0.00    +0.000 A 
ATOM     17  C   UNL     1      -0.624  11.033  21.034  0.00  0.00    +0.000 A 
ATOM     18  C   UNL     1      -0.948  11.664  22.304  0.00  0.00    +0.000 C 
ATOM     19  O   UNL     1      -0.620  11.170  23.369  0.00  0.00    +0.000 OA
ENDROOT
BRANCH   1  23
ATOM     20  C   UNL     1      -5.848  12.734  23.302  0.00  0.00    +0.000 A 
ATOM     21  C   UNL     1      -4.828  12.725  24.259  0.00  0.00    +0.000 A 
ATOM     22  C   UNL     1      -3.475  12.772  23.885  0.00  0.00    +0.000 A 
ATOM     23  C   UNL     1      -3.125  12.812  22.533  0.00  0.00    +0.000 A 
ATOM     24  C   UNL     1      -4.170  12.788  21.581  0.00  0.00    +0.000 A 
ATOM     25  C   UNL     1      -5.512  12.756  21.955  0.00  0.00    +0.000 A 
BRANCH  20  27
ATOM     26  C   UNL     1      -7.658  13.920  24.261  0.00  0.00    +0.000 C 
ATOM     27  O   UNL     1      -7.123  12.686  23.792  0.00  0.00    +0.000 OA
ENDBRANCH  20  27
ENDBRANCH   1  23
TORSDOF 2
ENDMDL
MODEL 5
REMARK VINA RESULT:      -6.5      0.386      1.000
REMARK  Name = 
REMARK  4 active torsions:
REMARK  status: ('A' for Active; 'I' for Inactive)
REMARK    1  A    between atoms: C_1  and  O_2
REMARK    2  A    between atoms: O_2  and  C_3
REMARK    3  A    between atoms: C_6  and  C_7
REMARK    4  A    between atoms: C_11  and  C_12
REMARK                            x       y       z     vdW  Elec       q    Type
REMARK                         _______ _______ _______ _____ _____    ______ ____
ROOT
ATOM      1  C   UNL     1       0.329  11.902  19.574  0.00  0.00    +0.000 C 
ATOM      2  S   UNL     1       1.431  13.060  18.628  0.00  0.00    +0.000 S 
ATOM      3  C   UNL     1       0.979  14.575  19.465  0.00  0.00    +0.000 A 
ATOM      4  C   UNL     1       0.477  15.622  18.706  0.00  0.00    +0.000 A 
ATOM      5  C   UNL     1      -0.170  16.684  19.344  0.00  0.00    +0.000 A 
ATOM      6  C   UNL     1      -1.017  17.614  18.531  0.00  0.00    +0.000 C 
ATOM      7  C   UNL     1      -0.095  16.808  20.739  0.00  0.00    +0.000 A 
ATOM      8  C   UNL     1       0.436  15.772  21.503  0.00  0.00    +0.000 A 
ATOM      9  C   UNL     1       0.852  14.602  20.868  0.00  0.00    +0.000 A 
ATOM     10  N   UNL     1       0.754  13.384  21.589  0.00  0.00    +0.000 NA
ATOM     11  C   UNL     1      -0.030  12.574  20.926  0.00  0.00    +0.000 C 
ATOM     12  C   UNL     1      -1.502  12.669  21.007  0.00  0.00    +0.000 A 
ATOM     13  C   UNL     1      -2.290  13.382  21.896  0.00  0.00    +0.000 A 
ATOM     14  C   UNL     1      -3.676  13.393  21.687  0.00  0.00    +0.000 A 
ATOM     15  C   UNL     1      -4.252  12.681  20.619  0.00  0.00    +0.000 A 
ATOM     16  C   UNL     1      -3.441  12.055  19.677  0.00  0.00    +0.000 A 
ATOM     17  C   UNL     1      -2.073  12.120  19.868  0.00  0.00    +0.000 A 
ATOM     18  C   UNL     1      -1.041  11.814  18.890  0.00  0.00    +0.000 C 
ATOM     19  O   UNL     1      -1.312  11.559  17.729  0.00  0.00    +0.000 OA
ENDROOT
BRANCH   1  23
ATOM     20  C   UNL     1       1.874   7.835  19.443  0.00  0.00    +0.000 A 
ATOM     21  C   UNL     1       1.299   8.321  20.623  0.00  0.00    +0.000 A 
ATOM     22  C   UNL     1       0.815   9.636  20.711  0.00  0.00    +0.000 A 
ATOM     23  C   UNL     1       0.920  10.495  19.615  0.00  0.00    +0.000 A 
ATOM     24  C   UNL     1       1.533   9.995  18.443  0.00  0.00    +0.000 A 
ATOM     25  C   UNL     1       1.999   8.685  18.352  0.00  0.00    +0.000 A 
BRANCH  20  27
ATOM     26  C   UNL     1       1.794   5.744  20.547  0.00  0.00    +0.000 C 
ATOM     27  O   UNL     1       2.305   6.539  19.482  0.00  0.00    +0.000 OA
ENDBRANCH  20  27
ENDBRANCH   1  23
TORSDOF 2
ENDMDL
MODEL 6
REMARK VINA RESULT:      -6.5      1.956      3.799
REMARK  Name = 
REMARK  4 active torsions:
REMARK  status: ('A' for Active; 'I' for Inactive)
REMARK    1  A    between atoms: C_1  and  O_2
REMARK    2  A    between atoms: O_2  and  C_3
REMARK    3  A    between atoms: C_6  and  C_7
REMARK    4  A    between atoms: C_11  and  C_12
REMARK                            x       y       z     vdW  Elec       q    Type
REMARK                         _______ _______ _______ _____ _____    ______ ____
ROOT
ATOM      1  C   UNL     1       0.344  11.316  20.352  0.00  0.00    +0.000 C 
ATOM      2  S   UNL     1      -0.402  10.850  21.989  0.00  0.00    +0.000 S 
ATOM      3  C   UNL     1      -1.662  12.117  22.059  0.00  0.00    +0.000 A 
ATOM      4  C   UNL     1      -1.667  12.983  23.144  0.00  0.00    +0.000 A 
ATOM      5  C   UNL     1      -2.420  14.158  23.081  0.00  0.00    +0.000 A 
ATOM      6  C   UNL     1      -2.149  15.248  24.072  0.00  0.00    +0.000 C 
ATOM      7  C   UNL     1      -3.345  14.338  22.043  0.00  0.00    +0.000 A 
ATOM      8  C   UNL     1      -3.366  13.455  20.967  0.00  0.00    +0.000 A 
ATOM      9  C   UNL     1      -2.431  12.421  20.918  0.00  0.00    +0.000 A 
ATOM     10  N   UNL     1      -2.001  11.973  19.642  0.00  0.00    +0.000 NA
ATOM     11  C   UNL     1      -0.707  12.138  19.560  0.00  0.00    +0.000 C 
ATOM     12  C   UNL     1      -0.105  13.448  19.235  0.00  0.00    +0.000 A 
ATOM     13  C   UNL     1      -0.706  14.596  18.749  0.00  0.00    +0.000 A 
ATOM     14  C   UNL     1       0.078  15.752  18.629  0.00  0.00    +0.000 A 
ATOM     15  C   UNL     1       1.442  15.739  18.972  0.00  0.00    +0.000 A 
ATOM     16  C   UNL     1       2.006  14.609  19.555  0.00  0.00    +0.000 A 
ATOM     17  C   UNL     1       1.191  13.505  19.727  0.00  0.00    +0.000 A 
ATOM     18  C   UNL     1       1.460  12.345  20.563  0.00  0.00    +0.000 C 
ATOM     19  O   UNL     1       2.430  12.295  21.299  0.00  0.00    +0.000 OA
ENDROOT
BRANCH   1  23
ATOM     20  C   UNL     1       2.287   7.834  18.607  0.00  0.00    +0.000 A 
ATOM     21  C   UNL     1       2.010   8.947  17.806  0.00  0.00    +0.000 A 
ATOM     22  C   UNL     1       1.359  10.077  18.327  0.00  0.00    +0.000 A 
ATOM     23  C   UNL     1       0.957  10.098  19.665  0.00  0.00    +0.000 A 
ATOM     24  C   UNL     1       1.217   8.950  20.448  0.00  0.00    +0.000 A 
ATOM     25  C   UNL     1       1.877   7.836  19.933  0.00  0.00    +0.000 A 
BRANCH  20  27
ATOM     26  C   UNL     1       2.339   5.511  18.154  0.00  0.00    +0.000 C 
ATOM     27  O   UNL     1       2.926   6.798  17.985  0.00  0.00    +0.000 OA
ENDBRANCH  20  27
ENDBRANCH   1  23
TORSDOF 2
ENDMDL
MODEL 7
REMARK VINA RESULT:      -6.4      3.250      4.472
REMARK  Name = 
REMARK  4 active torsions:
REMARK  status: ('A' for Active; 'I' for Inactive)
REMARK    1  A    between atoms: C_1  and  O_2
REMARK    2  A    between atoms: O_2  and  C_3
REMARK    3  A    between atoms: C_6  and  C_7
REMARK    4  A    between atoms: C_11  and  C_12
REMARK                            x       y       z     vdW  Elec       q    Type
REMARK                         _______ _______ _______ _____ _____    ______ ____
ROOT
ATOM      1  C   UNL     1      -2.500  13.142  22.179  0.00  0.00    +0.000 C 
ATOM      2  S   UNL     1      -1.652  14.765  21.867  0.00  0.00    +0.000 S 
ATOM      3  C   UNL     1      -2.730  15.802  22.847  0.00  0.00    +0.000 A 
ATOM      4  C   UNL     1      -3.369  16.864  22.223  0.00  0.00    +0.000 A 
ATOM      5  C   UNL     1      -4.440  17.493  22.863  0.00  0.00    +0.000 A 
ATOM      6  C   UNL     1      -5.348  18.375  22.063  0.00  0.00    +0.000 C 
ATOM      7  C   UNL     1      -4.705  17.216  24.212  0.00  0.00    +0.000 A 
ATOM      8  C   UNL     1      -4.044  16.172  24.853  0.00  0.00    +0.000 A 
ATOM      9  C   UNL     1      -3.152  15.384  24.125  0.00  0.00    +0.000 A 
ATOM     10  N   UNL     1      -3.005  14.024  24.503  0.00  0.00    +0.000 NA
ATOM     11  C   UNL     1      -3.330  13.274  23.483  0.00  0.00    +0.000 C 
ATOM     12  C   UNL     1      -4.738  12.966  23.156  0.00  0.00    +0.000 A 
ATOM     13  C   UNL     1      -5.881  13.165  23.913  0.00  0.00    +0.000 A 
ATOM     14  C   UNL     1      -7.121  12.887  23.321  0.00  0.00    +0.000 A 
ATOM     15  C   UNL     1      -7.201  12.399  22.005  0.00  0.00    +0.000 A 
ATOM     16  C   UNL     1      -6.053  12.302  21.223  0.00  0.00    +0.000 A 
ATOM     17  C   UNL     1      -4.850  12.651  21.809  0.00  0.00    +0.000 A 
ATOM     18  C   UNL     1      -3.593  12.915  21.128  0.00  0.00    +0.000 C 
ATOM     19  O   UNL     1      -3.517  12.953  19.912  0.00  0.00    +0.000 OA
ENDROOT
BRANCH   1  23
ATOM     20  C   UNL     1       0.396   9.892  22.171  0.00  0.00    +0.000 A 
ATOM     21  C   UNL     1       0.372  10.801  21.108  0.00  0.00    +0.000 A 
ATOM     22  C   UNL     1      -0.566  11.845  21.062  0.00  0.00    +0.000 A 
ATOM     23  C   UNL     1      -1.512  11.981  22.081  0.00  0.00    +0.000 A 
ATOM     24  C   UNL     1      -1.491  11.033  23.129  0.00  0.00    +0.000 A 
ATOM     25  C   UNL     1      -0.550  10.007  23.181  0.00  0.00    +0.000 A 
BRANCH  20  27
ATOM     26  C   UNL     1       1.380   8.152  20.904  0.00  0.00    +0.000 C 
ATOM     27  O   UNL     1       1.357   8.922  22.102  0.00  0.00    +0.000 OA
ENDBRANCH  20  27
ENDBRANCH   1  23
TORSDOF 2
ENDMDL
MODEL 8
REMARK VINA RESULT:      -6.4      2.566      6.011
REMARK  Name = 
REMARK  4 active torsions:
REMARK  status: ('A' for Active; 'I' for Inactive)
REMARK    1  A    between atoms: C_1  and  O_2
REMARK    2  A    between atoms: O_2  and  C_3
REMARK    3  A    between atoms: C_6  and  C_7
REMARK    4  A    between atoms: C_11  and  C_12
REMARK                            x       y       z     vdW  Elec       q    Type
REMARK                         _______ _______ _______ _____ _____    ______ ____
ROOT
ATOM      1  C   UNL     1      -1.629  12.674  21.174  0.00  0.00    +0.000 C 
ATOM      2  S   UNL     1      -0.992  14.340  21.692  0.00  0.00    +0.000 S 
ATOM      3  C   UNL     1       0.517  14.341  20.733  0.00  0.00    +0.000 A 
ATOM      4  C   UNL     1       1.723  14.498  21.400  0.00  0.00    +0.000 A 
ATOM      5  C   UNL     1       2.917  14.194  20.741  0.00  0.00    +0.000 A 
ATOM      6  C   UNL     1       4.167  14.012  21.547  0.00  0.00    +0.000 C 
ATOM      7  C   UNL     1       2.911  13.970  19.356  0.00  0.00    +0.000 A 
ATOM      8  C   UNL     1       1.703  13.843  18.676  0.00  0.00    +0.000 A 
ATOM      9  C   UNL     1       0.509  13.899  19.394  0.00  0.00    +0.000 A 
ATOM     10  N   UNL     1      -0.595  13.152  18.907  0.00  0.00    +0.000 NA
ATOM     11  C   UNL     1      -0.954  12.297  19.829  0.00  0.00    +0.000 C 
ATOM     12  C   UNL     1      -0.249  11.013  20.021  0.00  0.00    +0.000 A 
ATOM     13  C   UNL     1       0.675  10.385  19.202  0.00  0.00    +0.000 A 
ATOM     14  C   UNL     1       1.284   9.213  19.673  0.00  0.00    +0.000 A 
ATOM     15  C   UNL     1       0.952   8.679  20.930  0.00  0.00    +0.000 A 
ATOM     16  C   UNL     1       0.100   9.375  21.783  0.00  0.00    +0.000 A 
ATOM     17  C   UNL     1      -0.433  10.565  21.322  0.00  0.00    +0.000 A 
ATOM     18  C   UNL     1      -1.087  11.593  22.116  0.00  0.00    +0.000 C 
ATOM     19  O   UNL     1      -1.130  11.534  23.333  0.00  0.00    +0.000 OA
ENDROOT
BRANCH   1  23
ATOM     20  C   UNL     1      -5.982  12.732  21.147  0.00  0.00    +0.000 A 
ATOM     21  C   UNL     1      -5.294  12.877  22.357  0.00  0.00    +0.000 A 
ATOM     22  C   UNL     1      -3.891  12.835  22.409  0.00  0.00    +0.000 A 
ATOM     23  C   UNL     1      -3.154  12.627  21.241  0.00  0.00    +0.000 A 
ATOM     24  C   UNL     1      -3.869  12.451  20.034  0.00  0.00    +0.000 A 
ATOM     25  C   UNL     1      -5.261  12.507  19.983  0.00  0.00    +0.000 A 
BRANCH  20  27
ATOM     26  C   UNL     1      -7.915  12.388  22.469  0.00  0.00    +0.000 C 
ATOM     27  O   UNL     1      -7.345  12.792  21.228  0.00  0.00    +0.000 OA
ENDBRANCH  20  27
ENDBRANCH   1  23
TORSDOF 2
ENDMDL
MODEL 9
REMARK VINA RESULT:      -6.4      2.636      5.899
REMARK  Name = 
REMARK  4 active torsions:
REMARK  status: ('A' for Active; 'I' for Inactive)
REMARK    1  A    between atoms: C_1  and  O_2
REMARK    2  A    between atoms: O_2  and  C_3
REMARK    3  A    between atoms: C_6  and  C_7
REMARK    4  A    between atoms: C_11  and  C_12
REMARK                            x       y       z     vdW  Elec       q    Type
REMARK                         _______ _______ _______ _____ _____    ______ ____
ROOT
ATOM      1  C   UNL     1      -1.699  12.804  21.108  0.00  0.00    +0.000 C 
ATOM      2  S   UNL     1      -1.038  14.517  21.386  0.00  0.00    +0.000 S 
ATOM      3  C   UNL     1       0.486  14.350  20.467  0.00  0.00    +0.000 A 
ATOM      4  C   UNL     1       1.684  14.584  21.128  0.00  0.00    +0.000 A 
ATOM      5  C   UNL     1       2.883  14.165  20.544  0.00  0.00    +0.000 A 
ATOM      6  C   UNL     1       4.115  14.084  21.393  0.00  0.00    +0.000 C 
ATOM      7  C   UNL     1       2.896  13.738  19.209  0.00  0.00    +0.000 A 
ATOM      8  C   UNL     1       1.698  13.532  18.531  0.00  0.00    +0.000 A 
ATOM      9  C   UNL     1       0.493  13.713  19.209  0.00  0.00    +0.000 A 
ATOM     10  N   UNL     1      -0.617  12.921  18.817  0.00  0.00    +0.000 NA
ATOM     11  C   UNL     1      -1.009  12.219  19.848  0.00  0.00    +0.000 C 
ATOM     12  C   UNL     1      -0.333  10.966  20.242  0.00  0.00    +0.000 A 
ATOM     13  C   UNL     1       0.592  10.208  19.544  0.00  0.00    +0.000 A 
ATOM     14  C   UNL     1       1.171   9.109  20.195  0.00  0.00    +0.000 A 
ATOM     15  C   UNL     1       0.806   8.773  21.511  0.00  0.00    +0.000 A 
ATOM     16  C   UNL     1      -0.045   9.603  22.234  0.00  0.00    +0.000 A 
ATOM     17  C   UNL     1      -0.547  10.720  21.591  0.00  0.00    +0.000 A 
ATOM     18  C   UNL     1      -1.194  11.865  22.211  0.00  0.00    +0.000 C 
ATOM     19  O   UNL     1      -1.260  11.988  23.422  0.00  0.00    +0.000 OA
ENDROOT
BRANCH   1  23
ATOM     20  C   UNL     1      -6.033  12.611  21.470  0.00  0.00    +0.000 A 
ATOM     21  C   UNL     1      -5.426  12.326  20.242  0.00  0.00    +0.000 A 
ATOM     22  C   UNL     1      -4.034  12.405  20.079  0.00  0.00    +0.000 A 
ATOM     23  C   UNL     1      -3.225  12.793  21.151  0.00  0.00    +0.000 A 
ATOM     24  C   UNL     1      -3.861  13.107  22.374  0.00  0.00    +0.000 A 
ATOM     25  C   UNL     1      -5.241  13.013  22.538  0.00  0.00    +0.000 A 
BRANCH  20  27
ATOM     26  C   UNL     1      -7.916  11.195  21.250  0.00  0.00    +0.000 C 
ATOM     27  O   UNL     1      -7.394  12.496  21.501  0.00  0.00    +0.000 OA
ENDBRANCH  20  27
ENDBRANCH   1  23
TORSDOF 2
ENDMDL
