MODEL 1
REMARK VINA RESULT:      -8.0      0.000      0.000
REMARK  Name = 
REMARK  4 active torsions:
REMARK  status: ('A' for Active; 'I' for Inactive)
REMARK    1  A    between atoms: C_1  and  C_2
REMARK    2  A    between atoms: C_2  and  C_3
REMARK    3  A    between atoms: C_2  and  N_4
REMARK    4  A    between atoms: C_5  and  C_7
REMARK                            x       y       z     vdW  Elec       q    Type
REMARK                         _______ _______ _______ _____ _____    ______ ____
ROOT
ATOM      1  C   UNL     1       7.322   6.122  17.711  0.00  0.00    +0.000 C 
ATOM      2  C   UNL     1       6.353   5.620  18.767  0.00  0.00    +0.000 C 
ATOM      3  C   UNL     1       4.923   5.644  18.297  0.00  0.00    +0.000 C 
ATOM      4  N   UNL     1       4.472   6.879  17.676  0.00  0.00    +0.000 N 
ATOM      5  C   UNL     1       3.241   7.530  17.880  0.00  0.00    +0.000 C 
ATOM      6  O   UNL     1       3.045   8.628  17.341  0.00  0.00    +0.000 OA
ATOM      7  N   UNL     1       2.309   7.027  18.784  0.00  0.00    +0.000 N 
ATOM      8  C   UNL     1       1.431   7.984  19.464  0.00  0.00    +0.000 C 
ATOM      9  C   UNL     1       1.479   7.754  20.970  0.00  0.00    +0.000 C 
ATOM     10  O   UNL     1       1.157   6.415  21.361  0.00  0.00    +0.000 OA
ATOM     11  C   UNL     1       1.625   5.448  20.512  0.00  0.00    +0.000 A 
ATOM     12  C   UNL     1       1.714   4.164  21.061  0.00  0.00    +0.000 A 
ATOM     13  C   UNL     1       2.243   3.119  20.305  0.00  0.00    +0.000 A 
ATOM     14  C   UNL     1       2.525   3.329  18.956  0.00  0.00    +0.000 A 
ATOM     15 CL   UNL     1       3.287   2.079  18.050  0.00  0.00    +0.000 Cl
ATOM     16  C   UNL     1       2.336   4.585  18.375  0.00  0.00    +0.000 A 
ATOM     17  C   UNL     1       2.058   5.683  19.193  0.00  0.00    +0.000 A 
ATOM     18  C   UNL     1       5.372   7.365  16.623  0.00  0.00    +0.000 C 
ATOM     19  C   UNL     1       6.830   7.435  17.098  0.00  0.00    +0.000 C 
ENDROOT
BRANCH   1  21
ATOM     20  N   UNL     1       7.175   5.429  15.401  0.00  0.00    +0.000 N 
ATOM     21  C   UNL     1       7.593   5.055  16.651  0.00  0.00    +0.000 C 
ATOM     22  O   UNL     1       8.123   3.982  16.895  0.00  0.00    +0.000 OA
ATOM     23  H   UNL     1       6.592   6.256  15.312  0.00  0.00    +0.000 HD
BRANCH  20  25
ATOM     24  C   UNL     1       5.972   3.988  13.852  0.00  0.00    +0.000 C 
ATOM     25  C   UNL     1       7.327   4.586  14.239  0.00  0.00    +0.000 C 
ATOM     26  C   UNL     1       7.926   5.387  13.092  0.00  0.00    +0.000 C 
ENDBRANCH  20  25
ENDBRANCH   1  21
TORSDOF 2
ENDMDL
MODEL 2
REMARK VINA RESULT:      -6.4      7.810     10.943
REMARK  Name = 
REMARK  4 active torsions:
REMARK  status: ('A' for Active; 'I' for Inactive)
REMARK    1  A    between atoms: C_1  and  C_2
REMARK    2  A    between atoms: C_2  and  C_3
REMARK    3  A    between atoms: C_2  and  N_4
REMARK    4  A    between atoms: C_5  and  C_7
REMARK                            x       y       z     vdW  Elec       q    Type
REMARK                         _______ _______ _______ _____ _____    ______ ____
ROOT
ATOM      1  C   UNL     1      -0.294  12.358  19.495  0.00  0.00    +0.000 C 
ATOM      2  C   UNL     1      -1.452  13.299  19.776  0.00  0.00    +0.000 C 
ATOM      3  C   UNL     1      -2.768  12.577  19.897  0.00  0.00    +0.000 C 
ATOM      4  N   UNL     1      -3.075  11.621  18.845  0.00  0.00    +0.000 N 
ATOM      5  C   UNL     1      -4.312  11.440  18.200  0.00  0.00    +0.000 C 
ATOM      6  O   UNL     1      -4.386  10.641  17.256  0.00  0.00    +0.000 OA
ATOM      7  N   UNL     1      -5.405  12.243  18.514  0.00  0.00    +0.000 N 
ATOM      8  C   UNL     1      -6.381  12.514  17.454  0.00  0.00    +0.000 C 
ATOM      9  C   UNL     1      -6.621  14.015  17.340  0.00  0.00    +0.000 C 
ATOM     10  O   UNL     1      -7.031  14.630  18.566  0.00  0.00    +0.000 OA
ATOM     11  C   UNL     1      -6.426  14.123  19.685  0.00  0.00    +0.000 A 
ATOM     12  C   UNL     1      -6.462  14.952  20.811  0.00  0.00    +0.000 A 
ATOM     13  C   UNL     1      -5.816  14.563  21.983  0.00  0.00    +0.000 A 
ATOM     14  C   UNL     1      -5.282  13.279  22.072  0.00  0.00    +0.000 A 
ATOM     15 CL   UNL     1      -4.382  12.835  23.472  0.00  0.00    +0.000 Cl
ATOM     16  C   UNL     1      -5.339  12.406  20.984  0.00  0.00    +0.000 A 
ATOM     17  C   UNL     1      -5.749  12.889  19.739  0.00  0.00    +0.000 A 
ATOM     18  C   UNL     1      -1.985  10.673  18.582  0.00  0.00    +0.000 C 
ATOM     19  C   UNL     1      -0.642  11.385  18.367  0.00  0.00    +0.000 C 
ENDROOT
BRANCH   1  21
ATOM     20  N   UNL     1       0.346  10.291  20.572  0.00  0.00    +0.000 N 
ATOM     21  C   UNL     1       0.156  11.634  20.764  0.00  0.00    +0.000 C 
ATOM     22  O   UNL     1       0.324  12.195  21.837  0.00  0.00    +0.000 OA
ATOM     23  H   UNL     1       0.021   9.875  19.704  0.00  0.00    +0.000 HD
BRANCH  20  25
ATOM     24  C   UNL     1      -0.425   9.017  22.496  0.00  0.00    +0.000 C 
ATOM     25  C   UNL     1       0.773   9.401  21.624  0.00  0.00    +0.000 C 
ATOM     26  C   UNL     1       1.439   8.171  21.026  0.00  0.00    +0.000 C 
ENDBRANCH  20  25
ENDBRANCH   1  21
TORSDOF 2
ENDMDL
MODEL 3
REMARK VINA RESULT:      -6.3      8.570     11.542
REMARK  Name = 
REMARK  4 active torsions:
REMARK  status: ('A' for Active; 'I' for Inactive)
REMARK    1  A    between atoms: C_1  and  C_2
REMARK    2  A    between atoms: C_2  and  C_3
REMARK    3  A    between atoms: C_2  and  N_4
REMARK    4  A    between atoms: C_5  and  C_7
REMARK                            x       y       z     vdW  Elec       q    Type
REMARK                         _______ _______ _______ _____ _____    ______ ____
ROOT
ATOM      1  C   UNL     1      -0.831  12.442  22.297  0.00  0.00    +0.000 C 
ATOM      2  C   UNL     1      -2.242  11.881  22.312  0.00  0.00    +0.000 C 
ATOM      3  C   UNL     1      -3.253  12.841  21.745  0.00  0.00    +0.000 C 
ATOM      4  N   UNL     1      -3.194  14.205  22.247  0.00  0.00    +0.000 N 
ATOM      5  C   UNL     1      -4.282  15.022  22.607  0.00  0.00    +0.000 C 
ATOM      6  O   UNL     1      -4.060  16.134  23.107  0.00  0.00    +0.000 OA
ATOM      7  N   UNL     1      -5.588  14.542  22.541  0.00  0.00    +0.000 N 
ATOM      8  C   UNL     1      -6.562  15.079  23.496  0.00  0.00    +0.000 C 
ATOM      9  C   UNL     1      -7.276  13.936  24.208  0.00  0.00    +0.000 C 
ATOM     10  O   UNL     1      -7.905  13.005  23.322  0.00  0.00    +0.000 OA
ATOM     11  C   UNL     1      -7.206  12.756  22.171  0.00  0.00    +0.000 A 
ATOM     12  C   UNL     1      -7.549  11.572  21.509  0.00  0.00    +0.000 A 
ATOM     13  C   UNL     1      -6.851  11.187  20.366  0.00  0.00    +0.000 A 
ATOM     14  C   UNL     1      -5.929  12.067  19.801  0.00  0.00    +0.000 A 
ATOM     15 CL   UNL     1      -4.982  11.550  18.460  0.00  0.00    +0.000 Cl
ATOM     16  C   UNL     1      -5.661  13.300  20.400  0.00  0.00    +0.000 A 
ATOM     17  C   UNL     1      -6.165  13.565  21.677  0.00  0.00    +0.000 A 
ATOM     18  C   UNL     1      -1.847  14.785  22.206  0.00  0.00    +0.000 C 
ATOM     19  C   UNL     1      -0.804  13.865  22.856  0.00  0.00    +0.000 C 
ENDROOT
BRANCH   1  21
ATOM     20  N   UNL     1      -0.540  11.200  20.245  0.00  0.00    +0.000 N 
ATOM     21  C   UNL     1      -0.212  12.356  20.902  0.00  0.00    +0.000 C 
ATOM     22  O   UNL     1       0.503  13.226  20.426  0.00  0.00    +0.000 OA
ATOM     23  H   UNL     1      -0.992  10.456  20.769  0.00  0.00    +0.000 HD
BRANCH  20  25
ATOM     24  C   UNL     1       1.081   9.895  18.984  0.00  0.00    +0.000 C 
ATOM     25  C   UNL     1      -0.075  10.896  18.913  0.00  0.00    +0.000 C 
ATOM     26  C   UNL     1      -1.222  10.356  18.072  0.00  0.00    +0.000 C 
ENDBRANCH  20  25
ENDBRANCH   1  21
TORSDOF 2
ENDMDL
MODEL 4
REMARK VINA RESULT:      -6.2      7.953     11.331
REMARK  Name = 
REMARK  4 active torsions:
REMARK  status: ('A' for Active; 'I' for Inactive)
REMARK    1  A    between atoms: C_1  and  C_2
REMARK    2  A    between atoms: C_2  and  C_3
REMARK    3  A    between atoms: C_2  and  N_4
REMARK    4  A    between atoms: C_5  and  C_7
REMARK                            x       y       z     vdW  Elec       q    Type
REMARK                         _______ _______ _______ _____ _____    ______ ____
ROOT
ATOM      1  C   UNL     1      -0.950  11.844  19.050  0.00  0.00    +0.000 C 
ATOM      2  C   UNL     1      -0.276  12.900  18.192  0.00  0.00    +0.000 C 
ATOM      3  C   UNL     1       0.125  14.118  18.981  0.00  0.00    +0.000 C 
ATOM      4  N   UNL     1      -0.893  14.681  19.853  0.00  0.00    +0.000 N 
ATOM      5  C   UNL     1      -1.195  16.043  20.034  0.00  0.00    +0.000 C 
ATOM      6  O   UNL     1      -2.157  16.357  20.748  0.00  0.00    +0.000 OA
ATOM      7  N   UNL     1      -0.520  17.025  19.312  0.00  0.00    +0.000 N 
ATOM      8  C   UNL     1      -1.246  18.259  18.994  0.00  0.00    +0.000 C 
ATOM      9  C   UNL     1      -1.143  18.551  17.501  0.00  0.00    +0.000 C 
ATOM     10  O   UNL     1       0.202  18.623  17.017  0.00  0.00    +0.000 OA
ATOM     11  C   UNL     1       1.061  17.725  17.593  0.00  0.00    +0.000 A 
ATOM     12  C   UNL     1       2.230  17.469  16.868  0.00  0.00    +0.000 A 
ATOM     13  C   UNL     1       3.140  16.519  17.330  0.00  0.00    +0.000 A 
ATOM     14  C   UNL     1       2.956  15.955  18.591  0.00  0.00    +0.000 A 
ATOM     15 CL   UNL     1       4.010  14.698  19.114  0.00  0.00    +0.000 Cl
ATOM     16  C   UNL     1       1.843  16.290  19.366  0.00  0.00    +0.000 A 
ATOM     17  C   UNL     1       0.809  17.035  18.794  0.00  0.00    +0.000 A 
ATOM     18  C   UNL     1      -1.532  13.686  20.723  0.00  0.00    +0.000 C 
ATOM     19  C   UNL     1      -2.031  12.467  19.934  0.00  0.00    +0.000 C 
ENDROOT
BRANCH   1  21
ATOM     20  N   UNL     1      -0.460  10.496  20.995  0.00  0.00    +0.000 N 
ATOM     21  C   UNL     1       0.074  11.050  19.861  0.00  0.00    +0.000 C 
ATOM     22  O   UNL     1       1.245  10.926  19.534  0.00  0.00    +0.000 OA
ATOM     23  H   UNL     1      -1.390  10.787  21.284  0.00  0.00    +0.000 HD
BRANCH  20  25
ATOM     24  C   UNL     1      -0.360   9.702  23.293  0.00  0.00    +0.000 C 
ATOM     25  C   UNL     1       0.312   9.701  21.918  0.00  0.00    +0.000 C 
ATOM     26  C   UNL     1       0.468   8.286  21.381  0.00  0.00    +0.000 C 
ENDBRANCH  20  25
ENDBRANCH   1  21
TORSDOF 2
ENDMDL
MODEL 5
REMARK VINA RESULT:      -6.2      8.826     11.687
REMARK  Name = 
REMARK  4 active torsions:
REMARK  status: ('A' for Active; 'I' for Inactive)
REMARK    1  A    between atoms: C_1  and  C_2
REMARK    2  A    between atoms: C_2  and  C_3
REMARK    3  A    between atoms: C_2  and  N_4
REMARK    4  A    between atoms: C_5  and  C_7
REMARK                            x       y       z     vdW  Elec       q    Type
REMARK                         _______ _______ _______ _____ _____    ______ ____
ROOT
ATOM      1  C   UNL     1       6.229  16.320  18.919  0.00  0.00    +0.000 C 
ATOM      2  C   UNL     1       6.842  14.941  18.750  0.00  0.00    +0.000 C 
ATOM      3  C   UNL     1       8.155  14.799  19.473  0.00  0.00    +0.000 C 
ATOM      4  N   UNL     1       9.123  15.864  19.260  0.00  0.00    +0.000 N 
ATOM      5  C   UNL     1      10.505  15.720  19.043  0.00  0.00    +0.000 C 
ATOM      6  O   UNL     1      11.182  16.726  18.787  0.00  0.00    +0.000 OA
ATOM      7  N   UNL     1      11.090  14.458  18.974  0.00  0.00    +0.000 N 
ATOM      8  C   UNL     1      12.272  14.299  18.121  0.00  0.00    +0.000 C 
ATOM      9  C   UNL     1      12.073  13.123  17.171  0.00  0.00    +0.000 C 
ATOM     10  O   UNL     1      11.763  11.892  17.832  0.00  0.00    +0.000 OA
ATOM     11  C   UNL     1      10.951  12.024  18.927  0.00  0.00    +0.000 A 
ATOM     12  C   UNL     1      10.291  10.857  19.324  0.00  0.00    +0.000 A 
ATOM     13  C   UNL     1       9.387  10.895  20.385  0.00  0.00    +0.000 A 
ATOM     14  C   UNL     1       9.275  12.060  21.142  0.00  0.00    +0.000 A 
ATOM     15 CL   UNL     1       8.077  12.151  22.376  0.00  0.00    +0.000 Cl
ATOM     16  C   UNL     1      10.015  13.198  20.814  0.00  0.00    +0.000 A 
ATOM     17  C   UNL     1      10.714  13.235  19.605  0.00  0.00    +0.000 A 
ATOM     18  C   UNL     1       8.565  17.207  19.456  0.00  0.00    +0.000 C 
ATOM     19  C   UNL     1       7.267  17.413  18.662  0.00  0.00    +0.000 C 
ENDROOT
BRANCH   1  21
ATOM     20  N   UNL     1       4.812  15.373  20.632  0.00  0.00    +0.000 N 
ATOM     21  C   UNL     1       5.558  16.468  20.284  0.00  0.00    +0.000 C 
ATOM     22  O   UNL     1       5.672  17.461  20.988  0.00  0.00    +0.000 OA
ATOM     23  H   UNL     1       4.627  14.668  19.924  0.00  0.00    +0.000 HD
BRANCH  20  25
ATOM     24  C   UNL     1       2.734  14.605  21.639  0.00  0.00    +0.000 C 
ATOM     25  C   UNL     1       4.087  15.281  21.876  0.00  0.00    +0.000 C 
ATOM     26  C   UNL     1       4.912  14.521  22.903  0.00  0.00    +0.000 C 
ENDBRANCH  20  25
ENDBRANCH   1  21
TORSDOF 2
ENDMDL
MODEL 6
REMARK VINA RESULT:      -6.1      9.894     11.933
REMARK  Name = 
REMARK  4 active torsions:
REMARK  status: ('A' for Active; 'I' for Inactive)
REMARK    1  A    between atoms: C_1  and  C_2
REMARK    2  A    between atoms: C_2  and  C_3
REMARK    3  A    between atoms: C_2  and  N_4
REMARK    4  A    between atoms: C_5  and  C_7
REMARK                            x       y       z     vdW  Elec       q    Type
REMARK                         _______ _______ _______ _____ _____    ______ ____
ROOT
ATOM      1  C   UNL     1      -5.957  13.033  19.071  0.00  0.00    +0.000 C 
ATOM      2  C   UNL     1      -4.652  13.620  19.581  0.00  0.00    +0.000 C 
ATOM      3  C   UNL     1      -4.112  12.878  20.774  0.00  0.00    +0.000 C 
ATOM      4  N   UNL     1      -5.057  12.615  21.848  0.00  0.00    +0.000 N 
ATOM      5  C   UNL     1      -4.825  12.742  23.229  0.00  0.00    +0.000 C 
ATOM      6  O   UNL     1      -5.766  12.566  24.016  0.00  0.00    +0.000 OA
ATOM      7  N   UNL     1      -3.599  13.197  23.709  0.00  0.00    +0.000 N 
ATOM      8  C   UNL     1      -3.594  13.941  24.973  0.00  0.00    +0.000 C 
ATOM      9  C   UNL     1      -2.845  15.257  24.798  0.00  0.00    +0.000 C 
ATOM     10  O   UNL     1      -1.511  15.103  24.302  0.00  0.00    +0.000 OA
ATOM     11  C   UNL     1      -1.363  14.109  23.371  0.00  0.00    +0.000 A 
ATOM     12  C   UNL     1      -0.222  14.209  22.568  0.00  0.00    +0.000 A 
ATOM     13  C   UNL     1      -0.010  13.289  21.543  0.00  0.00    +0.000 A 
ATOM     14  C   UNL     1      -0.852  12.184  21.434  0.00  0.00    +0.000 A 
ATOM     15 CL   UNL     1      -0.666  11.110  20.101  0.00  0.00    +0.000 Cl
ATOM     16  C   UNL     1      -1.933  12.023  22.304  0.00  0.00    +0.000 A 
ATOM     17  C   UNL     1      -2.292  13.073  23.153  0.00  0.00    +0.000 A 
ATOM     18  C   UNL     1      -6.312  12.010  21.385  0.00  0.00    +0.000 C 
ATOM     19  C   UNL     1      -6.935  12.795  20.222  0.00  0.00    +0.000 C 
ENDROOT
BRANCH   1  21
ATOM     20  N   UNL     1      -4.491  11.763  17.629  0.00  0.00    +0.000 N 
ATOM     21  C   UNL     1      -5.715  11.769  18.246  0.00  0.00    +0.000 C 
ATOM     22  O   UNL     1      -6.529  10.864  18.144  0.00  0.00    +0.000 OA
ATOM     23  H   UNL     1      -3.948  12.621  17.622  0.00  0.00    +0.000 HD
BRANCH  20  25
ATOM     24  C   UNL     1      -3.231  11.223  15.619  0.00  0.00    +0.000 C 
ATOM     25  C   UNL     1      -4.038  10.674  16.798  0.00  0.00    +0.000 C 
ATOM     26  C   UNL     1      -3.215   9.698  17.624  0.00  0.00    +0.000 C 
ENDBRANCH  20  25
ENDBRANCH   1  21
TORSDOF 2
ENDMDL
MODEL 7
REMARK VINA RESULT:      -6.1      5.358      8.024
REMARK  Name = 
REMARK  4 active torsions:
REMARK  status: ('A' for Active; 'I' for Inactive)
REMARK    1  A    between atoms: C_1  and  C_2
REMARK    2  A    between atoms: C_2  and  C_3
REMARK    3  A    between atoms: C_2  and  N_4
REMARK    4  A    between atoms: C_5  and  C_7
REMARK                            x       y       z     vdW  Elec       q    Type
REMARK                         _______ _______ _______ _____ _____    ______ ____
ROOT
ATOM      1  C   UNL     1       0.841   8.340  21.232  0.00  0.00    +0.000 C 
ATOM      2  C   UNL     1      -0.583   8.735  20.884  0.00  0.00    +0.000 C 
ATOM      3  C   UNL     1      -0.676  10.130  20.325  0.00  0.00    +0.000 C 
ATOM      4  N   UNL     1       0.019  11.167  21.072  0.00  0.00    +0.000 N 
ATOM      5  C   UNL     1      -0.455  12.458  21.369  0.00  0.00    +0.000 C 
ATOM      6  O   UNL     1       0.224  13.196  22.096  0.00  0.00    +0.000 OA
ATOM      7  N   UNL     1      -1.730  12.859  20.975  0.00  0.00    +0.000 N 
ATOM      8  C   UNL     1      -2.428  13.836  21.815  0.00  0.00    +0.000 C 
ATOM      9  C   UNL     1      -3.821  13.322  22.162  0.00  0.00    +0.000 C 
ATOM     10  O   UNL     1      -4.615  12.987  21.019  0.00  0.00    +0.000 OA
ATOM     11  C   UNL     1      -3.915  12.412  19.991  0.00  0.00    +0.000 A 
ATOM     12  C   UNL     1      -4.688  11.695  19.071  0.00  0.00    +0.000 A 
ATOM     13  C   UNL     1      -4.069  11.012  18.025  0.00  0.00    +0.000 A 
ATOM     14  C   UNL     1      -2.703  11.186  17.812  0.00  0.00    +0.000 A 
ATOM     15 CL   UNL     1      -1.914  10.255  16.597  0.00  0.00    +0.000 Cl
ATOM     16  C   UNL     1      -1.945  11.990  18.667  0.00  0.00    +0.000 A 
ATOM     17  C   UNL     1      -2.515  12.455  19.855  0.00  0.00    +0.000 A 
ATOM     18  C   UNL     1       1.411  10.826  21.388  0.00  0.00    +0.000 C 
ATOM     19  C   UNL     1       1.531   9.441  22.039  0.00  0.00    +0.000 C 
ENDROOT
BRANCH   1  21
ATOM     20  N   UNL     1       2.214   6.716  20.085  0.00  0.00    +0.000 N 
ATOM     21  C   UNL     1       1.634   7.953  19.984  0.00  0.00    +0.000 C 
ATOM     22  O   UNL     1       1.742   8.674  19.003  0.00  0.00    +0.000 OA
ATOM     23  H   UNL     1       2.222   6.257  20.991  0.00  0.00    +0.000 HD
BRANCH  20  25
ATOM     24  C   UNL     1       4.168   5.337  19.636  0.00  0.00    +0.000 C 
ATOM     25  C   UNL     1       3.011   6.135  19.031  0.00  0.00    +0.000 C 
ATOM     26  C   UNL     1       2.139   5.260  18.144  0.00  0.00    +0.000 C 
ENDBRANCH  20  25
ENDBRANCH   1  21
TORSDOF 2
ENDMDL
MODEL 8
REMARK VINA RESULT:      -6.1      7.933     11.911
REMARK  Name = 
REMARK  4 active torsions:
REMARK  status: ('A' for Active; 'I' for Inactive)
REMARK    1  A    between atoms: C_1  and  C_2
REMARK    2  A    between atoms: C_2  and  C_3
REMARK    3  A    between atoms: C_2  and  N_4
REMARK    4  A    between atoms: C_5  and  C_7
REMARK                            x       y       z     vdW  Elec       q    Type
REMARK                         _______ _______ _______ _____ _____    ______ ____
ROOT
ATOM      1  C   UNL     1      -2.628  12.958  23.697  0.00  0.00    +0.000 C 
ATOM      2  C   UNL     1      -1.928  12.030  22.720  0.00  0.00    +0.000 C 
ATOM      3  C   UNL     1      -2.016  12.514  21.298  0.00  0.00    +0.000 C 
ATOM      4  N   UNL     1      -3.337  12.909  20.835  0.00  0.00    +0.000 N 
ATOM      5  C   UNL     1      -3.922  12.614  19.590  0.00  0.00    +0.000 C 
ATOM      6  O   UNL     1      -5.097  12.947  19.383  0.00  0.00    +0.000 OA
ATOM      7  N   UNL     1      -3.249  11.834  18.653  0.00  0.00    +0.000 N 
ATOM      8  C   UNL     1      -4.054  11.008  17.747  0.00  0.00    +0.000 C 
ATOM      9  C   UNL     1      -3.554   9.568  17.775  0.00  0.00    +0.000 C 
ATOM     10  O   UNL     1      -2.162   9.433  17.471  0.00  0.00    +0.000 OA
ATOM     11  C   UNL     1      -1.372  10.435  17.970  0.00  0.00    +0.000 A 
ATOM     12  C   UNL     1      -0.011  10.127  18.072  0.00  0.00    +0.000 A 
ATOM     13  C   UNL     1       0.871  11.050  18.632  0.00  0.00    +0.000 A 
ATOM     14  C   UNL     1       0.415  12.333  18.931  0.00  0.00    +0.000 A 
ATOM     15 CL   UNL     1       1.468  13.436  19.730  0.00  0.00    +0.000 Cl
ATOM     16  C   UNL     1      -0.923  12.679  18.729  0.00  0.00    +0.000 A 
ATOM     17  C   UNL     1      -1.850  11.681  18.419  0.00  0.00    +0.000 A 
ATOM     18  C   UNL     1      -4.020  13.839  21.743  0.00  0.00    +0.000 C 
ATOM     19  C   UNL     1      -4.022  13.331  23.192  0.00  0.00    +0.000 C 
ENDROOT
BRANCH   1  21
ATOM     20  N   UNL     1      -2.431  15.109  24.781  0.00  0.00    +0.000 N 
ATOM     21  C   UNL     1      -1.776  14.189  24.005  0.00  0.00    +0.000 C 
ATOM     22  O   UNL     1      -0.633  14.337  23.597  0.00  0.00    +0.000 OA
ATOM     23  H   UNL     1      -3.428  14.992  24.932  0.00  0.00    +0.000 HD
BRANCH  20  25
ATOM     24  C   UNL     1      -2.907  17.426  25.353  0.00  0.00    +0.000 C 
ATOM     25  C   UNL     1      -1.828  16.350  25.202  0.00  0.00    +0.000 C 
ATOM     26  C   UNL     1      -1.068  16.144  26.503  0.00  0.00    +0.000 C 
ENDBRANCH  20  25
ENDBRANCH   1  21
TORSDOF 2
ENDMDL
MODEL 9
REMARK VINA RESULT:      -6.1      8.998     12.350
REMARK  Name = 
REMARK  4 active torsions:
REMARK  status: ('A' for Active; 'I' for Inactive)
REMARK    1  A    between atoms: C_1  and  C_2
REMARK    2  A    between atoms: C_2  and  C_3
REMARK    3  A    between atoms: C_2  and  N_4
REMARK    4  A    between atoms: C_5  and  C_7
REMARK                            x       y       z     vdW  Elec       q    Type
REMARK                         _______ _______ _______ _____ _____    ______ ____
ROOT
ATOM      1  C   UNL     1      -5.766  12.091  18.325  0.00  0.00    +0.000 C 
ATOM      2  C   UNL     1      -4.927  13.034  19.169  0.00  0.00    +0.000 C 
ATOM      3  C   UNL     1      -4.920  12.654  20.626  0.00  0.00    +0.000 C 
ATOM      4  N   UNL     1      -6.218  12.383  21.224  0.00  0.00    +0.000 N 
ATOM      5  C   UNL     1      -6.672  12.802  22.488  0.00  0.00    +0.000 C 
ATOM      6  O   UNL     1      -7.842  12.564  22.816  0.00  0.00    +0.000 OA
ATOM      7  N   UNL     1      -5.872  13.596  23.307  0.00  0.00    +0.000 N 
ATOM      8  C   UNL     1      -6.541  14.534  24.213  0.00  0.00    +0.000 C 
ATOM      9  C   UNL     1      -5.957  15.931  24.038  0.00  0.00    +0.000 C 
ATOM     10  O   UNL     1      -4.538  15.992  24.214  0.00  0.00    +0.000 OA
ATOM     11  C   UNL     1      -3.859  14.906  23.727  0.00  0.00    +0.000 A 
ATOM     12  C   UNL     1      -2.496  15.113  23.490  0.00  0.00    +0.000 A 
ATOM     13  C   UNL     1      -1.726  14.096  22.928  0.00  0.00    +0.000 A 
ATOM     14  C   UNL     1      -2.285  12.830  22.763  0.00  0.00    +0.000 A 
ATOM     15 CL   UNL     1      -1.376  11.605  21.963  0.00  0.00    +0.000 Cl
ATOM     16  C   UNL     1      -3.619  12.590  23.100  0.00  0.00    +0.000 A 
ATOM     17  C   UNL     1      -4.451  13.668  23.412  0.00  0.00    +0.000 A 
ATOM     18  C   UNL     1      -7.034  11.442  20.447  0.00  0.00    +0.000 C 
ATOM     19  C   UNL     1      -7.132  11.849  18.970  0.00  0.00    +0.000 C 
ENDROOT
BRANCH   1  21
ATOM     20  N   UNL     1      -3.849  10.982  17.360  0.00  0.00    +0.000 N 
ATOM     21  C   UNL     1      -5.022  10.786  18.039  0.00  0.00    +0.000 C 
ATOM     22  O   UNL     1      -5.434   9.687  18.377  0.00  0.00    +0.000 OA
ATOM     23  H   UNL     1      -3.664  11.899  16.966  0.00  0.00    +0.000 HD
BRANCH  20  25
ATOM     24  C   UNL     1      -2.897   9.806  15.454  0.00  0.00    +0.000 C 
ATOM     25  C   UNL     1      -2.974   9.899  16.980  0.00  0.00    +0.000 C 
ATOM     26  C   UNL     1      -1.596  10.106  17.591  0.00  0.00    +0.000 C 
ENDBRANCH  20  25
ENDBRANCH   1  21
TORSDOF 2
ENDMDL
