MODEL 1
REMARK VINA RESULT:      -6.9      0.000      0.000
REMARK  Name = 
REMARK  5 active torsions:
REMARK  status: ('A' for Active; 'I' for Inactive)
REMARK    1  A    between atoms: C_1  and  C_2
REMARK    2  A    between atoms: C_2  and  N_3
REMARK    3  A    between atoms: N_6  and  C_7
REMARK    4  A    between atoms: C_7  and  C_8
REMARK    5  A    between atoms: C_11  and  C_12
REMARK                            x       y       z     vdW  Elec       q    Type
REMARK                         _______ _______ _______ _____ _____    ______ ____
ROOT
ATOM      1  N   UNL     1       3.217   4.236  19.565  0.00  0.00    +0.000 N 
ATOM      2  C   UNL     1       4.528   3.747  19.377  0.00  0.00    +0.000 A 
ATOM      3  O   UNL     1       4.996   2.707  19.808  0.00  0.00    +0.000 OA
ATOM      4  N   UNL     1       5.205   4.708  18.598  0.00  0.00    +0.000 N 
ATOM      5  C   UNL     1       4.330   5.768  18.329  0.00  0.00    +0.000 A 
ATOM      6  C   UNL     1       4.543   6.933  17.619  0.00  0.00    +0.000 A 
ATOM      7  C   UNL     1       3.469   7.818  17.506  0.00  0.00    +0.000 A 
ATOM      8  C   UNL     1       2.225   7.525  18.098  0.00  0.00    +0.000 A 
ATOM      9  C   UNL     1       2.028   6.342  18.822  0.00  0.00    +0.000 A 
ATOM     10  C   UNL     1       3.102   5.479  18.926  0.00  0.00    +0.000 A 
ENDROOT
BRANCH   1  12
ATOM     11  C   UNL     1       1.341   2.655  19.631  0.00  0.00    +0.000 C 
ATOM     12  C   UNL     1       2.228   3.615  20.408  0.00  0.00    +0.000 C 
ENDBRANCH   1  12
BRANCH   4  13
ATOM     13  C   UNL     1       6.570   4.606  18.157  0.00  0.00    +0.000 C 
BRANCH  13  14
ATOM     14  C   UNL     1       6.653   4.615  16.666  0.00  0.00    +0.000 A 
ATOM     15  C   UNL     1       7.437   5.386  15.832  0.00  0.00    +0.000 A 
ATOM     16  N   UNL     1       7.295   5.145  14.477  0.00  0.00    +0.000 NA
ATOM     17  C   UNL     1       6.403   4.197  14.288  0.00  0.00    +0.000 A 
ATOM     18  C   UNL     1       5.967   3.701  12.953  0.00  0.00    +0.000 C 
ATOM     19  S   UNL     1       5.722   3.526  15.716  0.00  0.00    +0.000 S 
ENDBRANCH  13  14
ENDBRANCH   4  13
TORSDOF 3
ENDMDL
MODEL 2
REMARK VINA RESULT:      -6.6      1.477      3.090
REMARK  Name = 
REMARK  5 active torsions:
REMARK  status: ('A' for Active; 'I' for Inactive)
REMARK    1  A    between atoms: C_1  and  C_2
REMARK    2  A    between atoms: C_2  and  N_3
REMARK    3  A    between atoms: N_6  and  C_7
REMARK    4  A    between atoms: C_7  and  C_8
REMARK    5  A    between atoms: C_11  and  C_12
REMARK                            x       y       z     vdW  Elec       q    Type
REMARK                         _______ _______ _______ _____ _____    ______ ____
ROOT
ATOM      1  N   UNL     1       2.813   6.329  18.555  0.00  0.00    +0.000 N 
ATOM      2  C   UNL     1       4.145   6.297  18.084  0.00  0.00    +0.000 A 
ATOM      3  O   UNL     1       4.700   7.131  17.388  0.00  0.00    +0.000 OA
ATOM      4  N   UNL     1       4.711   5.100  18.567  0.00  0.00    +0.000 N 
ATOM      5  C   UNL     1       3.743   4.407  19.303  0.00  0.00    +0.000 A 
ATOM      6  C   UNL     1       3.827   3.192  19.953  0.00  0.00    +0.000 A 
ATOM      7  C   UNL     1       2.687   2.745  20.624  0.00  0.00    +0.000 A 
ATOM      8  C   UNL     1       1.504   3.510  20.628  0.00  0.00    +0.000 A 
ATOM      9  C   UNL     1       1.433   4.738  19.957  0.00  0.00    +0.000 A 
ATOM     10  C   UNL     1       2.569   5.163  19.297  0.00  0.00    +0.000 A 
ENDROOT
BRANCH   1  12
ATOM     11  C   UNL     1       1.873   8.520  19.132  0.00  0.00    +0.000 C 
ATOM     12  C   UNL     1       1.842   7.326  18.190  0.00  0.00    +0.000 C 
ENDBRANCH   1  12
BRANCH   4  13
ATOM     13  C   UNL     1       6.064   4.670  18.334  0.00  0.00    +0.000 C 
BRANCH  13  14
ATOM     14  C   UNL     1       6.376   4.657  16.874  0.00  0.00    +0.000 A 
ATOM     15  C   UNL     1       7.325   5.371  16.168  0.00  0.00    +0.000 A 
ATOM     16  N   UNL     1       7.379   5.123  14.809  0.00  0.00    +0.000 NA
ATOM     17  C   UNL     1       6.472   4.227  14.486  0.00  0.00    +0.000 A 
ATOM     18  C   UNL     1       6.220   3.741  13.101  0.00  0.00    +0.000 C 
ATOM     19  S   UNL     1       5.541   3.614  15.793  0.00  0.00    +0.000 S 
ENDBRANCH  13  14
ENDBRANCH   4  13
TORSDOF 3
ENDMDL
MODEL 3
REMARK VINA RESULT:      -6.6      1.654      3.033
REMARK  Name = 
REMARK  5 active torsions:
REMARK  status: ('A' for Active; 'I' for Inactive)
REMARK    1  A    between atoms: C_1  and  C_2
REMARK    2  A    between atoms: C_2  and  N_3
REMARK    3  A    between atoms: N_6  and  C_7
REMARK    4  A    between atoms: C_7  and  C_8
REMARK    5  A    between atoms: C_11  and  C_12
REMARK                            x       y       z     vdW  Elec       q    Type
REMARK                         _______ _______ _______ _____ _____    ______ ____
ROOT
ATOM      1  N   UNL     1       3.051   6.103  18.154  0.00  0.00    +0.000 N 
ATOM      2  C   UNL     1       4.435   6.141  17.877  0.00  0.00    +0.000 A 
ATOM      3  O   UNL     1       5.127   7.132  17.713  0.00  0.00    +0.000 OA
ATOM      4  N   UNL     1       4.867   4.800  17.813  0.00  0.00    +0.000 N 
ATOM      5  C   UNL     1       3.767   3.961  18.030  0.00  0.00    +0.000 A 
ATOM      6  C   UNL     1       3.696   2.582  18.050  0.00  0.00    +0.000 A 
ATOM      7  C   UNL     1       2.448   2.010  18.304  0.00  0.00    +0.000 A 
ATOM      8  C   UNL     1       1.315   2.816  18.526  0.00  0.00    +0.000 A 
ATOM      9  C   UNL     1       1.402   4.214  18.494  0.00  0.00    +0.000 A 
ATOM     10  C   UNL     1       2.644   4.763  18.240  0.00  0.00    +0.000 A 
ENDROOT
BRANCH   1  12
ATOM     11  C   UNL     1       2.011   7.796  19.593  0.00  0.00    +0.000 C 
ATOM     12  C   UNL     1       2.192   7.259  18.182  0.00  0.00    +0.000 C 
ENDBRANCH   1  12
BRANCH   4  13
ATOM     13  C   UNL     1       6.218   4.376  17.564  0.00  0.00    +0.000 C 
BRANCH  13  14
ATOM     14  C   UNL     1       6.563   4.511  16.118  0.00  0.00    +0.000 A 
ATOM     15  C   UNL     1       7.466   5.354  15.502  0.00  0.00    +0.000 A 
ATOM     16  N   UNL     1       7.571   5.227  14.129  0.00  0.00    +0.000 NA
ATOM     17  C   UNL     1       6.746   4.294  13.706  0.00  0.00    +0.000 A 
ATOM     18  C   UNL     1       6.564   3.909  12.279  0.00  0.00    +0.000 C 
ATOM     19  S   UNL     1       5.838   3.501  14.931  0.00  0.00    +0.000 S 
ENDBRANCH  13  14
ENDBRANCH   4  13
TORSDOF 3
ENDMDL
MODEL 4
REMARK VINA RESULT:      -6.4      2.301      2.914
REMARK  Name = 
REMARK  5 active torsions:
REMARK  status: ('A' for Active; 'I' for Inactive)
REMARK    1  A    between atoms: C_1  and  C_2
REMARK    2  A    between atoms: C_2  and  N_3
REMARK    3  A    between atoms: N_6  and  C_7
REMARK    4  A    between atoms: C_7  and  C_8
REMARK    5  A    between atoms: C_11  and  C_12
REMARK                            x       y       z     vdW  Elec       q    Type
REMARK                         _______ _______ _______ _____ _____    ______ ____
ROOT
ATOM      1  N   UNL     1       3.129   3.587  20.502  0.00  0.00    +0.000 N 
ATOM      2  C   UNL     1       4.164   3.250  19.603  0.00  0.00    +0.000 A 
ATOM      3  O   UNL     1       4.791   2.204  19.560  0.00  0.00    +0.000 OA
ATOM      4  N   UNL     1       4.346   4.368  18.765  0.00  0.00    +0.000 N 
ATOM      5  C   UNL     1       3.452   5.374  19.153  0.00  0.00    +0.000 A 
ATOM      6  C   UNL     1       3.270   6.642  18.639  0.00  0.00    +0.000 A 
ATOM      7  C   UNL     1       2.284   7.435  19.230  0.00  0.00    +0.000 A 
ATOM      8  C   UNL     1       1.516   6.951  20.307  0.00  0.00    +0.000 A 
ATOM      9  C   UNL     1       1.719   5.665  20.822  0.00  0.00    +0.000 A 
ATOM     10  C   UNL     1       2.700   4.895  20.226  0.00  0.00    +0.000 A 
ENDROOT
BRANCH   1  12
ATOM     11  C   UNL     1       1.213   2.496  21.579  0.00  0.00    +0.000 C 
ATOM     12  C   UNL     1       2.709   2.768  21.609  0.00  0.00    +0.000 C 
ENDBRANCH   1  12
BRANCH   4  13
ATOM     13  C   UNL     1       5.298   4.452  17.690  0.00  0.00    +0.000 C 
BRANCH  13  14
ATOM     14  C   UNL     1       6.319   5.506  17.961  0.00  0.00    +0.000 A 
ATOM     15  C   UNL     1       7.372   5.505  18.855  0.00  0.00    +0.000 A 
ATOM     16  N   UNL     1       8.161   6.641  18.860  0.00  0.00    +0.000 NA
ATOM     17  C   UNL     1       7.704   7.501  17.975  0.00  0.00    +0.000 A 
ATOM     18  C   UNL     1       8.285   8.850  17.730  0.00  0.00    +0.000 C 
ATOM     19  S   UNL     1       6.339   6.978  17.073  0.00  0.00    +0.000 S 
ENDBRANCH  13  14
ENDBRANCH   4  13
TORSDOF 3
ENDMDL
MODEL 5
REMARK VINA RESULT:      -6.3      2.244      2.908
REMARK  Name = 
REMARK  5 active torsions:
REMARK  status: ('A' for Active; 'I' for Inactive)
REMARK    1  A    between atoms: C_1  and  C_2
REMARK    2  A    between atoms: C_2  and  N_3
REMARK    3  A    between atoms: N_6  and  C_7
REMARK    4  A    between atoms: C_7  and  C_8
REMARK    5  A    between atoms: C_11  and  C_12
REMARK                            x       y       z     vdW  Elec       q    Type
REMARK                         _______ _______ _______ _____ _____    ______ ____
ROOT
ATOM      1  N   UNL     1       2.155   3.405  19.576  0.00  0.00    +0.000 N 
ATOM      2  C   UNL     1       3.039   3.147  18.506  0.00  0.00    +0.000 A 
ATOM      3  O   UNL     1       3.392   2.057  18.088  0.00  0.00    +0.000 OA
ATOM      4  N   UNL     1       3.450   4.403  18.015  0.00  0.00    +0.000 N 
ATOM      5  C   UNL     1       2.842   5.407  18.779  0.00  0.00    +0.000 A 
ATOM      6  C   UNL     1       2.949   6.780  18.682  0.00  0.00    +0.000 A 
ATOM      7  C   UNL     1       2.210   7.544  19.587  0.00  0.00    +0.000 A 
ATOM      8  C   UNL     1       1.394   6.929  20.556  0.00  0.00    +0.000 A 
ATOM      9  C   UNL     1       1.303   5.534  20.647  0.00  0.00    +0.000 A 
ATOM     10  C   UNL     1       2.042   4.793  19.745  0.00  0.00    +0.000 A 
ENDROOT
BRANCH   1  12
ATOM     11  C   UNL     1       2.230   2.413  21.820  0.00  0.00    +0.000 C 
ATOM     12  C   UNL     1       1.597   2.393  20.436  0.00  0.00    +0.000 C 
ENDBRANCH   1  12
BRANCH   4  13
ATOM     13  C   UNL     1       4.347   4.608  16.910  0.00  0.00    +0.000 C 
BRANCH  13  14
ATOM     14  C   UNL     1       5.577   5.332  17.348  0.00  0.00    +0.000 A 
ATOM     15  C   UNL     1       6.651   4.877  18.087  0.00  0.00    +0.000 A 
ATOM     16  N   UNL     1       7.657   5.797  18.318  0.00  0.00    +0.000 NA
ATOM     17  C   UNL     1       7.344   6.946  17.758  0.00  0.00    +0.000 A 
ATOM     18  C   UNL     1       8.178   8.177  17.831  0.00  0.00    +0.000 C 
ATOM     19  S   UNL     1       5.855   6.968  16.901  0.00  0.00    +0.000 S 
ENDBRANCH  13  14
ENDBRANCH   4  13
TORSDOF 3
ENDMDL
MODEL 6
REMARK VINA RESULT:      -6.3      0.957      1.053
REMARK  Name = 
REMARK  5 active torsions:
REMARK  status: ('A' for Active; 'I' for Inactive)
REMARK    1  A    between atoms: C_1  and  C_2
REMARK    2  A    between atoms: C_2  and  N_3
REMARK    3  A    between atoms: N_6  and  C_7
REMARK    4  A    between atoms: C_7  and  C_8
REMARK    5  A    between atoms: C_11  and  C_12
REMARK                            x       y       z     vdW  Elec       q    Type
REMARK                         _______ _______ _______ _____ _____    ______ ____
ROOT
ATOM      1  N   UNL     1       3.230   4.274  19.689  0.00  0.00    +0.000 N 
ATOM      2  C   UNL     1       4.510   3.752  19.402  0.00  0.00    +0.000 A 
ATOM      3  O   UNL     1       4.987   2.705  19.809  0.00  0.00    +0.000 OA
ATOM      4  N   UNL     1       5.144   4.686  18.557  0.00  0.00    +0.000 N 
ATOM      5  C   UNL     1       4.276   5.764  18.345  0.00  0.00    +0.000 A 
ATOM      6  C   UNL     1       4.458   6.915  17.604  0.00  0.00    +0.000 A 
ATOM      7  C   UNL     1       3.399   7.825  17.566  0.00  0.00    +0.000 A 
ATOM      8  C   UNL     1       2.201   7.570  18.261  0.00  0.00    +0.000 A 
ATOM      9  C   UNL     1       2.035   6.401  19.015  0.00  0.00    +0.000 A 
ATOM     10  C   UNL     1       3.093   5.513  19.043  0.00  0.00    +0.000 A 
ENDROOT
BRANCH   1  12
ATOM     11  C   UNL     1       1.147   2.996  19.905  0.00  0.00    +0.000 C 
ATOM     12  C   UNL     1       2.299   3.689  20.618  0.00  0.00    +0.000 C 
ENDBRANCH   1  12
BRANCH   4  13
ATOM     13  C   UNL     1       6.466   4.545  18.010  0.00  0.00    +0.000 C 
BRANCH  13  14
ATOM     14  C   UNL     1       6.415   4.379  16.527  0.00  0.00    +0.000 A 
ATOM     15  C   UNL     1       5.590   3.584  15.756  0.00  0.00    +0.000 A 
ATOM     16  N   UNL     1       5.781   3.664  14.389  0.00  0.00    +0.000 NA
ATOM     17  C   UNL     1       6.750   4.514  14.126  0.00  0.00    +0.000 A 
ATOM     18  C   UNL     1       7.253   4.826  12.759  0.00  0.00    +0.000 C 
ATOM     19  S   UNL     1       7.450   5.283  15.493  0.00  0.00    +0.000 S 
ENDBRANCH  13  14
ENDBRANCH   4  13
TORSDOF 3
ENDMDL
MODEL 7
REMARK VINA RESULT:      -6.2      1.708      3.282
REMARK  Name = 
REMARK  5 active torsions:
REMARK  status: ('A' for Active; 'I' for Inactive)
REMARK    1  A    between atoms: C_1  and  C_2
REMARK    2  A    between atoms: C_2  and  N_3
REMARK    3  A    between atoms: N_6  and  C_7
REMARK    4  A    between atoms: C_7  and  C_8
REMARK    5  A    between atoms: C_11  and  C_12
REMARK                            x       y       z     vdW  Elec       q    Type
REMARK                         _______ _______ _______ _____ _____    ______ ____
ROOT
ATOM      1  N   UNL     1       2.977   6.365  19.267  0.00  0.00    +0.000 N 
ATOM      2  C   UNL     1       4.234   6.146  18.663  0.00  0.00    +0.000 A 
ATOM      3  O   UNL     1       4.942   6.974  18.115  0.00  0.00    +0.000 OA
ATOM      4  N   UNL     1       4.512   4.771  18.805  0.00  0.00    +0.000 N 
ATOM      5  C   UNL     1       3.440   4.160  19.468  0.00  0.00    +0.000 A 
ATOM      6  C   UNL     1       3.255   2.838  19.819  0.00  0.00    +0.000 A 
ATOM      7  C   UNL     1       2.074   2.514  20.491  0.00  0.00    +0.000 A 
ATOM      8  C   UNL     1       1.118   3.504  20.790  0.00  0.00    +0.000 A 
ATOM      9  C   UNL     1       1.318   4.840  20.419  0.00  0.00    +0.000 A 
ATOM     10  C   UNL     1       2.490   5.142  19.754  0.00  0.00    +0.000 A 
ENDROOT
BRANCH   1  12
ATOM     11  C   UNL     1       2.011   8.091  17.814  0.00  0.00    +0.000 C 
ATOM     12  C   UNL     1       2.263   7.615  19.237  0.00  0.00    +0.000 C 
ENDBRANCH   1  12
BRANCH   4  13
ATOM     13  C   UNL     1       5.704   4.114  18.341  0.00  0.00    +0.000 C 
BRANCH  13  14
ATOM     14  C   UNL     1       5.848   4.251  16.861  0.00  0.00    +0.000 A 
ATOM     15  C   UNL     1       4.930   4.007  15.860  0.00  0.00    +0.000 A 
ATOM     16  N   UNL     1       5.366   4.247  14.569  0.00  0.00    +0.000 NA
ATOM     17  C   UNL     1       6.612   4.667  14.594  0.00  0.00    +0.000 A 
ATOM     18  C   UNL     1       7.419   4.989  13.385  0.00  0.00    +0.000 C 
ATOM     19  S   UNL     1       7.305   4.831  16.158  0.00  0.00    +0.000 S 
ENDBRANCH  13  14
ENDBRANCH   4  13
TORSDOF 3
ENDMDL
MODEL 8
REMARK VINA RESULT:      -6.1      2.327      5.796
REMARK  Name = 
REMARK  5 active torsions:
REMARK  status: ('A' for Active; 'I' for Inactive)
REMARK    1  A    between atoms: C_1  and  C_2
REMARK    2  A    between atoms: C_2  and  N_3
REMARK    3  A    between atoms: N_6  and  C_7
REMARK    4  A    between atoms: C_7  and  C_8
REMARK    5  A    between atoms: C_11  and  C_12
REMARK                            x       y       z     vdW  Elec       q    Type
REMARK                         _______ _______ _______ _____ _____    ______ ____
ROOT
ATOM      1  N   UNL     1       6.496   5.898  17.540  0.00  0.00    +0.000 N 
ATOM      2  C   UNL     1       5.221   5.693  18.114  0.00  0.00    +0.000 A 
ATOM      3  O   UNL     1       4.846   6.043  19.220  0.00  0.00    +0.000 OA
ATOM      4  N   UNL     1       4.462   4.988  17.158  0.00  0.00    +0.000 N 
ATOM      5  C   UNL     1       5.259   4.753  16.031  0.00  0.00    +0.000 A 
ATOM      6  C   UNL     1       4.958   4.096  14.855  0.00  0.00    +0.000 A 
ATOM      7  C   UNL     1       5.964   4.022  13.889  0.00  0.00    +0.000 A 
ATOM      8  C   UNL     1       7.230   4.595  14.117  0.00  0.00    +0.000 A 
ATOM      9  C   UNL     1       7.522   5.251  15.320  0.00  0.00    +0.000 A 
ATOM     10  C   UNL     1       6.516   5.314  16.265  0.00  0.00    +0.000 A 
ENDROOT
BRANCH   1  12
ATOM     11  C   UNL     1       7.855   7.922  17.820  0.00  0.00    +0.000 C 
ATOM     12  C   UNL     1       7.618   6.477  18.232  0.00  0.00    +0.000 C 
ENDBRANCH   1  12
BRANCH   4  13
ATOM     13  C   UNL     1       3.092   4.581  17.324  0.00  0.00    +0.000 C 
BRANCH  13  14
ATOM     14  C   UNL     1       2.924   3.766  18.563  0.00  0.00    +0.000 A 
ATOM     15  C   UNL     1       3.628   2.658  18.992  0.00  0.00    +0.000 A 
ATOM     16  N   UNL     1       3.237   2.129  20.209  0.00  0.00    +0.000 NA
ATOM     17  C   UNL     1       2.237   2.831  20.696  0.00  0.00    +0.000 A 
ATOM     18  C   UNL     1       1.537   2.529  21.975  0.00  0.00    +0.000 C 
ATOM     19  S   UNL     1       1.744   4.174  19.745  0.00  0.00    +0.000 S 
ENDBRANCH  13  14
ENDBRANCH   4  13
TORSDOF 3
ENDMDL
MODEL 9
REMARK VINA RESULT:      -6.1      1.940      2.765
REMARK  Name = 
REMARK  5 active torsions:
REMARK  status: ('A' for Active; 'I' for Inactive)
REMARK    1  A    between atoms: C_1  and  C_2
REMARK    2  A    between atoms: C_2  and  N_3
REMARK    3  A    between atoms: N_6  and  C_7
REMARK    4  A    between atoms: C_7  and  C_8
REMARK    5  A    between atoms: C_11  and  C_12
REMARK                            x       y       z     vdW  Elec       q    Type
REMARK                         _______ _______ _______ _____ _____    ______ ____
ROOT
ATOM      1  N   UNL     1       1.774   3.684  19.761  0.00  0.00    +0.000 N 
ATOM      2  C   UNL     1       2.532   3.158  18.691  0.00  0.00    +0.000 A 
ATOM      3  O   UNL     1       2.712   1.982  18.424  0.00  0.00    +0.000 OA
ATOM      4  N   UNL     1       3.056   4.265  17.992  0.00  0.00    +0.000 N 
ATOM      5  C   UNL     1       2.641   5.440  18.629  0.00  0.00    +0.000 A 
ATOM      6  C   UNL     1       2.911   6.758  18.319  0.00  0.00    +0.000 A 
ATOM      7  C   UNL     1       2.347   7.737  19.140  0.00  0.00    +0.000 A 
ATOM      8  C   UNL     1       1.539   7.382  20.238  0.00  0.00    +0.000 A 
ATOM      9  C   UNL     1       1.282   6.039  20.544  0.00  0.00    +0.000 A 
ATOM     10  C   UNL     1       1.849   5.085  19.723  0.00  0.00    +0.000 A 
ENDROOT
BRANCH   1  12
ATOM     11  C   UNL     1       2.134   2.594  21.930  0.00  0.00    +0.000 C 
ATOM     12  C   UNL     1       1.164   2.890  20.796  0.00  0.00    +0.000 C 
ENDBRANCH   1  12
BRANCH   4  13
ATOM     13  C   UNL     1       3.882   4.186  16.817  0.00  0.00    +0.000 C 
BRANCH  13  14
ATOM     14  C   UNL     1       5.314   4.442  17.153  0.00  0.00    +0.000 A 
ATOM     15  C   UNL     1       6.431   4.398  16.342  0.00  0.00    +0.000 A 
ATOM     16  N   UNL     1       7.633   4.704  16.954  0.00  0.00    +0.000 NA
ATOM     17  C   UNL     1       7.427   4.974  18.225  0.00  0.00    +0.000 A 
ATOM     18  C   UNL     1       8.499   5.312  19.201  0.00  0.00    +0.000 C 
ATOM     19  S   UNL     1       5.788   4.913  18.737  0.00  0.00    +0.000 S 
ENDBRANCH  13  14
ENDBRANCH   4  13
TORSDOF 3
ENDMDL
