MODEL 1
REMARK VINA RESULT:      -5.2      0.000      0.000
REMARK  Name = 
REMARK  3 active torsions:
REMARK  status: ('A' for Active; 'I' for Inactive)
REMARK    1  A    between atoms: C_1  and  C_2
REMARK    2  A    between atoms: C_2  and  N_3
REMARK    3  A    between atoms: C_6  and  C_7
REMARK                            x       y       z     vdW  Elec       q    Type
REMARK                         _______ _______ _______ _____ _____    ______ ____
ROOT
ATOM      1  N   UNL     1       4.038   4.847  18.424  0.00  0.00    +0.000 NA
ATOM      2  C   UNL     1       5.290   4.299  18.974  0.00  0.00    +0.000 C 
ATOM      3  C   UNL     1       6.357   5.374  19.186  0.00  0.00    +0.000 C 
ATOM      4  C   UNL     1       6.658   6.113  17.880  0.00  0.00    +0.000 C 
ATOM      5  C   UNL     1       5.350   6.681  17.329  0.00  0.00    +0.000 C 
ATOM      6  C   UNL     1       4.265   5.609  17.185  0.00  0.00    +0.000 C 
ENDROOT
BRANCH   4   7
ATOM      7  C   UNL     1       7.363   5.211  16.868  0.00  0.00    +0.000 C 
ATOM      8  N   UNL     1       7.209   5.578  15.561  0.00  0.00    +0.000 N 
ATOM      9  O   UNL     1       8.019   4.219  17.149  0.00  0.00    +0.000 OA
ATOM     10  H   UNL     1       6.512   6.246  15.262  0.00  0.00    +0.000 HD
ATOM     11  H   UNL     1       7.616   4.964  14.866  0.00  0.00    +0.000 HD
ENDBRANCH   4   7
BRANCH   1  13
ATOM     12  C   UNL     1       1.705   4.161  17.728  0.00  0.00    +0.000 C 
ATOM     13  C   UNL     1       3.088   3.735  18.208  0.00  0.00    +0.000 C 
ENDBRANCH   1  13
TORSDOF 2
ENDMDL
MODEL 2
REMARK VINA RESULT:      -5.2      2.087      3.888
REMARK  Name = 
REMARK  3 active torsions:
REMARK  status: ('A' for Active; 'I' for Inactive)
REMARK    1  A    between atoms: C_1  and  C_2
REMARK    2  A    between atoms: C_2  and  N_3
REMARK    3  A    between atoms: C_6  and  C_7
REMARK                            x       y       z     vdW  Elec       q    Type
REMARK                         _______ _______ _______ _____ _____    ______ ____
ROOT
ATOM      1  N   UNL     1       6.834   5.537  15.869  0.00  0.00    +0.000 NA
ATOM      2  C   UNL     1       5.402   5.839  16.038  0.00  0.00    +0.000 C 
ATOM      3  C   UNL     1       5.086   6.432  17.412  0.00  0.00    +0.000 C 
ATOM      4  C   UNL     1       5.541   5.493  18.531  0.00  0.00    +0.000 C 
ATOM      5  C   UNL     1       7.029   5.198  18.345  0.00  0.00    +0.000 C 
ATOM      6  C   UNL     1       7.346   4.670  16.943  0.00  0.00    +0.000 C 
ENDROOT
BRANCH   4   7
ATOM      7  C   UNL     1       4.704   4.216  18.577  0.00  0.00    +0.000 C 
ATOM      8  N   UNL     1       5.258   3.185  19.282  0.00  0.00    +0.000 N 
ATOM      9  O   UNL     1       3.619   4.068  18.033  0.00  0.00    +0.000 OA
ATOM     10  H   UNL     1       6.230   3.178  19.561  0.00  0.00    +0.000 HD
ATOM     11  H   UNL     1       4.753   2.308  19.277  0.00  0.00    +0.000 HD
ENDBRANCH   4   7
BRANCH   1  13
ATOM     12  C   UNL     1       5.927   3.975  14.098  0.00  0.00    +0.000 C 
ATOM     13  C   UNL     1       7.035   4.926  14.538  0.00  0.00    +0.000 C 
ENDBRANCH   1  13
TORSDOF 2
ENDMDL
MODEL 3
REMARK VINA RESULT:      -5.2      2.460      3.840
REMARK  Name = 
REMARK  3 active torsions:
REMARK  status: ('A' for Active; 'I' for Inactive)
REMARK    1  A    between atoms: C_1  and  C_2
REMARK    2  A    between atoms: C_2  and  N_3
REMARK    3  A    between atoms: C_6  and  C_7
REMARK                            x       y       z     vdW  Elec       q    Type
REMARK                         _______ _______ _______ _____ _____    ______ ____
ROOT
ATOM      1  N   UNL     1       1.637   2.938  19.365  0.00  0.00    +0.000 NA
ATOM      2  C   UNL     1       1.790   4.372  19.064  0.00  0.00    +0.000 C 
ATOM      3  C   UNL     1       2.373   4.620  17.672  0.00  0.00    +0.000 C 
ATOM      4  C   UNL     1       3.726   3.922  17.512  0.00  0.00    +0.000 C 
ATOM      5  C   UNL     1       3.546   2.435  17.820  0.00  0.00    +0.000 C 
ATOM      6  C   UNL     1       2.898   2.198  19.187  0.00  0.00    +0.000 C 
ENDROOT
BRANCH   4   7
ATOM      7  C   UNL     1       4.802   4.562  18.387  0.00  0.00    +0.000 C 
ATOM      8  N   UNL     1       5.956   3.840  18.507  0.00  0.00    +0.000 N 
ATOM      9  O   UNL     1       4.690   5.632  18.967  0.00  0.00    +0.000 OA
ATOM     10  H   UNL     1       6.020   2.869  18.235  0.00  0.00    +0.000 HD
ATOM     11  H   UNL     1       6.662   4.213  19.129  0.00  0.00    +0.000 HD
ENDBRANCH   4   7
BRANCH   1  13
ATOM     12  C   UNL     1       2.131   3.091  21.841  0.00  0.00    +0.000 C 
ATOM     13  C   UNL     1       1.117   2.795  20.741  0.00  0.00    +0.000 C 
ENDBRANCH   1  13
TORSDOF 2
ENDMDL
MODEL 4
REMARK VINA RESULT:      -5.1      2.118      3.649
REMARK  Name = 
REMARK  3 active torsions:
REMARK  status: ('A' for Active; 'I' for Inactive)
REMARK    1  A    between atoms: C_1  and  C_2
REMARK    2  A    between atoms: C_2  and  N_3
REMARK    3  A    between atoms: C_6  and  C_7
REMARK                            x       y       z     vdW  Elec       q    Type
REMARK                         _______ _______ _______ _____ _____    ______ ____
ROOT
ATOM      1  N   UNL     1       5.714   4.926  15.457  0.00  0.00    +0.000 NA
ATOM      2  C   UNL     1       5.014   3.880  16.223  0.00  0.00    +0.000 C 
ATOM      3  C   UNL     1       4.002   4.458  17.214  0.00  0.00    +0.000 C 
ATOM      4  C   UNL     1       4.679   5.429  18.184  0.00  0.00    +0.000 C 
ATOM      5  C   UNL     1       5.392   6.510  17.373  0.00  0.00    +0.000 C 
ATOM      6  C   UNL     1       6.352   5.921  16.334  0.00  0.00    +0.000 C 
ENDROOT
BRANCH   4   7
ATOM      7  C   UNL     1       5.629   4.709  19.139  0.00  0.00    +0.000 C 
ATOM      8  N   UNL     1       5.326   3.398  19.377  0.00  0.00    +0.000 N 
ATOM      9  O   UNL     1       6.597   5.219  19.684  0.00  0.00    +0.000 OA
ATOM     10  H   UNL     1       4.433   2.993  19.132  0.00  0.00    +0.000 HD
ATOM     11  H   UNL     1       5.905   2.914  20.053  0.00  0.00    +0.000 HD
ENDBRANCH   4   7
BRANCH   1  13
ATOM     12  C   UNL     1       6.125   3.749  13.256  0.00  0.00    +0.000 C 
ATOM     13  C   UNL     1       6.700   4.280  14.565  0.00  0.00    +0.000 C 
ENDBRANCH   1  13
TORSDOF 2
ENDMDL
MODEL 5
REMARK VINA RESULT:      -5.1      2.078      2.873
REMARK  Name = 
REMARK  3 active torsions:
REMARK  status: ('A' for Active; 'I' for Inactive)
REMARK    1  A    between atoms: C_1  and  C_2
REMARK    2  A    between atoms: C_2  and  N_3
REMARK    3  A    between atoms: C_6  and  C_7
REMARK                            x       y       z     vdW  Elec       q    Type
REMARK                         _______ _______ _______ _____ _____    ______ ____
ROOT
ATOM      1  N   UNL     1       2.008   3.901  18.104  0.00  0.00    +0.000 NA
ATOM      2  C   UNL     1       2.434   5.122  18.808  0.00  0.00    +0.000 C 
ATOM      3  C   UNL     1       3.313   6.024  17.940  0.00  0.00    +0.000 C 
ATOM      4  C   UNL     1       4.547   5.270  17.441  0.00  0.00    +0.000 C 
ATOM      5  C   UNL     1       4.086   4.012  16.706  0.00  0.00    +0.000 C 
ATOM      6  C   UNL     1       3.151   3.150  17.559  0.00  0.00    +0.000 C 
ENDROOT
BRANCH   4   7
ATOM      7  C   UNL     1       5.514   4.947  18.579  0.00  0.00    +0.000 C 
ATOM      8  N   UNL     1       6.514   4.073  18.258  0.00  0.00    +0.000 N 
ATOM      9  O   UNL     1       5.440   5.398  19.712  0.00  0.00    +0.000 OA
ATOM     10  H   UNL     1       6.497   3.511  17.418  0.00  0.00    +0.000 HD
ATOM     11  H   UNL     1       7.133   3.796  19.010  0.00  0.00    +0.000 HD
ENDBRANCH   4   7
BRANCH   1  13
ATOM     12  C   UNL     1       1.034   3.666  20.426  0.00  0.00    +0.000 C 
ATOM     13  C   UNL     1       1.209   3.073  19.031  0.00  0.00    +0.000 C 
ENDBRANCH   1  13
TORSDOF 2
ENDMDL
MODEL 6
REMARK VINA RESULT:      -5.1      4.035      5.221
REMARK  Name = 
REMARK  3 active torsions:
REMARK  status: ('A' for Active; 'I' for Inactive)
REMARK    1  A    between atoms: C_1  and  C_2
REMARK    2  A    between atoms: C_2  and  N_3
REMARK    3  A    between atoms: C_6  and  C_7
REMARK                            x       y       z     vdW  Elec       q    Type
REMARK                         _______ _______ _______ _____ _____    ______ ____
ROOT
ATOM      1  N   UNL     1       2.685   5.387  20.216  0.00  0.00    +0.000 NA
ATOM      2  C   UNL     1       1.360   4.801  20.479  0.00  0.00    +0.000 C 
ATOM      3  C   UNL     1       1.448   3.400  21.087  0.00  0.00    +0.000 C 
ATOM      4  C   UNL     1       2.247   2.460  20.182  0.00  0.00    +0.000 C 
ATOM      5  C   UNL     1       3.621   3.079  19.926  0.00  0.00    +0.000 C 
ATOM      6  C   UNL     1       3.523   4.508  19.383  0.00  0.00    +0.000 C 
ENDROOT
BRANCH   4   7
ATOM      7  C   UNL     1       1.505   2.156  18.882  0.00  0.00    +0.000 C 
ATOM      8  N   UNL     1       2.297   1.760  17.841  0.00  0.00    +0.000 N 
ATOM      9  O   UNL     1       0.296   2.253  18.724  0.00  0.00    +0.000 OA
ATOM     10  H   UNL     1       3.301   1.871  17.850  0.00  0.00    +0.000 HD
ATOM     11  H   UNL     1       1.837   1.610  16.952  0.00  0.00    +0.000 HD
ENDBRANCH   4   7
BRANCH   1  13
ATOM     12  C   UNL     1       2.980   6.806  18.143  0.00  0.00    +0.000 C 
ATOM     13  C   UNL     1       2.501   6.712  19.588  0.00  0.00    +0.000 C 
ENDBRANCH   1  13
TORSDOF 2
ENDMDL
MODEL 7
REMARK VINA RESULT:      -5.1      1.735      2.327
REMARK  Name = 
REMARK  3 active torsions:
REMARK  status: ('A' for Active; 'I' for Inactive)
REMARK    1  A    between atoms: C_1  and  C_2
REMARK    2  A    between atoms: C_2  and  N_3
REMARK    3  A    between atoms: C_6  and  C_7
REMARK                            x       y       z     vdW  Elec       q    Type
REMARK                         _______ _______ _______ _____ _____    ______ ____
ROOT
ATOM      1  N   UNL     1       3.792   5.484  18.033  0.00  0.00    +0.000 NA
ATOM      2  C   UNL     1       4.478   6.680  17.514  0.00  0.00    +0.000 C 
ATOM      3  C   UNL     1       4.864   6.541  16.041  0.00  0.00    +0.000 C 
ATOM      4  C   UNL     1       5.750   5.313  15.820  0.00  0.00    +0.000 C 
ATOM      5  C   UNL     1       5.020   4.082  16.356  0.00  0.00    +0.000 C 
ATOM      6  C   UNL     1       4.575   4.257  17.812  0.00  0.00    +0.000 C 
ENDROOT
BRANCH   4   7
ATOM      7  C   UNL     1       7.127   5.485  16.457  0.00  0.00    +0.000 C 
ATOM      8  N   UNL     1       7.748   4.322  16.817  0.00  0.00    +0.000 N 
ATOM      9  O   UNL     1       7.677   6.558  16.663  0.00  0.00    +0.000 OA
ATOM     10  H   UNL     1       7.260   3.440  16.870  0.00  0.00    +0.000 HD
ATOM     11  H   UNL     1       8.636   4.411  17.295  0.00  0.00    +0.000 HD
ENDBRANCH   4   7
BRANCH   1  13
ATOM     12  C   UNL     1       2.179   5.098  19.943  0.00  0.00    +0.000 C 
ATOM     13  C   UNL     1       3.503   5.689  19.468  0.00  0.00    +0.000 C 
ENDBRANCH   1  13
TORSDOF 2
ENDMDL
MODEL 8
REMARK VINA RESULT:      -5.1      1.503      2.144
REMARK  Name = 
REMARK  3 active torsions:
REMARK  status: ('A' for Active; 'I' for Inactive)
REMARK    1  A    between atoms: C_1  and  C_2
REMARK    2  A    between atoms: C_2  and  N_3
REMARK    3  A    between atoms: C_6  and  C_7
REMARK                            x       y       z     vdW  Elec       q    Type
REMARK                         _______ _______ _______ _____ _____    ______ ____
ROOT
ATOM      1  N   UNL     1       3.806   4.648  17.948  0.00  0.00    +0.000 NA
ATOM      2  C   UNL     1       4.394   5.995  18.044  0.00  0.00    +0.000 C 
ATOM      3  C   UNL     1       4.707   6.597  16.673  0.00  0.00    +0.000 C 
ATOM      4  C   UNL     1       5.648   5.689  15.878  0.00  0.00    +0.000 C 
ATOM      5  C   UNL     1       5.018   4.300  15.782  0.00  0.00    +0.000 C 
ATOM      6  C   UNL     1       4.644   3.734  17.155  0.00  0.00    +0.000 C 
ENDROOT
BRANCH   4   7
ATOM      7  C   UNL     1       7.046   5.643  16.492  0.00  0.00    +0.000 C 
ATOM      8  N   UNL     1       7.585   6.861  16.795  0.00  0.00    +0.000 N 
ATOM      9  O   UNL     1       7.685   4.624  16.708  0.00  0.00    +0.000 OA
ATOM     10  H   UNL     1       7.202   7.728  16.445  0.00  0.00    +0.000 HD
ATOM     11  H   UNL     1       8.534   6.863  17.148  0.00  0.00    +0.000 HD
ENDBRANCH   4   7
BRANCH   1  13
ATOM     12  C   UNL     1       4.330   2.839  19.637  0.00  0.00    +0.000 C 
ATOM     13  C   UNL     1       3.584   4.130  19.314  0.00  0.00    +0.000 C 
ENDBRANCH   1  13
TORSDOF 2
ENDMDL
MODEL 9
REMARK VINA RESULT:      -5.1      2.693      5.026
REMARK  Name = 
REMARK  3 active torsions:
REMARK  status: ('A' for Active; 'I' for Inactive)
REMARK    1  A    between atoms: C_1  and  C_2
REMARK    2  A    between atoms: C_2  and  N_3
REMARK    3  A    between atoms: C_6  and  C_7
REMARK                            x       y       z     vdW  Elec       q    Type
REMARK                         _______ _______ _______ _____ _____    ______ ____
ROOT
ATOM      1  N   UNL     1       3.985   4.365  17.372  0.00  0.00    +0.000 NA
ATOM      2  C   UNL     1       4.040   3.007  17.939  0.00  0.00    +0.000 C 
ATOM      3  C   UNL     1       2.744   2.226  17.716  0.00  0.00    +0.000 C 
ATOM      4  C   UNL     1       1.545   2.972  18.305  0.00  0.00    +0.000 C 
ATOM      5  C   UNL     1       1.499   4.375  17.700  0.00  0.00    +0.000 C 
ATOM      6  C   UNL     1       2.825   5.125  17.868  0.00  0.00    +0.000 C 
ENDROOT
BRANCH   4   7
ATOM      7  C   UNL     1       1.593   3.008  19.831  0.00  0.00    +0.000 C 
ATOM      8  N   UNL     1       0.610   3.748  20.425  0.00  0.00    +0.000 N 
ATOM      9  O   UNL     1       2.431   2.444  20.521  0.00  0.00    +0.000 OA
ATOM     10  H   UNL     1       0.035   4.400  19.910  0.00  0.00    +0.000 HD
ATOM     11  H   UNL     1       0.654   3.837  21.433  0.00  0.00    +0.000 HD
ENDBRANCH   4   7
BRANCH   1  13
ATOM     12  C   UNL     1       5.544   5.234  19.164  0.00  0.00    +0.000 C 
ATOM     13  C   UNL     1       5.255   5.058  17.677  0.00  0.00    +0.000 C 
ENDBRANCH   1  13
TORSDOF 2
ENDMDL
