MODEL 1
REMARK VINA RESULT:      -8.2      0.000      0.000
REMARK  Name = 
REMARK  9 active torsions:
REMARK  status: ('A' for Active; 'I' for Inactive)
REMARK    1  A    between atoms: C_1  and  O_2
REMARK    2  A    between atoms: O_2  and  C_3
REMARK    3  A    between atoms: C_6  and  C_7
REMARK    4  A    between atoms: C_10  and  C_11
REMARK    5  A    between atoms: C_14  and  O_15
REMARK    6  A    between atoms: O_15  and  C_16
REMARK    7  A    between atoms: C_17  and  O_18
REMARK    8  A    between atoms: O_18  and  C_19
REMARK    9  A    between atoms: C_26  and  N_27
REMARK                            x       y       z     vdW  Elec       q    Type
REMARK                         _______ _______ _______ _____ _____    ______ ____
ROOT
ATOM      1  C   UNL     1       2.228   6.550  19.848  0.00  0.00    +0.000 A 
ATOM      2  N   UNL     1       3.083   6.350  18.877  0.00  0.00    +0.000 NA
ATOM      3  N   UNL     1       3.321   5.009  18.871  0.00  0.00    +0.000 N 
ATOM      4  C   UNL     1       4.101   4.166  18.111  0.00  0.00    +0.000 A 
ATOM      5  N   UNL     1       3.846   2.918  18.511  0.00  0.00    +0.000 NA
ATOM      6  N   UNL     1       2.957   2.954  19.574  0.00  0.00    +0.000 NA
ATOM      7  C   UNL     1       2.689   4.214  19.759  0.00  0.00    +0.000 A 
ATOM      8  S   UNL     1       1.708   5.125  20.801  0.00  0.00    +0.000 S 
ENDROOT
BRANCH   1  12
ATOM      9  C   UNL     1       0.530  10.361  20.709  0.00  0.00    +0.000 A 
ATOM     10  C   UNL     1       0.596   9.381  21.706  0.00  0.00    +0.000 A 
ATOM     11  C   UNL     1       1.176   8.147  21.448  0.00  0.00    +0.000 A 
ATOM     12  C   UNL     1       1.646   7.861  20.167  0.00  0.00    +0.000 A 
ATOM     13  C   UNL     1       1.550   8.820  19.152  0.00  0.00    +0.000 A 
ATOM     14  C   UNL     1       1.028  10.091  19.418  0.00  0.00    +0.000 A 
BRANCH  14  15
ATOM     15  N   UNL     1       0.824  10.980  18.348  0.00  0.00    +0.000 N 
ATOM     16  H   UNL     1       0.932  11.961  18.578  0.00  0.00    +0.000 HD
ATOM     17  H   UNL     1      -0.031  10.776  17.835  0.00  0.00    +0.000 HD
ENDBRANCH  14  15
BRANCH   9  19
ATOM     18  C   UNL     1      -0.701  11.708  22.183  0.00  0.00    +0.000 C 
ATOM     19  O   UNL     1       0.009  11.612  20.945  0.00  0.00    +0.000 OA
ENDBRANCH   9  19
ENDBRANCH   1  12
BRANCH   4  20
ATOM     20  C   UNL     1       5.062   4.553  17.083  0.00  0.00    +0.000 A 
ATOM     21  C   UNL     1       5.215   3.755  15.951  0.00  0.00    +0.000 A 
ATOM     22  C   UNL     1       6.197   4.055  15.007  0.00  0.00    +0.000 A 
ATOM     23  C   UNL     1       7.063   5.145  15.181  0.00  0.00    +0.000 A 
ATOM     24  C   UNL     1       6.924   5.955  16.322  0.00  0.00    +0.000 A 
ATOM     25  C   UNL     1       5.910   5.659  17.250  0.00  0.00    +0.000 A 
BRANCH  23  26
ATOM     26  O   UNL     1       7.967   5.251  14.157  0.00  0.00    +0.000 OA
ATOM     27  C   UNL     1       7.533   5.013  12.827  0.00  0.00    +0.000 C 
ENDBRANCH  23  26
BRANCH  24  28
ATOM     28  O   UNL     1       7.805   6.990  16.494  0.00  0.00    +0.000 OA
ATOM     29  C   UNL     1       7.711   7.777  17.673  0.00  0.00    +0.000 C 
ENDBRANCH  24  28
ENDBRANCH   4  20
TORSDOF 6
ENDMDL
MODEL 2
REMARK VINA RESULT:      -8.1      1.049      1.404
REMARK  Name = 
REMARK  9 active torsions:
REMARK  status: ('A' for Active; 'I' for Inactive)
REMARK    1  A    between atoms: C_1  and  O_2
REMARK    2  A    between atoms: O_2  and  C_3
REMARK    3  A    between atoms: C_6  and  C_7
REMARK    4  A    between atoms: C_10  and  C_11
REMARK    5  A    between atoms: C_14  and  O_15
REMARK    6  A    between atoms: O_15  and  C_16
REMARK    7  A    between atoms: C_17  and  O_18
REMARK    8  A    between atoms: O_18  and  C_19
REMARK    9  A    between atoms: C_26  and  N_27
REMARK                            x       y       z     vdW  Elec       q    Type
REMARK                         _______ _______ _______ _____ _____    ______ ____
ROOT
ATOM      1  C   UNL     1       2.202   6.581  19.870  0.00  0.00    +0.000 A 
ATOM      2  N   UNL     1       3.054   6.386  18.896  0.00  0.00    +0.000 NA
ATOM      3  N   UNL     1       3.321   5.051  18.905  0.00  0.00    +0.000 N 
ATOM      4  C   UNL     1       4.113   4.215  18.150  0.00  0.00    +0.000 A 
ATOM      5  N   UNL     1       3.888   2.967  18.569  0.00  0.00    +0.000 NA
ATOM      6  N   UNL     1       3.007   2.998  19.639  0.00  0.00    +0.000 NA
ATOM      7  C   UNL     1       2.713   4.255  19.809  0.00  0.00    +0.000 A 
ATOM      8  S   UNL     1       1.721   5.159  20.847  0.00  0.00    +0.000 S 
ENDROOT
BRANCH   1  12
ATOM      9  C   UNL     1       0.449  10.345  20.823  0.00  0.00    +0.000 A 
ATOM     10  C   UNL     1       0.965  10.116  19.542  0.00  0.00    +0.000 A 
ATOM     11  C   UNL     1       1.509   8.883  19.209  0.00  0.00    +0.000 A 
ATOM     12  C   UNL     1       1.594   7.883  20.177  0.00  0.00    +0.000 A 
ATOM     13  C   UNL     1       1.116   8.115  21.472  0.00  0.00    +0.000 A 
ATOM     14  C   UNL     1       0.505   9.331  21.800  0.00  0.00    +0.000 A 
BRANCH  14  15
ATOM     15  N   UNL     1       0.159   9.577  23.140  0.00  0.00    +0.000 N 
ATOM     16  H   UNL     1      -0.811   9.396  23.374  0.00  0.00    +0.000 HD
ATOM     17  H   UNL     1       0.490  10.483  23.464  0.00  0.00    +0.000 HD
ENDBRANCH  14  15
BRANCH   9  19
ATOM     18  C   UNL     1      -1.124  11.981  20.228  0.00  0.00    +0.000 C 
ATOM     19  O   UNL     1      -0.144  11.536  21.170  0.00  0.00    +0.000 OA
ENDBRANCH   9  19
ENDBRANCH   1  12
BRANCH   4  20
ATOM     20  C   UNL     1       5.057   4.609  17.110  0.00  0.00    +0.000 A 
ATOM     21  C   UNL     1       5.176   3.830  15.960  0.00  0.00    +0.000 A 
ATOM     22  C   UNL     1       6.142   4.135  15.001  0.00  0.00    +0.000 A 
ATOM     23  C   UNL     1       7.026   5.210  15.176  0.00  0.00    +0.000 A 
ATOM     24  C   UNL     1       6.921   6.001  16.335  0.00  0.00    +0.000 A 
ATOM     25  C   UNL     1       5.923   5.700  17.278  0.00  0.00    +0.000 A 
BRANCH  23  26
ATOM     26  O   UNL     1       7.909   5.324  14.136  0.00  0.00    +0.000 OA
ATOM     27  C   UNL     1       7.495   4.937  12.835  0.00  0.00    +0.000 C 
ENDBRANCH  23  26
BRANCH  24  28
ATOM     28  O   UNL     1       7.819   7.021  16.507  0.00  0.00    +0.000 OA
ATOM     29  C   UNL     1       7.725   7.822  17.677  0.00  0.00    +0.000 C 
ENDBRANCH  24  28
ENDBRANCH   4  20
TORSDOF 6
ENDMDL
MODEL 3
REMARK VINA RESULT:      -7.7      1.726      2.169
REMARK  Name = 
REMARK  9 active torsions:
REMARK  status: ('A' for Active; 'I' for Inactive)
REMARK    1  A    between atoms: C_1  and  O_2
REMARK    2  A    between atoms: O_2  and  C_3
REMARK    3  A    between atoms: C_6  and  C_7
REMARK    4  A    between atoms: C_10  and  C_11
REMARK    5  A    between atoms: C_14  and  O_15
REMARK    6  A    between atoms: O_15  and  C_16
REMARK    7  A    between atoms: C_17  and  O_18
REMARK    8  A    between atoms: O_18  and  C_19
REMARK    9  A    between atoms: C_26  and  N_27
REMARK                            x       y       z     vdW  Elec       q    Type
REMARK                         _______ _______ _______ _____ _____    ______ ____
ROOT
ATOM      1  C   UNL     1       1.626   8.478  19.539  0.00  0.00    +0.000 A 
ATOM      2  N   UNL     1       2.428   7.827  18.735  0.00  0.00    +0.000 NA
ATOM      3  N   UNL     1       2.617   6.610  19.316  0.00  0.00    +0.000 N 
ATOM      4  C   UNL     1       3.331   5.479  18.988  0.00  0.00    +0.000 A 
ATOM      5  N   UNL     1       3.050   4.550  19.905  0.00  0.00    +0.000 NA
ATOM      6  N   UNL     1       2.211   5.096  20.864  0.00  0.00    +0.000 NA
ATOM      7  C   UNL     1       1.997   6.321  20.480  0.00  0.00    +0.000 A 
ATOM      8  S   UNL     1       1.098   7.648  21.035  0.00  0.00    +0.000 S 
ENDROOT
BRANCH   1  12
ATOM      9  C   UNL     1       0.167  12.389  18.685  0.00  0.00    +0.000 A 
ATOM     10  C   UNL     1      -0.670  11.445  19.293  0.00  0.00    +0.000 A 
ATOM     11  C   UNL     1      -0.197  10.179  19.606  0.00  0.00    +0.000 A 
ATOM     12  C   UNL     1       1.106   9.824  19.260  0.00  0.00    +0.000 A 
ATOM     13  C   UNL     1       1.939  10.747  18.617  0.00  0.00    +0.000 A 
ATOM     14  C   UNL     1       1.495  12.049  18.357  0.00  0.00    +0.000 A 
BRANCH  14  15
ATOM     15  N   UNL     1       2.308  12.904  17.593  0.00  0.00    +0.000 N 
ATOM     16  H   UNL     1       1.829  13.408  16.855  0.00  0.00    +0.000 HD
ATOM     17  H   UNL     1       3.162  12.448  17.281  0.00  0.00    +0.000 HD
ENDBRANCH  14  15
BRANCH   9  19
ATOM     18  C   UNL     1      -0.687  14.388  19.566  0.00  0.00    +0.000 C 
ATOM     19  O   UNL     1      -0.253  13.669  18.409  0.00  0.00    +0.000 OA
ENDBRANCH   9  19
ENDBRANCH   1  12
BRANCH   4  20
ATOM     20  C   UNL     1       4.258   5.323  17.872  0.00  0.00    +0.000 A 
ATOM     21  C   UNL     1       4.113   4.241  17.005  0.00  0.00    +0.000 A 
ATOM     22  C   UNL     1       5.048   4.021  15.993  0.00  0.00    +0.000 A 
ATOM     23  C   UNL     1       6.159   4.862  15.835  0.00  0.00    +0.000 A 
ATOM     24  C   UNL     1       6.321   5.954  16.707  0.00  0.00    +0.000 A 
ATOM     25  C   UNL     1       5.355   6.181  17.703  0.00  0.00    +0.000 A 
BRANCH  23  26
ATOM     26  O   UNL     1       6.965   4.461  14.803  0.00  0.00    +0.000 OA
ATOM     27  C   UNL     1       6.367   3.971  13.613  0.00  0.00    +0.000 C 
ENDBRANCH  23  26
BRANCH  24  28
ATOM     28  O   UNL     1       7.434   6.740  16.563  0.00  0.00    +0.000 OA
ATOM     29  C   UNL     1       7.747   7.674  17.587  0.00  0.00    +0.000 C 
ENDBRANCH  24  28
ENDBRANCH   4  20
TORSDOF 6
ENDMDL
MODEL 4
REMARK VINA RESULT:      -7.5      1.898      2.465
REMARK  Name = 
REMARK  9 active torsions:
REMARK  status: ('A' for Active; 'I' for Inactive)
REMARK    1  A    between atoms: C_1  and  O_2
REMARK    2  A    between atoms: O_2  and  C_3
REMARK    3  A    between atoms: C_6  and  C_7
REMARK    4  A    between atoms: C_10  and  C_11
REMARK    5  A    between atoms: C_14  and  O_15
REMARK    6  A    between atoms: O_15  and  C_16
REMARK    7  A    between atoms: C_17  and  O_18
REMARK    8  A    between atoms: O_18  and  C_19
REMARK    9  A    between atoms: C_26  and  N_27
REMARK                            x       y       z     vdW  Elec       q    Type
REMARK                         _______ _______ _______ _____ _____    ______ ____
ROOT
ATOM      1  C   UNL     1       1.620   8.633  19.459  0.00  0.00    +0.000 A 
ATOM      2  N   UNL     1       2.426   7.958  18.679  0.00  0.00    +0.000 NA
ATOM      3  N   UNL     1       2.602   6.754  19.289  0.00  0.00    +0.000 N 
ATOM      4  C   UNL     1       3.311   5.611  18.993  0.00  0.00    +0.000 A 
ATOM      5  N   UNL     1       3.015   4.705  19.928  0.00  0.00    +0.000 NA
ATOM      6  N   UNL     1       2.171   5.278  20.867  0.00  0.00    +0.000 NA
ATOM      7  C   UNL     1       1.969   6.496  20.453  0.00  0.00    +0.000 A 
ATOM      8  S   UNL     1       1.073   7.841  20.969  0.00  0.00    +0.000 S 
ENDROOT
BRANCH   1  12
ATOM      9  C   UNL     1       0.097  12.515  18.589  0.00  0.00    +0.000 A 
ATOM     10  C   UNL     1       1.441  12.216  18.336  0.00  0.00    +0.000 A 
ATOM     11  C   UNL     1       1.941  10.946  18.584  0.00  0.00    +0.000 A 
ATOM     12  C   UNL     1       1.112   9.975  19.145  0.00  0.00    +0.000 A 
ATOM     13  C   UNL     1      -0.224  10.275  19.438  0.00  0.00    +0.000 A 
ATOM     14  C   UNL     1      -0.757  11.532  19.130  0.00  0.00    +0.000 A 
BRANCH  14  15
ATOM     15  N   UNL     1      -2.060  11.841  19.558  0.00  0.00    +0.000 N 
ATOM     16  H   UNL     1      -2.439  11.220  20.263  0.00  0.00    +0.000 HD
ATOM     17  H   UNL     1      -2.694  12.002  18.779  0.00  0.00    +0.000 HD
ENDBRANCH  14  15
BRANCH   9  19
ATOM     18  C   UNL     1       0.247  14.830  18.934  0.00  0.00    +0.000 C 
ATOM     19  O   UNL     1      -0.445  13.748  18.307  0.00  0.00    +0.000 OA
ENDBRANCH   9  19
ENDBRANCH   1  12
BRANCH   4  20
ATOM     20  C   UNL     1       4.247   5.424  17.890  0.00  0.00    +0.000 A 
ATOM     21  C   UNL     1       4.090   4.336  17.033  0.00  0.00    +0.000 A 
ATOM     22  C   UNL     1       5.031   4.086  16.034  0.00  0.00    +0.000 A 
ATOM     23  C   UNL     1       6.162   4.903  15.880  0.00  0.00    +0.000 A 
ATOM     24  C   UNL     1       6.337   6.000  16.742  0.00  0.00    +0.000 A 
ATOM     25  C   UNL     1       5.364   6.258  17.725  0.00  0.00    +0.000 A 
BRANCH  23  26
ATOM     26  O   UNL     1       6.971   4.473  14.862  0.00  0.00    +0.000 OA
ATOM     27  C   UNL     1       6.377   4.018  13.656  0.00  0.00    +0.000 C 
ENDBRANCH  23  26
BRANCH  24  28
ATOM     28  O   UNL     1       7.467   6.761  16.603  0.00  0.00    +0.000 OA
ATOM     29  C   UNL     1       7.726   7.780  17.559  0.00  0.00    +0.000 C 
ENDBRANCH  24  28
ENDBRANCH   4  20
TORSDOF 6
ENDMDL
MODEL 5
REMARK VINA RESULT:      -7.4      0.897      1.975
REMARK  Name = 
REMARK  9 active torsions:
REMARK  status: ('A' for Active; 'I' for Inactive)
REMARK    1  A    between atoms: C_1  and  O_2
REMARK    2  A    between atoms: O_2  and  C_3
REMARK    3  A    between atoms: C_6  and  C_7
REMARK    4  A    between atoms: C_10  and  C_11
REMARK    5  A    between atoms: C_14  and  O_15
REMARK    6  A    between atoms: O_15  and  C_16
REMARK    7  A    between atoms: C_17  and  O_18
REMARK    8  A    between atoms: O_18  and  C_19
REMARK    9  A    between atoms: C_26  and  N_27
REMARK                            x       y       z     vdW  Elec       q    Type
REMARK                         _______ _______ _______ _____ _____    ______ ____
ROOT
ATOM      1  C   UNL     1       2.424   6.266  19.498  0.00  0.00    +0.000 A 
ATOM      2  N   UNL     1       3.317   6.031  18.571  0.00  0.00    +0.000 NA
ATOM      3  N   UNL     1       3.523   4.685  18.596  0.00  0.00    +0.000 N 
ATOM      4  C   UNL     1       4.316   3.812  17.885  0.00  0.00    +0.000 A 
ATOM      5  N   UNL     1       4.014   2.577  18.293  0.00  0.00    +0.000 NA
ATOM      6  N   UNL     1       3.079   2.650  19.314  0.00  0.00    +0.000 NA
ATOM      7  C   UNL     1       2.832   3.920  19.467  0.00  0.00    +0.000 A 
ATOM      8  S   UNL     1       1.828   4.870  20.449  0.00  0.00    +0.000 S 
ENDROOT
BRANCH   1  12
ATOM      9  C   UNL     1       0.781  10.130  20.222  0.00  0.00    +0.000 A 
ATOM     10  C   UNL     1       0.746   9.154  21.225  0.00  0.00    +0.000 A 
ATOM     11  C   UNL     1       1.307   7.903  21.013  0.00  0.00    +0.000 A 
ATOM     12  C   UNL     1       1.859   7.595  19.770  0.00  0.00    +0.000 A 
ATOM     13  C   UNL     1       1.865   8.552  18.748  0.00  0.00    +0.000 A 
ATOM     14  C   UNL     1       1.363   9.839  18.972  0.00  0.00    +0.000 A 
BRANCH  14  15
ATOM     15  N   UNL     1       1.263  10.727  17.887  0.00  0.00    +0.000 N 
ATOM     16  H   UNL     1       1.501  11.690  18.096  0.00  0.00    +0.000 HD
ATOM     17  H   UNL     1       0.382  10.629  17.387  0.00  0.00    +0.000 HD
ENDBRANCH  14  15
BRANCH   9  19
ATOM     18  C   UNL     1      -0.222  11.614  21.737  0.00  0.00    +0.000 C 
ATOM     19  O   UNL     1       0.282  11.397  20.416  0.00  0.00    +0.000 OA
ENDBRANCH   9  19
ENDBRANCH   1  12
BRANCH   4  20
ATOM     20  C   UNL     1       5.331   4.160  16.896  0.00  0.00    +0.000 A 
ATOM     21  C   UNL     1       6.248   5.170  17.180  0.00  0.00    +0.000 A 
ATOM     22  C   UNL     1       7.161   5.583  16.210  0.00  0.00    +0.000 A 
ATOM     23  C   UNL     1       7.168   5.013  14.928  0.00  0.00    +0.000 A 
ATOM     24  C   UNL     1       6.244   3.996  14.626  0.00  0.00    +0.000 A 
ATOM     25  C   UNL     1       5.349   3.569  15.623  0.00  0.00    +0.000 A 
BRANCH  23  26
ATOM     26  O   UNL     1       8.122   5.573  14.121  0.00  0.00    +0.000 OA
ATOM     27  C   UNL     1       7.955   5.514  12.714  0.00  0.00    +0.000 C 
ENDBRANCH  23  26
BRANCH  24  28
ATOM     28  O   UNL     1       6.238   3.480  13.357  0.00  0.00    +0.000 OA
ATOM     29  C   UNL     1       5.026   3.505  12.616  0.00  0.00    +0.000 C 
ENDBRANCH  24  28
ENDBRANCH   4  20
TORSDOF 6
ENDMDL
MODEL 6
REMARK VINA RESULT:      -7.2      1.299      2.374
REMARK  Name = 
REMARK  9 active torsions:
REMARK  status: ('A' for Active; 'I' for Inactive)
REMARK    1  A    between atoms: C_1  and  O_2
REMARK    2  A    between atoms: O_2  and  C_3
REMARK    3  A    between atoms: C_6  and  C_7
REMARK    4  A    between atoms: C_10  and  C_11
REMARK    5  A    between atoms: C_14  and  O_15
REMARK    6  A    between atoms: O_15  and  C_16
REMARK    7  A    between atoms: C_17  and  O_18
REMARK    8  A    between atoms: O_18  and  C_19
REMARK    9  A    between atoms: C_26  and  N_27
REMARK                            x       y       z     vdW  Elec       q    Type
REMARK                         _______ _______ _______ _____ _____    ______ ____
ROOT
ATOM      1  C   UNL     1       2.460   6.448  19.398  0.00  0.00    +0.000 A 
ATOM      2  N   UNL     1       3.352   6.174  18.481  0.00  0.00    +0.000 NA
ATOM      3  N   UNL     1       3.578   4.834  18.581  0.00  0.00    +0.000 N 
ATOM      4  C   UNL     1       4.380   3.934  17.917  0.00  0.00    +0.000 A 
ATOM      5  N   UNL     1       4.099   2.720  18.395  0.00  0.00    +0.000 NA
ATOM      6  N   UNL     1       3.167   2.838  19.416  0.00  0.00    +0.000 NA
ATOM      7  C   UNL     1       2.903   4.110  19.498  0.00  0.00    +0.000 A 
ATOM      8  S   UNL     1       1.889   5.100  20.430  0.00  0.00    +0.000 S 
ENDROOT
BRANCH   1  12
ATOM      9  C   UNL     1       0.777  10.310  20.041  0.00  0.00    +0.000 A 
ATOM     10  C   UNL     1       1.296   9.971  18.785  0.00  0.00    +0.000 A 
ATOM     11  C   UNL     1       1.817   8.705  18.554  0.00  0.00    +0.000 A 
ATOM     12  C   UNL     1       1.876   7.782  19.597  0.00  0.00    +0.000 A 
ATOM     13  C   UNL     1       1.396   8.124  20.867  0.00  0.00    +0.000 A 
ATOM     14  C   UNL     1       0.807   9.374  21.094  0.00  0.00    +0.000 A 
BRANCH  14  15
ATOM     15  N   UNL     1       0.458   9.731  22.409  0.00  0.00    +0.000 N 
ATOM     16  H   UNL     1       0.777   9.092  23.127  0.00  0.00    +0.000 HD
ATOM     17  H   UNL     1      -0.526   9.975  22.494  0.00  0.00    +0.000 HD
ENDBRANCH  14  15
BRANCH   9  19
ATOM     18  C   UNL     1      -1.150  11.632  19.849  0.00  0.00    +0.000 C 
ATOM     19  O   UNL     1       0.207  11.536  20.290  0.00  0.00    +0.000 OA
ENDBRANCH   9  19
ENDBRANCH   1  12
BRANCH   4  20
ATOM     20  C   UNL     1       5.386   4.240  16.904  0.00  0.00    +0.000 A 
ATOM     21  C   UNL     1       6.331   5.234  17.154  0.00  0.00    +0.000 A 
ATOM     22  C   UNL     1       7.236   5.607  16.161  0.00  0.00    +0.000 A 
ATOM     23  C   UNL     1       7.207   5.014  14.890  0.00  0.00    +0.000 A 
ATOM     24  C   UNL     1       6.255   4.014  14.622  0.00  0.00    +0.000 A 
ATOM     25  C   UNL     1       5.368   3.626  15.643  0.00  0.00    +0.000 A 
BRANCH  23  26
ATOM     26  O   UNL     1       8.161   5.537  14.057  0.00  0.00    +0.000 OA
ATOM     27  C   UNL     1       7.942   5.508  12.656  0.00  0.00    +0.000 C 
ENDBRANCH  23  26
BRANCH  24  28
ATOM     28  O   UNL     1       6.216   3.476  13.364  0.00  0.00    +0.000 OA
ATOM     29  C   UNL     1       4.993   3.519  12.641  0.00  0.00    +0.000 C 
ENDBRANCH  24  28
ENDBRANCH   4  20
TORSDOF 6
ENDMDL
MODEL 7
REMARK VINA RESULT:      -7.2      1.702      2.187
REMARK  Name = 
REMARK  9 active torsions:
REMARK  status: ('A' for Active; 'I' for Inactive)
REMARK    1  A    between atoms: C_1  and  O_2
REMARK    2  A    between atoms: O_2  and  C_3
REMARK    3  A    between atoms: C_6  and  C_7
REMARK    4  A    between atoms: C_10  and  C_11
REMARK    5  A    between atoms: C_14  and  O_15
REMARK    6  A    between atoms: O_15  and  C_16
REMARK    7  A    between atoms: C_17  and  O_18
REMARK    8  A    between atoms: O_18  and  C_19
REMARK    9  A    between atoms: C_26  and  N_27
REMARK                            x       y       z     vdW  Elec       q    Type
REMARK                         _______ _______ _______ _____ _____    ______ ____
ROOT
ATOM      1  C   UNL     1       1.559   8.235  19.743  0.00  0.00    +0.000 A 
ATOM      2  N   UNL     1       2.430   7.747  18.897  0.00  0.00    +0.000 NA
ATOM      3  N   UNL     1       2.747   6.511  19.372  0.00  0.00    +0.000 N 
ATOM      4  C   UNL     1       3.579   5.496  18.956  0.00  0.00    +0.000 A 
ATOM      5  N   UNL     1       3.398   4.466  19.786  0.00  0.00    +0.000 NA
ATOM      6  N   UNL     1       2.503   4.834  20.779  0.00  0.00    +0.000 NA
ATOM      7  C   UNL     1       2.159   6.058  20.499  0.00  0.00    +0.000 A 
ATOM      8  S   UNL     1       1.121   7.227  21.157  0.00  0.00    +0.000 S 
ENDROOT
BRANCH   1  12
ATOM      9  C   UNL     1      -0.329  12.030  19.313  0.00  0.00    +0.000 A 
ATOM     10  C   UNL     1      -0.155  11.203  18.197  0.00  0.00    +0.000 A 
ATOM     11  C   UNL     1       0.429   9.951  18.330  0.00  0.00    +0.000 A 
ATOM     12  C   UNL     1       0.899   9.537  19.576  0.00  0.00    +0.000 A 
ATOM     13  C   UNL     1       0.764  10.373  20.691  0.00  0.00    +0.000 A 
ATOM     14  C   UNL     1       0.116  11.609  20.582  0.00  0.00    +0.000 A 
BRANCH  14  15
ATOM     15  N   UNL     1       0.118  12.476  21.689  0.00  0.00    +0.000 N 
ATOM     16  H   UNL     1       0.891  13.130  21.722  0.00  0.00    +0.000 HD
ATOM     17  H   UNL     1      -0.030  11.982  22.566  0.00  0.00    +0.000 HD
ENDBRANCH  14  15
BRANCH   9  19
ATOM     18  C   UNL     1      -0.116  14.278  18.680  0.00  0.00    +0.000 C 
ATOM     19  O   UNL     1      -0.951  13.254  19.227  0.00  0.00    +0.000 OA
ENDBRANCH   9  19
ENDBRANCH   1  12
BRANCH   4  20
ATOM     20  C   UNL     1       4.520   5.538  17.842  0.00  0.00    +0.000 A 
ATOM     21  C   UNL     1       4.365   4.651  16.778  0.00  0.00    +0.000 A 
ATOM     22  C   UNL     1       5.310   4.610  15.753  0.00  0.00    +0.000 A 
ATOM     23  C   UNL     1       6.443   5.437  15.776  0.00  0.00    +0.000 A 
ATOM     24  C   UNL     1       6.616   6.333  16.846  0.00  0.00    +0.000 A 
ATOM     25  C   UNL     1       5.639   6.385  17.857  0.00  0.00    +0.000 A 
BRANCH  23  26
ATOM     26  O   UNL     1       7.256   5.225  14.694  0.00  0.00    +0.000 OA
ATOM     27  C   UNL     1       6.807   4.374  13.652  0.00  0.00    +0.000 C 
ENDBRANCH  23  26
BRANCH  24  28
ATOM     28  O   UNL     1       7.748   7.103  16.872  0.00  0.00    +0.000 OA
ATOM     29  C   UNL     1       7.760   8.273  17.678  0.00  0.00    +0.000 C 
ENDBRANCH  24  28
ENDBRANCH   4  20
TORSDOF 6
ENDMDL
MODEL 8
REMARK VINA RESULT:      -7.0      2.028      2.503
REMARK  Name = 
REMARK  9 active torsions:
REMARK  status: ('A' for Active; 'I' for Inactive)
REMARK    1  A    between atoms: C_1  and  O_2
REMARK    2  A    between atoms: O_2  and  C_3
REMARK    3  A    between atoms: C_6  and  C_7
REMARK    4  A    between atoms: C_10  and  C_11
REMARK    5  A    between atoms: C_14  and  O_15
REMARK    6  A    between atoms: O_15  and  C_16
REMARK    7  A    between atoms: C_17  and  O_18
REMARK    8  A    between atoms: O_18  and  C_19
REMARK    9  A    between atoms: C_26  and  N_27
REMARK                            x       y       z     vdW  Elec       q    Type
REMARK                         _______ _______ _______ _____ _____    ______ ____
ROOT
ATOM      1  C   UNL     1       1.474   8.473  19.763  0.00  0.00    +0.000 A 
ATOM      2  N   UNL     1       2.360   7.786  19.088  0.00  0.00    +0.000 NA
ATOM      3  N   UNL     1       2.399   6.560  19.680  0.00  0.00    +0.000 N 
ATOM      4  C   UNL     1       3.101   5.397  19.455  0.00  0.00    +0.000 A 
ATOM      5  N   UNL     1       2.638   4.481  20.309  0.00  0.00    +0.000 NA
ATOM      6  N   UNL     1       1.687   5.065  21.131  0.00  0.00    +0.000 NA
ATOM      7  C   UNL     1       1.593   6.300  20.730  0.00  0.00    +0.000 A 
ATOM      8  S   UNL     1       0.682   7.667  21.152  0.00  0.00    +0.000 S 
ENDROOT
BRANCH   1  12
ATOM      9  C   UNL     1       0.341  12.446  18.719  0.00  0.00    +0.000 A 
ATOM     10  C   UNL     1      -0.533  11.638  19.457  0.00  0.00    +0.000 A 
ATOM     11  C   UNL     1      -0.162  10.354  19.831  0.00  0.00    +0.000 A 
ATOM     12  C   UNL     1       1.068   9.843  19.420  0.00  0.00    +0.000 A 
ATOM     13  C   UNL     1       1.934  10.629  18.650  0.00  0.00    +0.000 A 
ATOM     14  C   UNL     1       1.599  11.948  18.323  0.00  0.00    +0.000 A 
BRANCH  14  15
ATOM     15  N   UNL     1       2.429  12.660  17.439  0.00  0.00    +0.000 N 
ATOM     16  H   UNL     1       2.311  12.430  16.459  0.00  0.00    +0.000 HD
ATOM     17  H   UNL     1       3.401  12.662  17.739  0.00  0.00    +0.000 HD
ENDBRANCH  14  15
BRANCH   9  19
ATOM     18  C   UNL     1       0.363  14.694  19.388  0.00  0.00    +0.000 C 
ATOM     19  O   UNL     1       0.028  13.740  18.376  0.00  0.00    +0.000 OA
ENDBRANCH   9  19
ENDBRANCH   1  12
BRANCH   4  20
ATOM     20  C   UNL     1       4.182   5.199  18.495  0.00  0.00    +0.000 A 
ATOM     21  C   UNL     1       3.876   4.955  17.158  0.00  0.00    +0.000 A 
ATOM     22  C   UNL     1       4.891   4.666  16.246  0.00  0.00    +0.000 A 
ATOM     23  C   UNL     1       6.232   4.593  16.650  0.00  0.00    +0.000 A 
ATOM     24  C   UNL     1       6.555   4.831  17.998  0.00  0.00    +0.000 A 
ATOM     25  C   UNL     1       5.525   5.151  18.900  0.00  0.00    +0.000 A 
BRANCH  23  26
ATOM     26  O   UNL     1       7.066   4.274  15.611  0.00  0.00    +0.000 OA
ATOM     27  C   UNL     1       6.558   4.303  14.287  0.00  0.00    +0.000 C 
ENDBRANCH  23  26
BRANCH  24  28
ATOM     28  O   UNL     1       7.865   4.715  18.382  0.00  0.00    +0.000 OA
ATOM     29  C   UNL     1       8.352   5.564  19.412  0.00  0.00    +0.000 C 
ENDBRANCH  24  28
ENDBRANCH   4  20
TORSDOF 6
ENDMDL
MODEL 9
REMARK VINA RESULT:      -6.9      2.194      2.834
REMARK  Name = 
REMARK  9 active torsions:
REMARK  status: ('A' for Active; 'I' for Inactive)
REMARK    1  A    between atoms: C_1  and  O_2
REMARK    2  A    between atoms: O_2  and  C_3
REMARK    3  A    between atoms: C_6  and  C_7
REMARK    4  A    between atoms: C_10  and  C_11
REMARK    5  A    between atoms: C_14  and  O_15
REMARK    6  A    between atoms: O_15  and  C_16
REMARK    7  A    between atoms: C_17  and  O_18
REMARK    8  A    between atoms: O_18  and  C_19
REMARK    9  A    between atoms: C_26  and  N_27
REMARK                            x       y       z     vdW  Elec       q    Type
REMARK                         _______ _______ _______ _____ _____    ______ ____
ROOT
ATOM      1  C   UNL     1       1.208   9.087  19.930  0.00  0.00    +0.000 A 
ATOM      2  N   UNL     1       2.168   8.514  19.248  0.00  0.00    +0.000 NA
ATOM      3  N   UNL     1       2.225   7.232  19.705  0.00  0.00    +0.000 N 
ATOM      4  C   UNL     1       2.993   6.130  19.407  0.00  0.00    +0.000 A 
ATOM      5  N   UNL     1       2.518   5.107  20.122  0.00  0.00    +0.000 NA
ATOM      6  N   UNL     1       1.489   5.559  20.934  0.00  0.00    +0.000 NA
ATOM      7  C   UNL     1       1.365   6.826  20.663  0.00  0.00    +0.000 A 
ATOM      8  S   UNL     1       0.366   8.101  21.165  0.00  0.00    +0.000 S 
ENDROOT
BRANCH   1  12
ATOM      9  C   UNL     1      -0.134  13.073  19.252  0.00  0.00    +0.000 A 
ATOM     10  C   UNL     1       0.705  12.791  20.336  0.00  0.00    +0.000 A 
ATOM     11  C   UNL     1       1.176  11.503  20.549  0.00  0.00    +0.000 A 
ATOM     12  C   UNL     1       0.763  10.470  19.708  0.00  0.00    +0.000 A 
ATOM     13  C   UNL     1      -0.108  10.735  18.644  0.00  0.00    +0.000 A 
ATOM     14  C   UNL     1      -0.535  12.041  18.380  0.00  0.00    +0.000 A 
BRANCH  14  15
ATOM     15  N   UNL     1      -1.510  12.249  17.389  0.00  0.00    +0.000 N 
ATOM     16  H   UNL     1      -2.074  11.438  17.163  0.00  0.00    +0.000 HD
ATOM     17  H   UNL     1      -1.133  12.720  16.569  0.00  0.00    +0.000 HD
ENDBRANCH  14  15
BRANCH   9  19
ATOM     18  C   UNL     1      -1.006  15.059  20.146  0.00  0.00    +0.000 C 
ATOM     19  O   UNL     1      -0.577  14.347  18.982  0.00  0.00    +0.000 OA
ENDBRANCH   9  19
ENDBRANCH   1  12
BRANCH   4  20
ATOM     20  C   UNL     1       4.143   6.082  18.509  0.00  0.00    +0.000 A 
ATOM     21  C   UNL     1       3.980   6.420  17.167  0.00  0.00    +0.000 A 
ATOM     22  C   UNL     1       5.043   6.286  16.274  0.00  0.00    +0.000 A 
ATOM     23  C   UNL     1       6.287   5.790  16.694  0.00  0.00    +0.000 A 
ATOM     24  C   UNL     1       6.463   5.439  18.044  0.00  0.00    +0.000 A 
ATOM     25  C   UNL     1       5.392   5.608  18.939  0.00  0.00    +0.000 A 
BRANCH  23  26
ATOM     26  O   UNL     1       7.185   5.714  15.663  0.00  0.00    +0.000 OA
ATOM     27  C   UNL     1       6.940   4.803  14.603  0.00  0.00    +0.000 C 
ENDBRANCH  23  26
BRANCH  24  28
ATOM     28  O   UNL     1       7.671   4.919  18.427  0.00  0.00    +0.000 OA
ATOM     29  C   UNL     1       8.281   5.410  19.613  0.00  0.00    +0.000 C 
ENDBRANCH  24  28
ENDBRANCH   4  20
TORSDOF 6
ENDMDL
