MODEL 1
REMARK VINA RESULT:      -6.5      0.000      0.000
REMARK  Name = 
REMARK  14 active torsions:
REMARK  status: ('A' for Active; 'I' for Inactive)
REMARK    1  A    between atoms: C_1  and  C_2
REMARK    2  A    between atoms: C_2  and  C_3
REMARK    3  A    between atoms: C_3  and  C_20
REMARK    4  A    between atoms: C_4  and  C_5
REMARK    5  A    between atoms: C_10  and  O_11
REMARK    6  A    between atoms: O_11  and  C_12
REMARK    7  A    between atoms: C_12  and  C_13
REMARK    8  A    between atoms: C_13  and  O_14
REMARK    9  A    between atoms: C_13  and  C_15
REMARK   10  A    between atoms: C_15  and  N_16
REMARK   11  A    between atoms: N_16  and  C_17
REMARK   12  A    between atoms: C_17  and  C_18
REMARK   13  A    between atoms: C_17  and  C_19
REMARK   14  A    between atoms: C_20  and  O_21
REMARK                            x       y       z     vdW  Elec       q    Type
REMARK                         _______ _______ _______ _____ _____    ______ ____
ROOT
ATOM      1  C   UNL     1       2.983   5.730  19.189  0.00  0.00    +0.000 A 
ATOM      2  C   UNL     1       2.280   6.924  19.464  0.00  0.00    +0.000 A 
ATOM      3  C   UNL     1       2.379   8.035  18.630  0.00  0.00    +0.000 A 
ATOM      4  C   UNL     1       3.177   7.970  17.502  0.00  0.00    +0.000 A 
ATOM      5  C   UNL     1       3.867   6.795  17.206  0.00  0.00    +0.000 A 
ATOM      6  C   UNL     1       3.795   5.661  18.041  0.00  0.00    +0.000 A 
ENDROOT
BRANCH   1   8
ATOM      7  C   UNL     1       1.961   3.673  20.268  0.00  0.00    +0.000 C 
ATOM      8  C   UNL     1       2.836   4.699  20.234  0.00  0.00    +0.000 C 
BRANCH   7  10
ATOM      9  C   UNL     1       1.842   2.305  18.050  0.00  0.00    +0.000 C 
ATOM     10  C   UNL     1       1.126   3.107  19.129  0.00  0.00    +0.000 C 
ENDBRANCH   7  10
BRANCH   7  11
ATOM     11  C   UNL     1       1.695   2.972  21.588  0.00  0.00    +0.000 C 
BRANCH  11  12
ATOM     12  O   UNL     1       2.894   2.349  22.041  0.00  0.00    +0.000 OA
ATOM     13  H   UNL     1       2.631   1.694  22.709  0.00  0.00    +0.000 HD
ENDBRANCH  11  12
ENDBRANCH   7  11
ENDBRANCH   1   8
BRANCH   6  14
ATOM     14  O   UNL     1       4.496   4.499  17.777  0.00  0.00    +0.000 OA
BRANCH  14  15
ATOM     15  C   UNL     1       4.645   4.189  16.379  0.00  0.00    +0.000 C 
BRANCH  15  16
ATOM     16  C   UNL     1       6.035   3.682  15.968  0.00  0.00    +0.000 C 
BRANCH  16  17
ATOM     17  O   UNL     1       6.007   3.501  14.538  0.00  0.00    +0.000 OA
ATOM     18  H   UNL     1       5.991   2.549  14.340  0.00  0.00    +0.000 HD
ENDBRANCH  16  17
BRANCH  16  19
ATOM     19  C   UNL     1       7.170   4.655  16.360  0.00  0.00    +0.000 C 
BRANCH  19  20
ATOM     20  N   UNL     1       7.767   4.461  17.680  0.00  0.00    +0.000 NA
ATOM     21  H   UNL     1       8.717   4.100  17.544  0.00  0.00    +0.000 HD
BRANCH  20  22
ATOM     22  C   UNL     1       7.878   5.693  18.477  0.00  0.00    +0.000 C 
ATOM     23  C   UNL     1       7.462   6.934  17.688  0.00  0.00    +0.000 C 
ATOM     24  C   UNL     1       6.998   5.531  19.714  0.00  0.00    +0.000 C 
ENDBRANCH  20  22
ENDBRANCH  19  20
ENDBRANCH  16  19
ENDBRANCH  15  16
ENDBRANCH  14  15
ENDBRANCH   6  14
TORSDOF 11
ENDMDL
MODEL 2
REMARK VINA RESULT:      -6.5      2.105      5.518
REMARK  Name = 
REMARK  14 active torsions:
REMARK  status: ('A' for Active; 'I' for Inactive)
REMARK    1  A    between atoms: C_1  and  C_2
REMARK    2  A    between atoms: C_2  and  C_3
REMARK    3  A    between atoms: C_3  and  C_20
REMARK    4  A    between atoms: C_4  and  C_5
REMARK    5  A    between atoms: C_10  and  O_11
REMARK    6  A    between atoms: O_11  and  C_12
REMARK    7  A    between atoms: C_12  and  C_13
REMARK    8  A    between atoms: C_13  and  O_14
REMARK    9  A    between atoms: C_13  and  C_15
REMARK   10  A    between atoms: C_15  and  N_16
REMARK   11  A    between atoms: N_16  and  C_17
REMARK   12  A    between atoms: C_17  and  C_18
REMARK   13  A    between atoms: C_17  and  C_19
REMARK   14  A    between atoms: C_20  and  O_21
REMARK                            x       y       z     vdW  Elec       q    Type
REMARK                         _______ _______ _______ _____ _____    ______ ____
ROOT
ATOM      1  C   UNL     1       4.347   5.583  17.783  0.00  0.00    +0.000 A 
ATOM      2  C   UNL     1       3.521   6.672  17.425  0.00  0.00    +0.000 A 
ATOM      3  C   UNL     1       2.627   7.235  18.332  0.00  0.00    +0.000 A 
ATOM      4  C   UNL     1       2.549   6.726  19.616  0.00  0.00    +0.000 A 
ATOM      5  C   UNL     1       3.366   5.661  19.992  0.00  0.00    +0.000 A 
ATOM      6  C   UNL     1       4.270   5.064  19.089  0.00  0.00    +0.000 A 
ENDROOT
BRANCH   1   8
ATOM      7  C   UNL     1       6.457   5.284  16.404  0.00  0.00    +0.000 C 
ATOM      8  C   UNL     1       5.154   5.056  16.665  0.00  0.00    +0.000 C 
BRANCH   7  10
ATOM      9  C   UNL     1       7.551   7.371  17.523  0.00  0.00    +0.000 C 
ATOM     10  C   UNL     1       7.517   5.860  17.330  0.00  0.00    +0.000 C 
ENDBRANCH   7  10
BRANCH   7  11
ATOM     11  C   UNL     1       6.996   4.990  15.016  0.00  0.00    +0.000 C 
BRANCH  11  12
ATOM     12  O   UNL     1       6.226   3.947  14.424  0.00  0.00    +0.000 OA
ATOM     13  H   UNL     1       5.401   4.354  14.110  0.00  0.00    +0.000 HD
ENDBRANCH  11  12
ENDBRANCH   7  11
ENDBRANCH   1   8
BRANCH   6  14
ATOM     14  O   UNL     1       5.067   3.989  19.438  0.00  0.00    +0.000 OA
BRANCH  14  15
ATOM     15  C   UNL     1       4.359   2.753  19.639  0.00  0.00    +0.000 C 
BRANCH  15  16
ATOM     16  C   UNL     1       4.203   1.878  18.388  0.00  0.00    +0.000 C 
BRANCH  16  17
ATOM     17  O   UNL     1       4.502   0.525  18.784  0.00  0.00    +0.000 OA
ATOM     18  H   UNL     1       5.152   0.150  18.166  0.00  0.00    +0.000 HD
ENDBRANCH  16  17
BRANCH  16  19
ATOM     19  C   UNL     1       2.787   1.953  17.774  0.00  0.00    +0.000 C 
BRANCH  19  20
ATOM     20  N   UNL     1       1.674   1.620  18.663  0.00  0.00    +0.000 NA
ATOM     21  H   UNL     1       2.068   1.360  19.573  0.00  0.00    +0.000 HD
BRANCH  20  22
ATOM     22  C   UNL     1       0.736   2.729  18.894  0.00  0.00    +0.000 C 
ATOM     23  C   UNL     1       0.816   3.268  20.321  0.00  0.00    +0.000 C 
ATOM     24  C   UNL     1       1.060   3.833  17.890  0.00  0.00    +0.000 C 
ENDBRANCH  20  22
ENDBRANCH  19  20
ENDBRANCH  16  19
ENDBRANCH  15  16
ENDBRANCH  14  15
ENDBRANCH   6  14
TORSDOF 11
ENDMDL
MODEL 3
REMARK VINA RESULT:      -6.2      2.203      4.410
REMARK  Name = 
REMARK  14 active torsions:
REMARK  status: ('A' for Active; 'I' for Inactive)
REMARK    1  A    between atoms: C_1  and  C_2
REMARK    2  A    between atoms: C_2  and  C_3
REMARK    3  A    between atoms: C_3  and  C_20
REMARK    4  A    between atoms: C_4  and  C_5
REMARK    5  A    between atoms: C_10  and  O_11
REMARK    6  A    between atoms: O_11  and  C_12
REMARK    7  A    between atoms: C_12  and  C_13
REMARK    8  A    between atoms: C_13  and  O_14
REMARK    9  A    between atoms: C_13  and  C_15
REMARK   10  A    between atoms: C_15  and  N_16
REMARK   11  A    between atoms: N_16  and  C_17
REMARK   12  A    between atoms: C_17  and  C_18
REMARK   13  A    between atoms: C_17  and  C_19
REMARK   14  A    between atoms: C_20  and  O_21
REMARK                            x       y       z     vdW  Elec       q    Type
REMARK                         _______ _______ _______ _____ _____    ______ ____
ROOT
ATOM      1  C   UNL     1       2.956   5.948  18.264  0.00  0.00    +0.000 A 
ATOM      2  C   UNL     1       1.813   5.221  17.862  0.00  0.00    +0.000 A 
ATOM      3  C   UNL     1       1.830   3.831  17.771  0.00  0.00    +0.000 A 
ATOM      4  C   UNL     1       2.988   3.143  18.087  0.00  0.00    +0.000 A 
ATOM      5  C   UNL     1       4.121   3.843  18.500  0.00  0.00    +0.000 A 
ATOM      6  C   UNL     1       4.134   5.250  18.587  0.00  0.00    +0.000 A 
ENDROOT
BRANCH   1   8
ATOM      7  C   UNL     1       2.031   8.191  19.012  0.00  0.00    +0.000 C 
ATOM      8  C   UNL     1       2.780   7.412  18.204  0.00  0.00    +0.000 C 
BRANCH   7  10
ATOM      9  C   UNL     1       1.379   8.939  21.424  0.00  0.00    +0.000 C 
ATOM     10  C   UNL     1       1.435   7.844  20.367  0.00  0.00    +0.000 C 
ENDBRANCH   7  10
BRANCH   7  11
ATOM     11  C   UNL     1       1.662   9.590  18.555  0.00  0.00    +0.000 C 
BRANCH  11  12
ATOM     12  O   UNL     1       0.503   9.526  17.728  0.00  0.00    +0.000 OA
ATOM     13  H   UNL     1      -0.241   9.844  18.266  0.00  0.00    +0.000 HD
ENDBRANCH  11  12
ENDBRANCH   7  11
ENDBRANCH   1   8
BRANCH   6  14
ATOM     14  O   UNL     1       5.258   5.960  18.967  0.00  0.00    +0.000 OA
BRANCH  14  15
ATOM     15  C   UNL     1       6.415   5.152  19.251  0.00  0.00    +0.000 C 
BRANCH  15  16
ATOM     16  C   UNL     1       7.610   5.371  18.313  0.00  0.00    +0.000 C 
BRANCH  16  17
ATOM     17  O   UNL     1       8.070   4.065  17.911  0.00  0.00    +0.000 OA
ATOM     18  H   UNL     1       8.473   4.130  17.028  0.00  0.00    +0.000 HD
ENDBRANCH  16  17
BRANCH  16  19
ATOM     19  C   UNL     1       7.252   6.216  17.070  0.00  0.00    +0.000 C 
BRANCH  19  20
ATOM     20  N   UNL     1       7.485   5.591  15.768  0.00  0.00    +0.000 NA
ATOM     21  H   UNL     1       7.966   4.700  15.931  0.00  0.00    +0.000 HD
BRANCH  20  22
ATOM     22  C   UNL     1       6.257   5.293  15.016  0.00  0.00    +0.000 C 
ATOM     23  C   UNL     1       5.744   3.878  15.280  0.00  0.00    +0.000 C 
ATOM     24  C   UNL     1       5.202   6.323  15.414  0.00  0.00    +0.000 C 
ENDBRANCH  20  22
ENDBRANCH  19  20
ENDBRANCH  16  19
ENDBRANCH  15  16
ENDBRANCH  14  15
ENDBRANCH   6  14
TORSDOF 11
ENDMDL
MODEL 4
REMARK VINA RESULT:      -6.2      2.206      4.579
REMARK  Name = 
REMARK  14 active torsions:
REMARK  status: ('A' for Active; 'I' for Inactive)
REMARK    1  A    between atoms: C_1  and  C_2
REMARK    2  A    between atoms: C_2  and  C_3
REMARK    3  A    between atoms: C_3  and  C_20
REMARK    4  A    between atoms: C_4  and  C_5
REMARK    5  A    between atoms: C_10  and  O_11
REMARK    6  A    between atoms: O_11  and  C_12
REMARK    7  A    between atoms: C_12  and  C_13
REMARK    8  A    between atoms: C_13  and  O_14
REMARK    9  A    between atoms: C_13  and  C_15
REMARK   10  A    between atoms: C_15  and  N_16
REMARK   11  A    between atoms: N_16  and  C_17
REMARK   12  A    between atoms: C_17  and  C_18
REMARK   13  A    between atoms: C_17  and  C_19
REMARK   14  A    between atoms: C_20  and  O_21
REMARK                            x       y       z     vdW  Elec       q    Type
REMARK                         _______ _______ _______ _____ _____    ______ ____
ROOT
ATOM      1  C   UNL     1       2.802   5.631  18.346  0.00  0.00    +0.000 A 
ATOM      2  C   UNL     1       1.804   4.829  17.750  0.00  0.00    +0.000 A 
ATOM      3  C   UNL     1       1.907   3.440  17.722  0.00  0.00    +0.000 A 
ATOM      4  C   UNL     1       3.007   2.828  18.295  0.00  0.00    +0.000 A 
ATOM      5  C   UNL     1       3.996   3.603  18.900  0.00  0.00    +0.000 A 
ATOM      6  C   UNL     1       3.922   5.011  18.931  0.00  0.00    +0.000 A 
ENDROOT
BRANCH   1   8
ATOM      7  C   UNL     1       1.997   7.926  19.072  0.00  0.00    +0.000 C 
ATOM      8  C   UNL     1       2.571   7.080  18.192  0.00  0.00    +0.000 C 
BRANCH   7  10
ATOM      9  C   UNL     1       0.886   8.740  21.288  0.00  0.00    +0.000 C 
ATOM     10  C   UNL     1       1.731   7.707  20.554  0.00  0.00    +0.000 C 
ENDBRANCH   7  10
BRANCH   7  11
ATOM     11  C   UNL     1       1.490   9.270  18.583  0.00  0.00    +0.000 C 
BRANCH  11  12
ATOM     12  O   UNL     1       2.061   9.554  17.308  0.00  0.00    +0.000 OA
ATOM     13  H   UNL     1       1.660   8.930  16.680  0.00  0.00    +0.000 HD
ENDBRANCH  11  12
ENDBRANCH   7  11
ENDBRANCH   1   8
BRANCH   6  14
ATOM     14  O   UNL     1       4.907   5.794  19.503  0.00  0.00    +0.000 OA
BRANCH  14  15
ATOM     15  C   UNL     1       6.239   5.259  19.398  0.00  0.00    +0.000 C 
BRANCH  15  16
ATOM     16  C   UNL     1       7.130   5.928  18.341  0.00  0.00    +0.000 C 
BRANCH  16  17
ATOM     17  O   UNL     1       8.255   6.495  19.041  0.00  0.00    +0.000 OA
ATOM     18  H   UNL     1       8.953   5.822  19.116  0.00  0.00    +0.000 HD
ENDBRANCH  16  17
BRANCH  16  19
ATOM     19  C   UNL     1       7.619   4.941  17.257  0.00  0.00    +0.000 C 
BRANCH  19  20
ATOM     20  N   UNL     1       7.336   5.304  15.870  0.00  0.00    +0.000 NA
ATOM     21  H   UNL     1       8.233   5.385  15.378  0.00  0.00    +0.000 HD
BRANCH  20  22
ATOM     22  C   UNL     1       6.527   4.316  15.142  0.00  0.00    +0.000 C 
ATOM     23  C   UNL     1       5.032   4.476  15.412  0.00  0.00    +0.000 C 
ATOM     24  C   UNL     1       6.817   4.479  13.651  0.00  0.00    +0.000 C 
ENDBRANCH  20  22
ENDBRANCH  19  20
ENDBRANCH  16  19
ENDBRANCH  15  16
ENDBRANCH  14  15
ENDBRANCH   6  14
TORSDOF 11
ENDMDL
MODEL 5
REMARK VINA RESULT:      -6.1      1.374      1.858
REMARK  Name = 
REMARK  14 active torsions:
REMARK  status: ('A' for Active; 'I' for Inactive)
REMARK    1  A    between atoms: C_1  and  C_2
REMARK    2  A    between atoms: C_2  and  C_3
REMARK    3  A    between atoms: C_3  and  C_20
REMARK    4  A    between atoms: C_4  and  C_5
REMARK    5  A    between atoms: C_10  and  O_11
REMARK    6  A    between atoms: O_11  and  C_12
REMARK    7  A    between atoms: C_12  and  C_13
REMARK    8  A    between atoms: C_13  and  O_14
REMARK    9  A    between atoms: C_13  and  C_15
REMARK   10  A    between atoms: C_15  and  N_16
REMARK   11  A    between atoms: N_16  and  C_17
REMARK   12  A    between atoms: C_17  and  C_18
REMARK   13  A    between atoms: C_17  and  C_19
REMARK   14  A    between atoms: C_20  and  O_21
REMARK                            x       y       z     vdW  Elec       q    Type
REMARK                         _______ _______ _______ _____ _____    ______ ____
ROOT
ATOM      1  C   UNL     1       2.233   6.525  19.787  0.00  0.00    +0.000 A 
ATOM      2  C   UNL     1       1.633   7.557  20.543  0.00  0.00    +0.000 A 
ATOM      3  C   UNL     1       1.342   8.796  19.980  0.00  0.00    +0.000 A 
ATOM      4  C   UNL     1       1.638   9.025  18.648  0.00  0.00    +0.000 A 
ATOM      5  C   UNL     1       2.217   8.014  17.882  0.00  0.00    +0.000 A 
ATOM      6  C   UNL     1       2.534   6.755  18.431  0.00  0.00    +0.000 A 
ENDROOT
BRANCH   1   8
ATOM      7  C   UNL     1       1.863   4.167  20.652  0.00  0.00    +0.000 C 
ATOM      8  C   UNL     1       2.558   5.321  20.576  0.00  0.00    +0.000 C 
BRANCH   7  10
ATOM      9  C   UNL     1       1.170   2.844  18.513  0.00  0.00    +0.000 C 
ATOM     10  C   UNL     1       0.763   3.668  19.728  0.00  0.00    +0.000 C 
ENDBRANCH   7  10
BRANCH   7  11
ATOM     11  C   UNL     1       2.132   3.217  21.803  0.00  0.00    +0.000 C 
BRANCH  11  12
ATOM     12  O   UNL     1       3.283   2.430  21.506  0.00  0.00    +0.000 OA
ATOM     13  H   UNL     1       3.148   2.065  20.615  0.00  0.00    +0.000 HD
ENDBRANCH  11  12
ENDBRANCH   7  11
ENDBRANCH   1   8
BRANCH   6  14
ATOM     14  O   UNL     1       3.134   5.752  17.692  0.00  0.00    +0.000 OA
BRANCH  14  15
ATOM     15  C   UNL     1       4.569   5.829  17.624  0.00  0.00    +0.000 C 
BRANCH  15  16
ATOM     16  C   UNL     1       5.168   5.627  16.225  0.00  0.00    +0.000 C 
BRANCH  16  17
ATOM     17  O   UNL     1       4.944   6.848  15.494  0.00  0.00    +0.000 OA
ATOM     18  H   UNL     1       5.802   7.253  15.281  0.00  0.00    +0.000 HD
ENDBRANCH  16  17
BRANCH  16  19
ATOM     19  C   UNL     1       6.678   5.298  16.260  0.00  0.00    +0.000 C 
BRANCH  19  20
ATOM     20  N   UNL     1       7.584   6.419  16.505  0.00  0.00    +0.000 NA
ATOM     21  H   UNL     1       7.388   7.138  15.800  0.00  0.00    +0.000 HD
BRANCH  20  22
ATOM     22  C   UNL     1       7.422   7.046  17.825  0.00  0.00    +0.000 C 
ATOM     23  C   UNL     1       8.012   6.195  18.948  0.00  0.00    +0.000 C 
ATOM     24  C   UNL     1       8.103   8.412  17.781  0.00  0.00    +0.000 C 
ENDBRANCH  20  22
ENDBRANCH  19  20
ENDBRANCH  16  19
ENDBRANCH  15  16
ENDBRANCH  14  15
ENDBRANCH   6  14
TORSDOF 11
ENDMDL
MODEL 6
REMARK VINA RESULT:      -6.1      1.437      2.478
REMARK  Name = 
REMARK  14 active torsions:
REMARK  status: ('A' for Active; 'I' for Inactive)
REMARK    1  A    between atoms: C_1  and  C_2
REMARK    2  A    between atoms: C_2  and  C_3
REMARK    3  A    between atoms: C_3  and  C_20
REMARK    4  A    between atoms: C_4  and  C_5
REMARK    5  A    between atoms: C_10  and  O_11
REMARK    6  A    between atoms: O_11  and  C_12
REMARK    7  A    between atoms: C_12  and  C_13
REMARK    8  A    between atoms: C_13  and  O_14
REMARK    9  A    between atoms: C_13  and  C_15
REMARK   10  A    between atoms: C_15  and  N_16
REMARK   11  A    between atoms: N_16  and  C_17
REMARK   12  A    between atoms: C_17  and  C_18
REMARK   13  A    between atoms: C_17  and  C_19
REMARK   14  A    between atoms: C_20  and  O_21
REMARK                            x       y       z     vdW  Elec       q    Type
REMARK                         _______ _______ _______ _____ _____    ______ ____
ROOT
ATOM      1  C   UNL     1       2.620   6.179  19.482  0.00  0.00    +0.000 A 
ATOM      2  C   UNL     1       1.732   7.246  19.747  0.00  0.00    +0.000 A 
ATOM      3  C   UNL     1       1.803   8.443  19.040  0.00  0.00    +0.000 A 
ATOM      4  C   UNL     1       2.757   8.594  18.050  0.00  0.00    +0.000 A 
ATOM      5  C   UNL     1       3.633   7.547  17.765  0.00  0.00    +0.000 A 
ATOM      6  C   UNL     1       3.591   6.329  18.475  0.00  0.00    +0.000 A 
ENDROOT
BRANCH   1   8
ATOM      7  C   UNL     1       1.865   3.848  20.144  0.00  0.00    +0.000 C 
ATOM      8  C   UNL     1       2.460   5.032  20.396  0.00  0.00    +0.000 C 
BRANCH   7  10
ATOM      9  C   UNL     1       0.548   2.053  18.785  0.00  0.00    +0.000 C 
ATOM     10  C   UNL     1       1.491   3.249  18.797  0.00  0.00    +0.000 C 
ENDBRANCH   7  10
BRANCH   7  11
ATOM     11  C   UNL     1       1.449   2.967  21.308  0.00  0.00    +0.000 C 
BRANCH  11  12
ATOM     12  O   UNL     1       2.363   3.148  22.386  0.00  0.00    +0.000 OA
ATOM     13  H   UNL     1       2.706   4.054  22.312  0.00  0.00    +0.000 HD
ENDBRANCH  11  12
ENDBRANCH   7  11
ENDBRANCH   1   8
BRANCH   6  14
ATOM     14  O   UNL     1       4.470   5.293  18.223  0.00  0.00    +0.000 OA
BRANCH  14  15
ATOM     15  C   UNL     1       5.552   5.176  19.164  0.00  0.00    +0.000 C 
BRANCH  15  16
ATOM     16  C   UNL     1       6.930   5.593  18.631  0.00  0.00    +0.000 C 
BRANCH  16  17
ATOM     17  O   UNL     1       7.825   5.619  19.761  0.00  0.00    +0.000 OA
ATOM     18  H   UNL     1       8.013   6.544  19.995  0.00  0.00    +0.000 HD
ENDBRANCH  16  17
BRANCH  16  19
ATOM     19  C   UNL     1       7.470   4.634  17.546  0.00  0.00    +0.000 C 
BRANCH  19  20
ATOM     20  N   UNL     1       6.493   4.119  16.587  0.00  0.00    +0.000 NA
ATOM     21  H   UNL     1       5.557   4.301  16.966  0.00  0.00    +0.000 HD
BRANCH  20  22
ATOM     22  C   UNL     1       6.559   4.754  15.262  0.00  0.00    +0.000 C 
ATOM     23  C   UNL     1       6.298   3.762  14.130  0.00  0.00    +0.000 C 
ATOM     24  C   UNL     1       5.526   5.879  15.231  0.00  0.00    +0.000 C 
ENDBRANCH  20  22
ENDBRANCH  19  20
ENDBRANCH  16  19
ENDBRANCH  15  16
ENDBRANCH  14  15
ENDBRANCH   6  14
TORSDOF 11
ENDMDL
MODEL 7
REMARK VINA RESULT:      -6.0      2.629      3.968
REMARK  Name = 
REMARK  14 active torsions:
REMARK  status: ('A' for Active; 'I' for Inactive)
REMARK    1  A    between atoms: C_1  and  C_2
REMARK    2  A    between atoms: C_2  and  C_3
REMARK    3  A    between atoms: C_3  and  C_20
REMARK    4  A    between atoms: C_4  and  C_5
REMARK    5  A    between atoms: C_10  and  O_11
REMARK    6  A    between atoms: O_11  and  C_12
REMARK    7  A    between atoms: C_12  and  C_13
REMARK    8  A    between atoms: C_13  and  O_14
REMARK    9  A    between atoms: C_13  and  C_15
REMARK   10  A    between atoms: C_15  and  N_16
REMARK   11  A    between atoms: N_16  and  C_17
REMARK   12  A    between atoms: C_17  and  C_18
REMARK   13  A    between atoms: C_17  and  C_19
REMARK   14  A    between atoms: C_20  and  O_21
REMARK                            x       y       z     vdW  Elec       q    Type
REMARK                         _______ _______ _______ _____ _____    ______ ____
ROOT
ATOM      1  C   UNL     1       3.259   4.854  17.713  0.00  0.00    +0.000 A 
ATOM      2  C   UNL     1       2.228   5.654  18.253  0.00  0.00    +0.000 A 
ATOM      3  C   UNL     1       2.316   7.044  18.263  0.00  0.00    +0.000 A 
ATOM      4  C   UNL     1       3.433   7.659  17.726  0.00  0.00    +0.000 A 
ATOM      5  C   UNL     1       4.454   6.886  17.176  0.00  0.00    +0.000 A 
ATOM      6  C   UNL     1       4.396   5.477  17.166  0.00  0.00    +0.000 A 
ENDROOT
BRANCH   1   8
ATOM      7  C   UNL     1       2.989   2.702  19.032  0.00  0.00    +0.000 C 
ATOM      8  C   UNL     1       3.037   3.405  17.882  0.00  0.00    +0.000 C 
BRANCH   7  10
ATOM      9  C   UNL     1       1.425   3.241  21.049  0.00  0.00    +0.000 C 
ATOM     10  C   UNL     1       2.825   3.226  20.450  0.00  0.00    +0.000 C 
ENDBRANCH   7  10
BRANCH   7  11
ATOM     11  C   UNL     1       3.152   1.194  18.985  0.00  0.00    +0.000 C 
BRANCH  11  12
ATOM     12  O   UNL     1       4.270   0.867  18.163  0.00  0.00    +0.000 OA
ATOM     13  H   UNL     1       4.134  -0.048  17.861  0.00  0.00    +0.000 HD
ENDBRANCH  11  12
ENDBRANCH   7  11
ENDBRANCH   1   8
BRANCH   6  14
ATOM     14  O   UNL     1       5.413   4.696  16.649  0.00  0.00    +0.000 OA
BRANCH  14  15
ATOM     15  C   UNL     1       6.472   5.430  16.008  0.00  0.00    +0.000 C 
BRANCH  15  16
ATOM     16  C   UNL     1       6.595   5.210  14.494  0.00  0.00    +0.000 C 
BRANCH  16  17
ATOM     17  O   UNL     1       7.965   5.485  14.141  0.00  0.00    +0.000 OA
ATOM     18  H   UNL     1       8.191   6.386  14.427  0.00  0.00    +0.000 HD
ENDBRANCH  16  17
BRANCH  16  19
ATOM     19  C   UNL     1       6.211   3.776  14.062  0.00  0.00    +0.000 C 
BRANCH  19  20
ATOM     20  N   UNL     1       6.448   3.433  12.660  0.00  0.00    +0.000 NA
ATOM     21  H   UNL     1       7.358   2.962  12.603  0.00  0.00    +0.000 HD
BRANCH  20  22
ATOM     22  C   UNL     1       5.448   2.520  12.087  0.00  0.00    +0.000 C 
ATOM     23  C   UNL     1       4.355   3.263  11.320  0.00  0.00    +0.000 C 
ATOM     24  C   UNL     1       6.177   1.547  11.164  0.00  0.00    +0.000 C 
ENDBRANCH  20  22
ENDBRANCH  19  20
ENDBRANCH  16  19
ENDBRANCH  15  16
ENDBRANCH  14  15
ENDBRANCH   6  14
TORSDOF 11
ENDMDL
MODEL 8
REMARK VINA RESULT:      -6.0      1.725      2.731
REMARK  Name = 
REMARK  14 active torsions:
REMARK  status: ('A' for Active; 'I' for Inactive)
REMARK    1  A    between atoms: C_1  and  C_2
REMARK    2  A    between atoms: C_2  and  C_3
REMARK    3  A    between atoms: C_3  and  C_20
REMARK    4  A    between atoms: C_4  and  C_5
REMARK    5  A    between atoms: C_10  and  O_11
REMARK    6  A    between atoms: O_11  and  C_12
REMARK    7  A    between atoms: C_12  and  C_13
REMARK    8  A    between atoms: C_13  and  O_14
REMARK    9  A    between atoms: C_13  and  C_15
REMARK   10  A    between atoms: C_15  and  N_16
REMARK   11  A    between atoms: N_16  and  C_17
REMARK   12  A    between atoms: C_17  and  C_18
REMARK   13  A    between atoms: C_17  and  C_19
REMARK   14  A    between atoms: C_20  and  O_21
REMARK                            x       y       z     vdW  Elec       q    Type
REMARK                         _______ _______ _______ _____ _____    ______ ____
ROOT
ATOM      1  C   UNL     1       2.934   6.051  19.363  0.00  0.00    +0.000 A 
ATOM      2  C   UNL     1       2.060   7.142  19.569  0.00  0.00    +0.000 A 
ATOM      3  C   UNL     1       2.122   8.283  18.773  0.00  0.00    +0.000 A 
ATOM      4  C   UNL     1       3.052   8.351  17.752  0.00  0.00    +0.000 A 
ATOM      5  C   UNL     1       3.913   7.278  17.524  0.00  0.00    +0.000 A 
ATOM      6  C   UNL     1       3.881   6.117  18.324  0.00  0.00    +0.000 A 
ENDROOT
BRANCH   1   8
ATOM      7  C   UNL     1       1.945   3.924  20.334  0.00  0.00    +0.000 C 
ATOM      8  C   UNL     1       2.789   4.976  20.364  0.00  0.00    +0.000 C 
BRANCH   7  10
ATOM      9  C   UNL     1       0.992   1.869  19.041  0.00  0.00    +0.000 C 
ATOM     10  C   UNL     1       1.160   3.379  19.151  0.00  0.00    +0.000 C 
ENDBRANCH   7  10
BRANCH   7  11
ATOM     11  C   UNL     1       1.664   3.166  21.618  0.00  0.00    +0.000 C 
BRANCH  11  12
ATOM     12  O   UNL     1       2.833   2.450  22.009  0.00  0.00    +0.000 OA
ATOM     13  H   UNL     1       3.546   2.735  21.412  0.00  0.00    +0.000 HD
ENDBRANCH  11  12
ENDBRANCH   7  11
ENDBRANCH   1   8
BRANCH   6  14
ATOM     14  O   UNL     1       4.747   5.057  18.129  0.00  0.00    +0.000 OA
BRANCH  14  15
ATOM     15  C   UNL     1       6.123   5.430  17.936  0.00  0.00    +0.000 C 
BRANCH  15  16
ATOM     16  C   UNL     1       6.765   4.911  16.642  0.00  0.00    +0.000 C 
BRANCH  16  17
ATOM     17  O   UNL     1       7.930   4.154  17.027  0.00  0.00    +0.000 OA
ATOM     18  H   UNL     1       7.669   3.484  17.682  0.00  0.00    +0.000 HD
ENDBRANCH  16  17
BRANCH  16  19
ATOM     19  C   UNL     1       5.809   4.028  15.809  0.00  0.00    +0.000 C 
BRANCH  19  20
ATOM     20  N   UNL     1       6.377   3.394  14.620  0.00  0.00    +0.000 NA
ATOM     21  H   UNL     1       5.889   2.503  14.477  0.00  0.00    +0.000 HD
BRANCH  20  22
ATOM     22  C   UNL     1       6.220   4.179  13.386  0.00  0.00    +0.000 C 
ATOM     23  C   UNL     1       7.481   4.968  13.035  0.00  0.00    +0.000 C 
ATOM     24  C   UNL     1       5.867   3.213  12.258  0.00  0.00    +0.000 C 
ENDBRANCH  20  22
ENDBRANCH  19  20
ENDBRANCH  16  19
ENDBRANCH  15  16
ENDBRANCH  14  15
ENDBRANCH   6  14
TORSDOF 11
ENDMDL
MODEL 9
REMARK VINA RESULT:      -6.0      1.306      1.927
REMARK  Name = 
REMARK  14 active torsions:
REMARK  status: ('A' for Active; 'I' for Inactive)
REMARK    1  A    between atoms: C_1  and  C_2
REMARK    2  A    between atoms: C_2  and  C_3
REMARK    3  A    between atoms: C_3  and  C_20
REMARK    4  A    between atoms: C_4  and  C_5
REMARK    5  A    between atoms: C_10  and  O_11
REMARK    6  A    between atoms: O_11  and  C_12
REMARK    7  A    between atoms: C_12  and  C_13
REMARK    8  A    between atoms: C_13  and  O_14
REMARK    9  A    between atoms: C_13  and  C_15
REMARK   10  A    between atoms: C_15  and  N_16
REMARK   11  A    between atoms: N_16  and  C_17
REMARK   12  A    between atoms: C_17  and  C_18
REMARK   13  A    between atoms: C_17  and  C_19
REMARK   14  A    between atoms: C_20  and  O_21
REMARK                            x       y       z     vdW  Elec       q    Type
REMARK                         _______ _______ _______ _____ _____    ______ ____
ROOT
ATOM      1  C   UNL     1       2.342   5.526  17.881  0.00  0.00    +0.000 A 
ATOM      2  C   UNL     1       1.497   6.654  17.985  0.00  0.00    +0.000 A 
ATOM      3  C   UNL     1       1.999   7.949  17.892  0.00  0.00    +0.000 A 
ATOM      4  C   UNL     1       3.353   8.142  17.686  0.00  0.00    +0.000 A 
ATOM      5  C   UNL     1       4.201   7.041  17.566  0.00  0.00    +0.000 A 
ATOM      6  C   UNL     1       3.720   5.719  17.670  0.00  0.00    +0.000 A 
ENDROOT
BRANCH   1   8
ATOM      7  C   UNL     1       1.562   3.536  19.250  0.00  0.00    +0.000 C 
ATOM      8  C   UNL     1       1.650   4.242  18.104  0.00  0.00    +0.000 C 
BRANCH   7  10
ATOM      9  C   UNL     1       1.846   2.958  21.778  0.00  0.00    +0.000 C 
ATOM     10  C   UNL     1       1.857   4.001  20.668  0.00  0.00    +0.000 C 
ENDBRANCH   7  10
BRANCH   7  11
ATOM     11  C   UNL     1       1.164   2.074  19.189  0.00  0.00    +0.000 C 
BRANCH  11  12
ATOM     12  O   UNL     1       2.232   1.317  18.624  0.00  0.00    +0.000 OA
ATOM     13  H   UNL     1       2.872   1.163  19.339  0.00  0.00    +0.000 HD
ENDBRANCH  11  12
ENDBRANCH   7  11
ENDBRANCH   1   8
BRANCH   6  14
ATOM     14  O   UNL     1       4.552   4.618  17.582  0.00  0.00    +0.000 OA
BRANCH  14  15
ATOM     15  C   UNL     1       4.688   4.069  16.259  0.00  0.00    +0.000 C 
BRANCH  15  16
ATOM     16  C   UNL     1       5.977   4.457  15.520  0.00  0.00    +0.000 C 
BRANCH  16  17
ATOM     17  O   UNL     1       5.679   5.640  14.753  0.00  0.00    +0.000 OA
ATOM     18  H   UNL     1       5.902   5.477  13.820  0.00  0.00    +0.000 HD
ENDBRANCH  16  17
BRANCH  16  19
ATOM     19  C   UNL     1       7.159   4.728  16.477  0.00  0.00    +0.000 C 
BRANCH  19  20
ATOM     20  N   UNL     1       7.648   6.105  16.536  0.00  0.00    +0.000 NA
ATOM     21  H   UNL     1       7.184   6.633  15.789  0.00  0.00    +0.000 HD
BRANCH  20  22
ATOM     22  C   UNL     1       7.358   6.794  17.802  0.00  0.00    +0.000 C 
ATOM     23  C   UNL     1       7.905   6.038  19.012  0.00  0.00    +0.000 C 
ATOM     24  C   UNL     1       7.971   8.190  17.727  0.00  0.00    +0.000 C 
ENDBRANCH  20  22
ENDBRANCH  19  20
ENDBRANCH  16  19
ENDBRANCH  15  16
ENDBRANCH  14  15
ENDBRANCH   6  14
TORSDOF 11
ENDMDL
