MODEL 1
REMARK VINA RESULT:      -9.7      0.000      0.000
REMARK  Name = 
REMARK  6 active torsions:
REMARK  status: ('A' for Active; 'I' for Inactive)
REMARK    1  A    between atoms: C_1  and  C_2
REMARK    2  A    between atoms: C_4  and  C_5
REMARK    3  A    between atoms: C_12  and  C_13
REMARK    4  A    between atoms: N_15  and  N_16
REMARK    5  A    between atoms: N_16  and  S_17
REMARK    6  A    between atoms: S_17  and  C_20
REMARK                            x       y       z     vdW  Elec       q    Type
REMARK                         _______ _______ _______ _____ _____    ______ ____
ROOT
ATOM      1  C   UNL     1       4.807   3.208  18.784  0.00  0.00    +0.000 C 
ATOM      2  O   UNL     1       5.014   3.064  19.987  0.00  0.00    +0.000 OA
ATOM      3  N   UNL     1       3.774   2.563  18.126  0.00  0.00    +0.000 N 
ATOM      4  H   UNL     1       3.548   2.758  17.149  0.00  0.00    +0.000 HD
ENDROOT
BRANCH   1  10
ATOM      5  C   UNL     1       7.870   7.183  18.362  0.00  0.00    +0.000 C 
ATOM      6  C   UNL     1       7.139   6.040  17.728  0.00  0.00    +0.000 A 
ATOM      7  C   UNL     1       7.207   5.815  16.348  0.00  0.00    +0.000 A 
ATOM      8  C   UNL     1       6.541   4.733  15.736  0.00  0.00    +0.000 A 
ATOM      9  C   UNL     1       5.768   3.891  16.569  0.00  0.00    +0.000 A 
ATOM     10  C   UNL     1       5.664   4.112  17.957  0.00  0.00    +0.000 A 
ATOM     11  C   UNL     1       6.369   5.181  18.514  0.00  0.00    +0.000 A 
ATOM     12  F   UNL     1       6.323   5.413  19.836  0.00  0.00    +0.000 F 
BRANCH   8  13
ATOM     13  C   UNL     1       6.647   4.516  14.271  0.00  0.00    +0.000 A 
ATOM     14  C   UNL     1       5.813   3.596  13.601  0.00  0.00    +0.000 A 
ATOM     15  C   UNL     1       5.942   3.348  12.232  0.00  0.00    +0.000 A 
ATOM     16  C   UNL     1       6.897   4.032  11.488  0.00  0.00    +0.000 A 
ATOM     17  C   UNL     1       7.720   4.961  12.118  0.00  0.00    +0.000 A 
ATOM     18  C   UNL     1       7.600   5.195  13.492  0.00  0.00    +0.000 A 
ENDBRANCH   8  13
ENDBRANCH   1  10
BRANCH   3  19
ATOM     19  N   UNL     1       2.804   1.755  18.869  0.00  0.00    +0.000 NA
ATOM     20  H   UNL     1       3.181   0.997  19.449  0.00  0.00    +0.000 HD
BRANCH  19  21
ATOM     21  S   UNL     1       1.419   2.585  19.391  0.00  0.00    +0.000 S 
ATOM     22  O   UNL     1       0.331   2.239  18.500  0.00  0.00    +0.000 OA
ATOM     23  O   UNL     1       1.297   2.319  20.814  0.00  0.00    +0.000 OA
BRANCH  21  24
ATOM     24  C   UNL     1       1.768   4.294  19.184  0.00  0.00    +0.000 A 
ATOM     25  C   UNL     1       1.772   4.860  17.901  0.00  0.00    +0.000 A 
ATOM     26  C   UNL     1       2.199   6.179  17.726  0.00  0.00    +0.000 A 
ATOM     27  C   UNL     1       2.614   6.930  18.826  0.00  0.00    +0.000 A 
ATOM     28  C   UNL     1       2.593   6.368  20.102  0.00  0.00    +0.000 A 
ATOM     29  C   UNL     1       2.174   5.048  20.276  0.00  0.00    +0.000 A 
ATOM     30  F   UNL     1       2.168   4.530  21.510  0.00  0.00    +0.000 F 
ENDBRANCH  21  24
ENDBRANCH  19  21
ENDBRANCH   3  19
TORSDOF 5
ENDMDL
MODEL 2
REMARK VINA RESULT:      -9.5      2.998      7.712
REMARK  Name = 
REMARK  6 active torsions:
REMARK  status: ('A' for Active; 'I' for Inactive)
REMARK    1  A    between atoms: C_1  and  C_2
REMARK    2  A    between atoms: C_4  and  C_5
REMARK    3  A    between atoms: C_12  and  C_13
REMARK    4  A    between atoms: N_15  and  N_16
REMARK    5  A    between atoms: N_16  and  S_17
REMARK    6  A    between atoms: S_17  and  C_20
REMARK                            x       y       z     vdW  Elec       q    Type
REMARK                         _______ _______ _______ _____ _____    ______ ____
ROOT
ATOM      1  C   UNL     1       4.975   4.345  18.606  0.00  0.00    +0.000 C 
ATOM      2  O   UNL     1       6.104   4.365  19.094  0.00  0.00    +0.000 OA
ATOM      3  N   UNL     1       4.747   4.024  17.279  0.00  0.00    +0.000 N 
ATOM      4  H   UNL     1       3.803   3.918  16.902  0.00  0.00    +0.000 HD
ENDROOT
BRANCH   1  10
ATOM      5  C   UNL     1       1.270   2.895  21.692  0.00  0.00    +0.000 C 
ATOM      6  C   UNL     1       1.962   3.976  20.920  0.00  0.00    +0.000 A 
ATOM      7  C   UNL     1       1.478   5.289  20.922  0.00  0.00    +0.000 A 
ATOM      8  C   UNL     1       2.127   6.323  20.217  0.00  0.00    +0.000 A 
ATOM      9  C   UNL     1       3.279   5.978  19.473  0.00  0.00    +0.000 A 
ATOM     10  C   UNL     1       3.771   4.658  19.435  0.00  0.00    +0.000 A 
ATOM     11  C   UNL     1       3.106   3.680  20.177  0.00  0.00    +0.000 A 
ATOM     12  F   UNL     1       3.555   2.415  20.193  0.00  0.00    +0.000 F 
BRANCH   8  13
ATOM     13  C   UNL     1       1.594   7.709  20.253  0.00  0.00    +0.000 A 
ATOM     14  C   UNL     1       0.960   8.223  21.404  0.00  0.00    +0.000 A 
ATOM     15  C   UNL     1       0.410   9.507  21.429  0.00  0.00    +0.000 A 
ATOM     16  C   UNL     1       0.499  10.324  20.306  0.00  0.00    +0.000 A 
ATOM     17  C   UNL     1       1.137   9.851  19.164  0.00  0.00    +0.000 A 
ATOM     18  C   UNL     1       1.672   8.558  19.137  0.00  0.00    +0.000 A 
ENDBRANCH   8  13
ENDBRANCH   1  10
BRANCH   3  19
ATOM     19  N   UNL     1       5.845   3.582  16.418  0.00  0.00    +0.000 NA
ATOM     20  H   UNL     1       5.740   2.665  15.969  0.00  0.00    +0.000 HD
BRANCH  19  21
ATOM     21  S   UNL     1       6.661   4.818  15.591  0.00  0.00    +0.000 S 
ATOM     22  O   UNL     1       5.938   6.054  15.814  0.00  0.00    +0.000 OA
ATOM     23  O   UNL     1       8.056   4.719  15.984  0.00  0.00    +0.000 OA
BRANCH  21  24
ATOM     24  C   UNL     1       6.546   4.423  13.883  0.00  0.00    +0.000 A 
ATOM     25  C   UNL     1       5.555   3.540  13.432  0.00  0.00    +0.000 A 
ATOM     26  C   UNL     1       5.563   3.110  12.103  0.00  0.00    +0.000 A 
ATOM     27  C   UNL     1       6.551   3.562  11.228  0.00  0.00    +0.000 A 
ATOM     28  C   UNL     1       7.526   4.452  11.678  0.00  0.00    +0.000 A 
ATOM     29  C   UNL     1       7.522   4.877  13.008  0.00  0.00    +0.000 A 
ATOM     30  F   UNL     1       8.472   5.727  13.416  0.00  0.00    +0.000 F 
ENDBRANCH  21  24
ENDBRANCH  19  21
ENDBRANCH   3  19
TORSDOF 5
ENDMDL
MODEL 3
REMARK VINA RESULT:      -9.4      0.881      1.268
REMARK  Name = 
REMARK  6 active torsions:
REMARK  status: ('A' for Active; 'I' for Inactive)
REMARK    1  A    between atoms: C_1  and  C_2
REMARK    2  A    between atoms: C_4  and  C_5
REMARK    3  A    between atoms: C_12  and  C_13
REMARK    4  A    between atoms: N_15  and  N_16
REMARK    5  A    between atoms: N_16  and  S_17
REMARK    6  A    between atoms: S_17  and  C_20
REMARK                            x       y       z     vdW  Elec       q    Type
REMARK                         _______ _______ _______ _____ _____    ______ ____
ROOT
ATOM      1  C   UNL     1       4.792   3.278  18.840  0.00  0.00    +0.000 C 
ATOM      2  O   UNL     1       5.042   3.105  20.031  0.00  0.00    +0.000 OA
ATOM      3  N   UNL     1       3.709   2.683  18.215  0.00  0.00    +0.000 N 
ATOM      4  H   UNL     1       3.451   2.903  17.251  0.00  0.00    +0.000 HD
ENDROOT
BRANCH   1  10
ATOM      5  C   UNL     1       7.876   7.226  18.333  0.00  0.00    +0.000 C 
ATOM      6  C   UNL     1       7.133   6.078  17.723  0.00  0.00    +0.000 A 
ATOM      7  C   UNL     1       7.188   5.831  16.345  0.00  0.00    +0.000 A 
ATOM      8  C   UNL     1       6.511   4.745  15.755  0.00  0.00    +0.000 A 
ATOM      9  C   UNL     1       5.740   3.921  16.608  0.00  0.00    +0.000 A 
ATOM     10  C   UNL     1       5.647   4.164  17.992  0.00  0.00    +0.000 A 
ATOM     11  C   UNL     1       6.364   5.236  18.528  0.00  0.00    +0.000 A 
ATOM     12  F   UNL     1       6.329   5.489  19.846  0.00  0.00    +0.000 F 
BRANCH   8  13
ATOM     13  C   UNL     1       6.604   4.505  14.293  0.00  0.00    +0.000 A 
ATOM     14  C   UNL     1       5.740   3.601  13.639  0.00  0.00    +0.000 A 
ATOM     15  C   UNL     1       5.855   3.331  12.273  0.00  0.00    +0.000 A 
ATOM     16  C   UNL     1       6.827   3.976  11.516  0.00  0.00    +0.000 A 
ATOM     17  C   UNL     1       7.680   4.889  12.130  0.00  0.00    +0.000 A 
ATOM     18  C   UNL     1       7.573   5.145  13.501  0.00  0.00    +0.000 A 
ENDBRANCH   8  13
ENDBRANCH   1  10
BRANCH   3  19
ATOM     19  N   UNL     1       2.740   1.899  18.985  0.00  0.00    +0.000 NA
ATOM     20  H   UNL     1       3.109   1.108  19.524  0.00  0.00    +0.000 HD
BRANCH  19  21
ATOM     21  S   UNL     1       1.424   2.775  19.599  0.00  0.00    +0.000 S 
ATOM     22  O   UNL     1       0.278   2.507  18.754  0.00  0.00    +0.000 OA
ATOM     23  O   UNL     1       1.359   2.472  21.018  0.00  0.00    +0.000 OA
BRANCH  21  24
ATOM     24  C   UNL     1       1.843   4.473  19.422  0.00  0.00    +0.000 A 
ATOM     25  C   UNL     1       2.058   5.265  20.557  0.00  0.00    +0.000 A 
ATOM     26  C   UNL     1       2.238   6.643  20.417  0.00  0.00    +0.000 A 
ATOM     27  C   UNL     1       2.209   7.226  19.149  0.00  0.00    +0.000 A 
ATOM     28  C   UNL     1       2.009   6.431  18.022  0.00  0.00    +0.000 A 
ATOM     29  C   UNL     1       1.822   5.055  18.163  0.00  0.00    +0.000 A 
ATOM     30  F   UNL     1       1.627   4.315  17.064  0.00  0.00    +0.000 F 
ENDBRANCH  21  24
ENDBRANCH  19  21
ENDBRANCH   3  19
TORSDOF 5
ENDMDL
MODEL 4
REMARK VINA RESULT:      -9.1      5.026      6.449
REMARK  Name = 
REMARK  6 active torsions:
REMARK  status: ('A' for Active; 'I' for Inactive)
REMARK    1  A    between atoms: C_1  and  C_2
REMARK    2  A    between atoms: C_4  and  C_5
REMARK    3  A    between atoms: C_12  and  C_13
REMARK    4  A    between atoms: N_15  and  N_16
REMARK    5  A    between atoms: N_16  and  S_17
REMARK    6  A    between atoms: S_17  and  C_20
REMARK                            x       y       z     vdW  Elec       q    Type
REMARK                         _______ _______ _______ _____ _____    ______ ____
ROOT
ATOM      1  C   UNL     1       1.967   7.856  20.030  0.00  0.00    +0.000 C 
ATOM      2  O   UNL     1       1.684   8.681  19.163  0.00  0.00    +0.000 OA
ATOM      3  N   UNL     1       1.958   8.166  21.379  0.00  0.00    +0.000 N 
ATOM      4  H   UNL     1       2.102   7.455  22.100  0.00  0.00    +0.000 HD
ENDROOT
BRANCH   1  10
ATOM      5  C   UNL     1       1.228   2.891  20.428  0.00  0.00    +0.000 C 
ATOM      6  C   UNL     1       1.996   4.044  19.858  0.00  0.00    +0.000 A 
ATOM      7  C   UNL     1       3.091   3.834  19.010  0.00  0.00    +0.000 A 
ATOM      8  C   UNL     1       3.814   4.905  18.449  0.00  0.00    +0.000 A 
ATOM      9  C   UNL     1       3.411   6.215  18.799  0.00  0.00    +0.000 A 
ATOM     10  C   UNL     1       2.329   6.451  19.670  0.00  0.00    +0.000 A 
ATOM     11  C   UNL     1       1.629   5.353  20.173  0.00  0.00    +0.000 A 
ATOM     12  F   UNL     1       0.573   5.530  20.983  0.00  0.00    +0.000 F 
BRANCH   8  13
ATOM     13  C   UNL     1       4.961   4.646  17.542  0.00  0.00    +0.000 A 
ATOM     14  C   UNL     1       6.293   4.837  17.966  0.00  0.00    +0.000 A 
ATOM     15  C   UNL     1       7.374   4.644  17.103  0.00  0.00    +0.000 A 
ATOM     16  C   UNL     1       7.154   4.234  15.793  0.00  0.00    +0.000 A 
ATOM     17  C   UNL     1       5.852   4.017  15.352  0.00  0.00    +0.000 A 
ATOM     18  C   UNL     1       4.770   4.226  16.214  0.00  0.00    +0.000 A 
ENDBRANCH   8  13
ENDBRANCH   1  10
BRANCH   3  19
ATOM     19  N   UNL     1       1.497   9.477  21.842  0.00  0.00    +0.000 NA
ATOM     20  H   UNL     1       1.791  10.291  21.292  0.00  0.00    +0.000 HD
BRANCH  19  21
ATOM     21  S   UNL     1      -0.028   9.488  22.585  0.00  0.00    +0.000 S 
ATOM     22  O   UNL     1      -0.782   8.363  22.069  0.00  0.00    +0.000 OA
ATOM     23  O   UNL     1       0.214   9.598  24.013  0.00  0.00    +0.000 OA
BRANCH  21  24
ATOM     24  C   UNL     1      -0.820  10.963  22.051  0.00  0.00    +0.000 A 
ATOM     25  C   UNL     1      -1.246  11.911  22.990  0.00  0.00    +0.000 A 
ATOM     26  C   UNL     1      -2.009  13.005  22.574  0.00  0.00    +0.000 A 
ATOM     27  C   UNL     1      -2.341  13.153  21.227  0.00  0.00    +0.000 A 
ATOM     28  C   UNL     1      -1.901  12.215  20.294  0.00  0.00    +0.000 A 
ATOM     29  C   UNL     1      -1.145  11.118  20.711  0.00  0.00    +0.000 A 
ATOM     30  F   UNL     1      -0.740  10.229  19.796  0.00  0.00    +0.000 F 
ENDBRANCH  21  24
ENDBRANCH  19  21
ENDBRANCH   3  19
TORSDOF 5
ENDMDL
MODEL 5
REMARK VINA RESULT:      -8.9      5.045      6.395
REMARK  Name = 
REMARK  6 active torsions:
REMARK  status: ('A' for Active; 'I' for Inactive)
REMARK    1  A    between atoms: C_1  and  C_2
REMARK    2  A    between atoms: C_4  and  C_5
REMARK    3  A    between atoms: C_12  and  C_13
REMARK    4  A    between atoms: N_15  and  N_16
REMARK    5  A    between atoms: N_16  and  S_17
REMARK    6  A    between atoms: S_17  and  C_20
REMARK                            x       y       z     vdW  Elec       q    Type
REMARK                         _______ _______ _______ _____ _____    ______ ____
ROOT
ATOM      1  C   UNL     1       1.974   7.869  20.012  0.00  0.00    +0.000 C 
ATOM      2  O   UNL     1       1.698   8.707  19.156  0.00  0.00    +0.000 OA
ATOM      3  N   UNL     1       1.970   8.161  21.365  0.00  0.00    +0.000 N 
ATOM      4  H   UNL     1       2.108   7.440  22.076  0.00  0.00    +0.000 HD
ENDROOT
BRANCH   1  10
ATOM      5  C   UNL     1       1.184   2.907  20.342  0.00  0.00    +0.000 C 
ATOM      6  C   UNL     1       1.965   4.059  19.788  0.00  0.00    +0.000 A 
ATOM      7  C   UNL     1       3.058   3.849  18.939  0.00  0.00    +0.000 A 
ATOM      8  C   UNL     1       3.793   4.921  18.393  0.00  0.00    +0.000 A 
ATOM      9  C   UNL     1       3.403   6.230  18.760  0.00  0.00    +0.000 A 
ATOM     10  C   UNL     1       2.322   6.465  19.633  0.00  0.00    +0.000 A 
ATOM     11  C   UNL     1       1.611   5.367  20.120  0.00  0.00    +0.000 A 
ATOM     12  F   UNL     1       0.556   5.544  20.932  0.00  0.00    +0.000 F 
BRANCH   8  13
ATOM     13  C   UNL     1       4.938   4.663  17.483  0.00  0.00    +0.000 A 
ATOM     14  C   UNL     1       6.272   4.803  17.921  0.00  0.00    +0.000 A 
ATOM     15  C   UNL     1       7.353   4.612  17.057  0.00  0.00    +0.000 A 
ATOM     16  C   UNL     1       7.131   4.252  15.733  0.00  0.00    +0.000 A 
ATOM     17  C   UNL     1       5.826   4.085  15.278  0.00  0.00    +0.000 A 
ATOM     18  C   UNL     1       4.745   4.294  16.141  0.00  0.00    +0.000 A 
ENDBRANCH   8  13
ENDBRANCH   1  10
BRANCH   3  19
ATOM     19  N   UNL     1       1.522   9.470  21.845  0.00  0.00    +0.000 NA
ATOM     20  H   UNL     1       1.882  10.293  21.349  0.00  0.00    +0.000 HD
BRANCH  19  21
ATOM     21  S   UNL     1      -0.051   9.510  22.479  0.00  0.00    +0.000 S 
ATOM     22  O   UNL     1      -0.739   8.313  22.038  0.00  0.00    +0.000 OA
ATOM     23  O   UNL     1       0.088   9.778  23.900  0.00  0.00    +0.000 OA
BRANCH  21  24
ATOM     24  C   UNL     1      -0.841  10.893  21.738  0.00  0.00    +0.000 A 
ATOM     25  C   UNL     1      -0.406  11.367  20.493  0.00  0.00    +0.000 A 
ATOM     26  C   UNL     1      -0.932  12.555  19.980  0.00  0.00    +0.000 A 
ATOM     27  C   UNL     1      -1.892  13.264  20.704  0.00  0.00    +0.000 A 
ATOM     28  C   UNL     1      -2.333  12.780  21.935  0.00  0.00    +0.000 A 
ATOM     29  C   UNL     1      -1.802  11.597  22.451  0.00  0.00    +0.000 A 
ATOM     30  F   UNL     1      -2.238  11.157  23.637  0.00  0.00    +0.000 F 
ENDBRANCH  21  24
ENDBRANCH  19  21
ENDBRANCH   3  19
TORSDOF 5
ENDMDL
MODEL 6
REMARK VINA RESULT:      -8.9      3.044      7.607
REMARK  Name = 
REMARK  6 active torsions:
REMARK  status: ('A' for Active; 'I' for Inactive)
REMARK    1  A    between atoms: C_1  and  C_2
REMARK    2  A    between atoms: C_4  and  C_5
REMARK    3  A    between atoms: C_12  and  C_13
REMARK    4  A    between atoms: N_15  and  N_16
REMARK    5  A    between atoms: N_16  and  S_17
REMARK    6  A    between atoms: S_17  and  C_20
REMARK                            x       y       z     vdW  Elec       q    Type
REMARK                         _______ _______ _______ _____ _____    ______ ____
ROOT
ATOM      1  C   UNL     1       4.368   3.938  18.010  0.00  0.00    +0.000 C 
ATOM      2  O   UNL     1       4.120   3.038  17.211  0.00  0.00    +0.000 OA
ATOM      3  N   UNL     1       5.555   4.650  17.980  0.00  0.00    +0.000 N 
ATOM      4  H   UNL     1       5.719   5.458  18.584  0.00  0.00    +0.000 HD
ENDROOT
BRANCH   1  10
ATOM      5  C   UNL     1       1.320   2.731  21.832  0.00  0.00    +0.000 C 
ATOM      6  C   UNL     1       1.892   3.764  20.910  0.00  0.00    +0.000 A 
ATOM      7  C   UNL     1       1.491   5.103  20.985  0.00  0.00    +0.000 A 
ATOM      8  C   UNL     1       2.032   6.091  20.138  0.00  0.00    +0.000 A 
ATOM      9  C   UNL     1       2.983   5.674  19.178  0.00  0.00    +0.000 A 
ATOM     10  C   UNL     1       3.383   4.328  19.065  0.00  0.00    +0.000 A 
ATOM     11  C   UNL     1       2.837   3.396  19.950  0.00  0.00    +0.000 A 
ATOM     12  F   UNL     1       3.210   2.107  19.900  0.00  0.00    +0.000 F 
BRANCH   8  13
ATOM     13  C   UNL     1       1.595   7.505  20.256  0.00  0.00    +0.000 A 
ATOM     14  C   UNL     1       1.008   7.998  21.441  0.00  0.00    +0.000 A 
ATOM     15  C   UNL     1       0.547   9.313  21.542  0.00  0.00    +0.000 A 
ATOM     16  C   UNL     1       0.680  10.181  20.464  0.00  0.00    +0.000 A 
ATOM     17  C   UNL     1       1.274   9.730  19.290  0.00  0.00    +0.000 A 
ATOM     18  C   UNL     1       1.720   8.407  19.186  0.00  0.00    +0.000 A 
ENDBRANCH   8  13
ENDBRANCH   1  10
BRANCH   3  19
ATOM     19  N   UNL     1       6.531   4.431  16.910  0.00  0.00    +0.000 NA
ATOM     20  H   UNL     1       6.692   3.459  16.622  0.00  0.00    +0.000 HD
BRANCH  19  21
ATOM     21  S   UNL     1       6.620   5.663  15.746  0.00  0.00    +0.000 S 
ATOM     22  O   UNL     1       5.355   6.371  15.751  0.00  0.00    +0.000 OA
ATOM     23  O   UNL     1       7.851   6.385  16.011  0.00  0.00    +0.000 OA
BRANCH  21  24
ATOM     24  C   UNL     1       6.783   4.856  14.194  0.00  0.00    +0.000 A 
ATOM     25  C   UNL     1       7.807   5.229  13.313  0.00  0.00    +0.000 A 
ATOM     26  C   UNL     1       7.840   4.695  12.022  0.00  0.00    +0.000 A 
ATOM     27  C   UNL     1       6.858   3.790  11.615  0.00  0.00    +0.000 A 
ATOM     28  C   UNL     1       5.851   3.411  12.501  0.00  0.00    +0.000 A 
ATOM     29  C   UNL     1       5.814   3.950  13.788  0.00  0.00    +0.000 A 
ATOM     30  F   UNL     1       4.832   3.573  14.617  0.00  0.00    +0.000 F 
ENDBRANCH  21  24
ENDBRANCH  19  21
ENDBRANCH   3  19
TORSDOF 5
ENDMDL
MODEL 7
REMARK VINA RESULT:      -8.8      4.837      8.074
REMARK  Name = 
REMARK  6 active torsions:
REMARK  status: ('A' for Active; 'I' for Inactive)
REMARK    1  A    between atoms: C_1  and  C_2
REMARK    2  A    between atoms: C_4  and  C_5
REMARK    3  A    between atoms: C_12  and  C_13
REMARK    4  A    between atoms: N_15  and  N_16
REMARK    5  A    between atoms: N_16  and  S_17
REMARK    6  A    between atoms: S_17  and  C_20
REMARK                            x       y       z     vdW  Elec       q    Type
REMARK                         _______ _______ _______ _____ _____    ______ ____
ROOT
ATOM      1  C   UNL     1       2.399   8.418  18.062  0.00  0.00    +0.000 C 
ATOM      2  O   UNL     1       3.186   9.127  17.438  0.00  0.00    +0.000 OA
ATOM      3  N   UNL     1       2.562   7.048  18.173  0.00  0.00    +0.000 N 
ATOM      4  H   UNL     1       1.960   6.477  18.769  0.00  0.00    +0.000 HD
ENDROOT
BRANCH   1  10
ATOM      5  C   UNL     1      -0.056   9.656  22.281  0.00  0.00    +0.000 C 
ATOM      6  C   UNL     1       0.002   9.604  20.785  0.00  0.00    +0.000 A 
ATOM      7  C   UNL     1      -1.065  10.067  20.004  0.00  0.00    +0.000 A 
ATOM      8  C   UNL     1      -1.021  10.043  18.595  0.00  0.00    +0.000 A 
ATOM      9  C   UNL     1       0.137   9.503  17.991  0.00  0.00    +0.000 A 
ATOM     10  C   UNL     1       1.212   9.008  18.755  0.00  0.00    +0.000 A 
ATOM     11  C   UNL     1       1.129   9.084  20.146  0.00  0.00    +0.000 A 
ATOM     12  F   UNL     1       2.140   8.650  20.915  0.00  0.00    +0.000 F 
BRANCH   8  13
ATOM     13  C   UNL     1      -2.164  10.556  17.799  0.00  0.00    +0.000 A 
ATOM     14  C   UNL     1      -3.189  11.323  18.391  0.00  0.00    +0.000 A 
ATOM     15  C   UNL     1      -4.294  11.765  17.659  0.00  0.00    +0.000 A 
ATOM     16  C   UNL     1      -4.394  11.469  16.304  0.00  0.00    +0.000 A 
ATOM     17  C   UNL     1      -3.387  10.733  15.687  0.00  0.00    +0.000 A 
ATOM     18  C   UNL     1      -2.290  10.278  16.427  0.00  0.00    +0.000 A 
ENDBRANCH   8  13
ENDBRANCH   1  10
BRANCH   3  19
ATOM     19  N   UNL     1       3.757   6.392  17.637  0.00  0.00    +0.000 NA
ATOM     20  H   UNL     1       4.436   6.990  17.154  0.00  0.00    +0.000 HD
BRANCH  19  21
ATOM     21  S   UNL     1       4.315   5.062  18.530  0.00  0.00    +0.000 S 
ATOM     22  O   UNL     1       4.941   4.137  17.606  0.00  0.00    +0.000 OA
ATOM     23  O   UNL     1       5.084   5.607  19.635  0.00  0.00    +0.000 OA
BRANCH  21  24
ATOM     24  C   UNL     1       2.886   4.284  19.192  0.00  0.00    +0.000 A 
ATOM     25  C   UNL     1       2.683   4.247  20.578  0.00  0.00    +0.000 A 
ATOM     26  C   UNL     1       1.630   3.497  21.105  0.00  0.00    +0.000 A 
ATOM     27  C   UNL     1       0.779   2.791  20.253  0.00  0.00    +0.000 A 
ATOM     28  C   UNL     1       0.976   2.843  18.874  0.00  0.00    +0.000 A 
ATOM     29  C   UNL     1       2.033   3.587  18.347  0.00  0.00    +0.000 A 
ATOM     30  F   UNL     1       2.203   3.615  17.020  0.00  0.00    +0.000 F 
ENDBRANCH  21  24
ENDBRANCH  19  21
ENDBRANCH   3  19
TORSDOF 5
ENDMDL
MODEL 8
REMARK VINA RESULT:      -8.7      5.514      8.719
REMARK  Name = 
REMARK  6 active torsions:
REMARK  status: ('A' for Active; 'I' for Inactive)
REMARK    1  A    between atoms: C_1  and  C_2
REMARK    2  A    between atoms: C_4  and  C_5
REMARK    3  A    between atoms: C_12  and  C_13
REMARK    4  A    between atoms: N_15  and  N_16
REMARK    5  A    between atoms: N_16  and  S_17
REMARK    6  A    between atoms: S_17  and  C_20
REMARK                            x       y       z     vdW  Elec       q    Type
REMARK                         _______ _______ _______ _____ _____    ______ ____
ROOT
ATOM      1  C   UNL     1       0.938   9.101  21.142  0.00  0.00    +0.000 C 
ATOM      2  O   UNL     1       1.411   9.093  22.277  0.00  0.00    +0.000 OA
ATOM      3  N   UNL     1       1.336   8.203  20.167  0.00  0.00    +0.000 N 
ATOM      4  H   UNL     1       0.874   8.152  19.256  0.00  0.00    +0.000 HD
ENDROOT
BRANCH   1  10
ATOM      5  C   UNL     1      -1.948  13.091  22.195  0.00  0.00    +0.000 C 
ATOM      6  C   UNL     1      -1.533  12.008  21.247  0.00  0.00    +0.000 A 
ATOM      7  C   UNL     1      -2.148  11.867  19.997  0.00  0.00    +0.000 A 
ATOM      8  C   UNL     1      -1.758  10.866  19.084  0.00  0.00    +0.000 A 
ATOM      9  C   UNL     1      -0.734   9.980  19.491  0.00  0.00    +0.000 A 
ATOM     10  C   UNL     1      -0.118  10.085  20.753  0.00  0.00    +0.000 A 
ATOM     11  C   UNL     1      -0.522  11.115  21.606  0.00  0.00    +0.000 A 
ATOM     12  F   UNL     1       0.056  11.272  22.807  0.00  0.00    +0.000 F 
BRANCH   8  13
ATOM     13  C   UNL     1      -2.422  10.755  17.761  0.00  0.00    +0.000 A 
ATOM     14  C   UNL     1      -3.601  11.472  17.466  0.00  0.00    +0.000 A 
ATOM     15  C   UNL     1      -4.260  11.333  16.242  0.00  0.00    +0.000 A 
ATOM     16  C   UNL     1      -3.744  10.487  15.267  0.00  0.00    +0.000 A 
ATOM     17  C   UNL     1      -2.570   9.783  15.520  0.00  0.00    +0.000 A 
ATOM     18  C   UNL     1      -1.922   9.912  16.754  0.00  0.00    +0.000 A 
ENDBRANCH   8  13
ENDBRANCH   1  10
BRANCH   3  19
ATOM     19  N   UNL     1       2.271   7.121  20.483  0.00  0.00    +0.000 NA
ATOM     20  H   UNL     1       2.087   6.586  21.339  0.00  0.00    +0.000 HD
BRANCH  19  21
ATOM     21  S   UNL     1       2.943   6.330  19.142  0.00  0.00    +0.000 S 
ATOM     22  O   UNL     1       2.599   7.091  17.957  0.00  0.00    +0.000 OA
ATOM     23  O   UNL     1       4.339   6.094  19.465  0.00  0.00    +0.000 OA
BRANCH  21  24
ATOM     24  C   UNL     1       2.136   4.772  19.039  0.00  0.00    +0.000 A 
ATOM     25  C   UNL     1       1.257   4.369  20.053  0.00  0.00    +0.000 A 
ATOM     26  C   UNL     1       0.738   3.072  20.046  0.00  0.00    +0.000 A 
ATOM     27  C   UNL     1       1.092   2.184  19.029  0.00  0.00    +0.000 A 
ATOM     28  C   UNL     1       1.956   2.595  18.015  0.00  0.00    +0.000 A 
ATOM     29  C   UNL     1       2.479   3.889  18.026  0.00  0.00    +0.000 A 
ATOM     30  F   UNL     1       3.311   4.257  17.043  0.00  0.00    +0.000 F 
ENDBRANCH  21  24
ENDBRANCH  19  21
ENDBRANCH   3  19
TORSDOF 5
ENDMDL
MODEL 9
REMARK VINA RESULT:      -8.7      5.313      8.435
REMARK  Name = 
REMARK  6 active torsions:
REMARK  status: ('A' for Active; 'I' for Inactive)
REMARK    1  A    between atoms: C_1  and  C_2
REMARK    2  A    between atoms: C_4  and  C_5
REMARK    3  A    between atoms: C_12  and  C_13
REMARK    4  A    between atoms: N_15  and  N_16
REMARK    5  A    between atoms: N_16  and  S_17
REMARK    6  A    between atoms: S_17  and  C_20
REMARK                            x       y       z     vdW  Elec       q    Type
REMARK                         _______ _______ _______ _____ _____    ______ ____
ROOT
ATOM      1  C   UNL     1       1.198   8.943  20.743  0.00  0.00    +0.000 C 
ATOM      2  O   UNL     1       1.200   8.714  21.951  0.00  0.00    +0.000 OA
ATOM      3  N   UNL     1       1.851   8.130  19.833  0.00  0.00    +0.000 N 
ATOM      4  H   UNL     1       1.769   8.270  18.824  0.00  0.00    +0.000 HD
ENDROOT
BRANCH   1  10
ATOM      5  C   UNL     1       0.263  13.890  20.648  0.00  0.00    +0.000 C 
ATOM      6  C   UNL     1      -0.007  12.512  20.128  0.00  0.00    +0.000 A 
ATOM      7  C   UNL     1      -0.973  12.289  19.138  0.00  0.00    +0.000 A 
ATOM      8  C   UNL     1      -1.228  11.002  18.623  0.00  0.00    +0.000 A 
ATOM      9  C   UNL     1      -0.489   9.927  19.168  0.00  0.00    +0.000 A 
ATOM     10  C   UNL     1       0.469  10.122  20.182  0.00  0.00    +0.000 A 
ATOM     11  C   UNL     1       0.703  11.422  20.634  0.00  0.00    +0.000 A 
ATOM     12  F   UNL     1       1.627  11.660  21.578  0.00  0.00    +0.000 F 
BRANCH   8  13
ATOM     13  C   UNL     1      -2.249  10.805  17.563  0.00  0.00    +0.000 A 
ATOM     14  C   UNL     1      -2.031   9.919  16.487  0.00  0.00    +0.000 A 
ATOM     15  C   UNL     1      -2.964   9.767  15.459  0.00  0.00    +0.000 A 
ATOM     16  C   UNL     1      -4.156  10.483  15.489  0.00  0.00    +0.000 A 
ATOM     17  C   UNL     1      -4.408  11.348  16.549  0.00  0.00    +0.000 A 
ATOM     18  C   UNL     1      -3.464  11.511  17.569  0.00  0.00    +0.000 A 
ENDBRANCH   8  13
ENDBRANCH   1  10
BRANCH   3  19
ATOM     19  N   UNL     1       2.488   6.884  20.266  0.00  0.00    +0.000 NA
ATOM     20  H   UNL     1       2.033   6.374  21.032  0.00  0.00    +0.000 HD
BRANCH  19  21
ATOM     21  S   UNL     1       3.276   6.010  19.045  0.00  0.00    +0.000 S 
ATOM     22  O   UNL     1       3.143   6.754  17.808  0.00  0.00    +0.000 OA
ATOM     23  O   UNL     1       4.599   5.696  19.556  0.00  0.00    +0.000 OA
BRANCH  21  24
ATOM     24  C   UNL     1       2.387   4.505  18.870  0.00  0.00    +0.000 A 
ATOM     25  C   UNL     1       1.358   4.189  19.767  0.00  0.00    +0.000 A 
ATOM     26  C   UNL     1       0.759   2.928  19.719  0.00  0.00    +0.000 A 
ATOM     27  C   UNL     1       1.181   1.989  18.777  0.00  0.00    +0.000 A 
ATOM     28  C   UNL     1       2.195   2.314  17.877  0.00  0.00    +0.000 A 
ATOM     29  C   UNL     1       2.799   3.572  17.929  0.00  0.00    +0.000 A 
ATOM     30  F   UNL     1       3.774   3.856  17.057  0.00  0.00    +0.000 F 
ENDBRANCH  21  24
ENDBRANCH  19  21
ENDBRANCH   3  19
TORSDOF 5
ENDMDL
