MODEL 1
REMARK VINA RESULT:      -7.5      0.000      0.000
REMARK  Name = 
REMARK  6 active torsions:
REMARK  status: ('A' for Active; 'I' for Inactive)
REMARK    1  A    between atoms: C_2  and  O_3
REMARK    2  A    between atoms: C_2  and  C_18
REMARK    3  A    between atoms: O_3  and  C_4
REMARK    4  A    between atoms: C_4  and  C_5
REMARK    5  A    between atoms: N_7  and  C_8
REMARK    6  A    between atoms: C_8  and  C_9
REMARK                            x       y       z     vdW  Elec       q    Type
REMARK                         _______ _______ _______ _____ _____    ______ ____
ROOT
ATOM      1  C   UNL     1       4.782   6.508  17.490  0.00  0.00    +0.000 A 
ATOM      2  C   UNL     1       4.021   5.370  17.335  0.00  0.00    +0.000 A 
ATOM      3  N   UNL     1       2.746   5.788  17.574  0.00  0.00    +0.000 N 
ATOM      4  N   UNL     1       2.709   7.105  17.852  0.00  0.00    +0.000 NA
ATOM      5  N   UNL     1       3.954   7.559  17.796  0.00  0.00    +0.000 NA
ENDROOT
BRANCH   1   6
ATOM      6  C   UNL     1       6.254   6.678  17.410  0.00  0.00    +0.000 C 
BRANCH   6   7
ATOM      7  O   UNL     1       6.778   6.408  16.100  0.00  0.00    +0.000 OA
BRANCH   7   9
ATOM      8  O   UNL     1       7.888   4.503  16.736  0.00  0.00    +0.000 OA
ATOM      9  C   UNL     1       7.262   5.158  15.917  0.00  0.00    +0.000 C 
BRANCH   9  10
ATOM     10  C   UNL     1       6.957   4.680  14.540  0.00  0.00    +0.000 A 
ATOM     11  C   UNL     1       7.758   5.144  13.487  0.00  0.00    +0.000 A 
ATOM     12  C   UNL     1       7.491   4.749  12.174  0.00  0.00    +0.000 A 
ATOM     13  C   UNL     1       6.427   3.890  11.908  0.00  0.00    +0.000 A 
ATOM     14  C   UNL     1       5.632   3.417  12.951  0.00  0.00    +0.000 A 
ATOM     15  C   UNL     1       5.895   3.808  14.265  0.00  0.00    +0.000 A 
ENDBRANCH   9  10
ENDBRANCH   7   9
ENDBRANCH   6   7
ENDBRANCH   1   6
BRANCH   3  16
ATOM     16  C   UNL     1       1.552   4.973  17.691  0.00  0.00    +0.000 C 
BRANCH  16  17
ATOM     17  C   UNL     1       1.562   4.145  18.950  0.00  0.00    +0.000 A 
ATOM     18  C   UNL     1       1.806   4.742  20.199  0.00  0.00    +0.000 A 
ATOM     19  C   UNL     1       1.839   3.965  21.356  0.00  0.00    +0.000 A 
ATOM     20  C   UNL     1       1.628   2.594  21.270  0.00  0.00    +0.000 A 
ATOM     21  F   UNL     1       1.667   1.849  22.383  0.00  0.00    +0.000 F 
ATOM     22  C   UNL     1       1.383   1.984  20.047  0.00  0.00    +0.000 A 
ATOM     23  C   UNL     1       1.352   2.756  18.886  0.00  0.00    +0.000 A 
ENDBRANCH  16  17
ENDBRANCH   3  16
TORSDOF 6
ENDMDL
MODEL 2
REMARK VINA RESULT:      -7.5      0.110      1.431
REMARK  Name = 
REMARK  6 active torsions:
REMARK  status: ('A' for Active; 'I' for Inactive)
REMARK    1  A    between atoms: C_2  and  O_3
REMARK    2  A    between atoms: C_2  and  C_18
REMARK    3  A    between atoms: O_3  and  C_4
REMARK    4  A    between atoms: C_4  and  C_5
REMARK    5  A    between atoms: N_7  and  C_8
REMARK    6  A    between atoms: C_8  and  C_9
REMARK                            x       y       z     vdW  Elec       q    Type
REMARK                         _______ _______ _______ _____ _____    ______ ____
ROOT
ATOM      1  C   UNL     1       4.846   6.522  17.533  0.00  0.00    +0.000 A 
ATOM      2  C   UNL     1       4.069   5.385  17.495  0.00  0.00    +0.000 A 
ATOM      3  N   UNL     1       2.793   5.852  17.615  0.00  0.00    +0.000 N 
ATOM      4  N   UNL     1       2.773   7.195  17.712  0.00  0.00    +0.000 NA
ATOM      5  N   UNL     1       4.028   7.617  17.654  0.00  0.00    +0.000 NA
ENDROOT
BRANCH   1   6
ATOM      6  C   UNL     1       6.324   6.658  17.502  0.00  0.00    +0.000 C 
BRANCH   6   7
ATOM      7  O   UNL     1       6.880   6.420  16.199  0.00  0.00    +0.000 OA
BRANCH   7   9
ATOM      8  O   UNL     1       7.893   4.443  16.779  0.00  0.00    +0.000 OA
ATOM      9  C   UNL     1       7.311   5.157  15.976  0.00  0.00    +0.000 C 
BRANCH   9  10
ATOM     10  C   UNL     1       7.008   4.745  14.578  0.00  0.00    +0.000 A 
ATOM     11  C   UNL     1       5.925   3.880  14.363  0.00  0.00    +0.000 A 
ATOM     12  C   UNL     1       5.622   3.441  13.072  0.00  0.00    +0.000 A 
ATOM     13  C   UNL     1       6.395   3.863  11.993  0.00  0.00    +0.000 A 
ATOM     14  C   UNL     1       7.466   4.730  12.197  0.00  0.00    +0.000 A 
ATOM     15  C   UNL     1       7.774   5.173  13.485  0.00  0.00    +0.000 A 
ENDBRANCH   9  10
ENDBRANCH   7   9
ENDBRANCH   6   7
ENDBRANCH   1   6
BRANCH   3  16
ATOM     16  C   UNL     1       1.578   5.078  17.782  0.00  0.00    +0.000 C 
BRANCH  16  17
ATOM     17  C   UNL     1       1.640   4.198  19.004  0.00  0.00    +0.000 A 
ATOM     18  C   UNL     1       1.444   2.811  18.899  0.00  0.00    +0.000 A 
ATOM     19  C   UNL     1       1.476   2.006  20.037  0.00  0.00    +0.000 A 
ATOM     20  C   UNL     1       1.705   2.584  21.280  0.00  0.00    +0.000 A 
ATOM     21  F   UNL     1       1.729   1.809  22.373  0.00  0.00    +0.000 F 
ATOM     22  C   UNL     1       1.904   3.952  21.407  0.00  0.00    +0.000 A 
ATOM     23  C   UNL     1       1.869   4.761  20.272  0.00  0.00    +0.000 A 
ENDBRANCH  16  17
ENDBRANCH   3  16
TORSDOF 6
ENDMDL
MODEL 3
REMARK VINA RESULT:      -7.4      1.669      2.247
REMARK  Name = 
REMARK  6 active torsions:
REMARK  status: ('A' for Active; 'I' for Inactive)
REMARK    1  A    between atoms: C_2  and  O_3
REMARK    2  A    between atoms: C_2  and  C_18
REMARK    3  A    between atoms: O_3  and  C_4
REMARK    4  A    between atoms: C_4  and  C_5
REMARK    5  A    between atoms: N_7  and  C_8
REMARK    6  A    between atoms: C_8  and  C_9
REMARK                            x       y       z     vdW  Elec       q    Type
REMARK                         _______ _______ _______ _____ _____    ______ ____
ROOT
ATOM      1  C   UNL     1       5.648   4.700  16.254  0.00  0.00    +0.000 A 
ATOM      2  C   UNL     1       4.802   5.658  16.769  0.00  0.00    +0.000 A 
ATOM      3  N   UNL     1       3.801   4.938  17.350  0.00  0.00    +0.000 N 
ATOM      4  N   UNL     1       4.011   3.615  17.217  0.00  0.00    +0.000 NA
ATOM      5  N   UNL     1       5.148   3.457  16.552  0.00  0.00    +0.000 NA
ENDROOT
BRANCH   1   6
ATOM      6  C   UNL     1       6.891   4.865  15.460  0.00  0.00    +0.000 C 
BRANCH   6   7
ATOM      7  O   UNL     1       6.686   5.609  14.248  0.00  0.00    +0.000 OA
BRANCH   7   9
ATOM      8  O   UNL     1       8.446   5.682  12.777  0.00  0.00    +0.000 OA
ATOM      9  C   UNL     1       7.405   5.188  13.182  0.00  0.00    +0.000 C 
BRANCH   9  10
ATOM     10  C   UNL     1       6.731   4.034  12.525  0.00  0.00    +0.000 A 
ATOM     11  C   UNL     1       7.533   3.074  11.890  0.00  0.00    +0.000 A 
ATOM     12  C   UNL     1       6.946   1.991  11.233  0.00  0.00    +0.000 A 
ATOM     13  C   UNL     1       5.559   1.860  11.208  0.00  0.00    +0.000 A 
ATOM     14  C   UNL     1       4.756   2.804  11.846  0.00  0.00    +0.000 A 
ATOM     15  C   UNL     1       5.337   3.889  12.504  0.00  0.00    +0.000 A 
ENDBRANCH   9  10
ENDBRANCH   7   9
ENDBRANCH   6   7
ENDBRANCH   1   6
BRANCH   3  16
ATOM     16  C   UNL     1       2.564   5.438  17.918  0.00  0.00    +0.000 C 
BRANCH  16  17
ATOM     17  C   UNL     1       2.120   4.617  19.102  0.00  0.00    +0.000 A 
ATOM     18  C   UNL     1       2.688   4.825  20.370  0.00  0.00    +0.000 A 
ATOM     19  C   UNL     1       2.292   4.045  21.456  0.00  0.00    +0.000 A 
ATOM     20  C   UNL     1       1.329   3.058  21.278  0.00  0.00    +0.000 A 
ATOM     21  F   UNL     1       0.955   2.306  22.321  0.00  0.00    +0.000 F 
ATOM     22  C   UNL     1       0.753   2.838  20.033  0.00  0.00    +0.000 A 
ATOM     23  C   UNL     1       1.149   3.614  18.944  0.00  0.00    +0.000 A 
ENDBRANCH  16  17
ENDBRANCH   3  16
TORSDOF 6
ENDMDL
MODEL 4
REMARK VINA RESULT:      -7.3      4.848      6.694
REMARK  Name = 
REMARK  6 active torsions:
REMARK  status: ('A' for Active; 'I' for Inactive)
REMARK    1  A    between atoms: C_2  and  O_3
REMARK    2  A    between atoms: C_2  and  C_18
REMARK    3  A    between atoms: O_3  and  C_4
REMARK    4  A    between atoms: C_4  and  C_5
REMARK    5  A    between atoms: N_7  and  C_8
REMARK    6  A    between atoms: C_8  and  C_9
REMARK                            x       y       z     vdW  Elec       q    Type
REMARK                         _______ _______ _______ _____ _____    ______ ____
ROOT
ATOM      1  C   UNL     1       7.808   8.170  17.839  0.00  0.00    +0.000 A 
ATOM      2  C   UNL     1       7.960   6.970  18.498  0.00  0.00    +0.000 A 
ATOM      3  N   UNL     1       7.110   6.125  17.848  0.00  0.00    +0.000 N 
ATOM      4  N   UNL     1       6.474   6.753  16.841  0.00  0.00    +0.000 NA
ATOM      5  N   UNL     1       6.902   8.008  16.821  0.00  0.00    +0.000 NA
ENDROOT
BRANCH   1   6
ATOM      6  C   UNL     1       8.432   9.487  18.119  0.00  0.00    +0.000 C 
BRANCH   6   7
ATOM      7  O   UNL     1       9.254   9.478  19.297  0.00  0.00    +0.000 OA
BRANCH   7   9
ATOM      8  O   UNL     1       9.122  10.945  21.058  0.00  0.00    +0.000 OA
ATOM      9  C   UNL     1       9.412  10.678  19.901  0.00  0.00    +0.000 C 
BRANCH   9  10
ATOM     10  C   UNL     1       9.970  11.672  18.943  0.00  0.00    +0.000 A 
ATOM     11  C   UNL     1      11.287  11.492  18.496  0.00  0.00    +0.000 A 
ATOM     12  C   UNL     1      11.865  12.415  17.622  0.00  0.00    +0.000 A 
ATOM     13  C   UNL     1      11.132  13.519  17.190  0.00  0.00    +0.000 A 
ATOM     14  C   UNL     1       9.819  13.699  17.621  0.00  0.00    +0.000 A 
ATOM     15  C   UNL     1       9.237  12.779  18.495  0.00  0.00    +0.000 A 
ENDBRANCH   9  10
ENDBRANCH   7   9
ENDBRANCH   6   7
ENDBRANCH   1   6
BRANCH   3  16
ATOM     16  C   UNL     1       6.755   4.768  18.216  0.00  0.00    +0.000 C 
BRANCH  16  17
ATOM     17  C   UNL     1       5.261   4.561  18.216  0.00  0.00    +0.000 A 
ATOM     18  C   UNL     1       4.646   3.784  17.221  0.00  0.00    +0.000 A 
ATOM     19  C   UNL     1       3.261   3.618  17.212  0.00  0.00    +0.000 A 
ATOM     20  C   UNL     1       2.490   4.226  18.196  0.00  0.00    +0.000 A 
ATOM     21  F   UNL     1       1.160   4.071  18.182  0.00  0.00    +0.000 F 
ATOM     22  C   UNL     1       3.079   4.997  19.191  0.00  0.00    +0.000 A 
ATOM     23  C   UNL     1       4.463   5.168  19.201  0.00  0.00    +0.000 A 
ENDBRANCH  16  17
ENDBRANCH   3  16
TORSDOF 6
ENDMDL
MODEL 5
REMARK VINA RESULT:      -7.3      2.247      2.882
REMARK  Name = 
REMARK  6 active torsions:
REMARK  status: ('A' for Active; 'I' for Inactive)
REMARK    1  A    between atoms: C_2  and  O_3
REMARK    2  A    between atoms: C_2  and  C_18
REMARK    3  A    between atoms: O_3  and  C_4
REMARK    4  A    between atoms: C_4  and  C_5
REMARK    5  A    between atoms: N_7  and  C_8
REMARK    6  A    between atoms: C_8  and  C_9
REMARK                            x       y       z     vdW  Elec       q    Type
REMARK                         _______ _______ _______ _____ _____    ______ ____
ROOT
ATOM      1  C   UNL     1       6.681   5.322  16.894  0.00  0.00    +0.000 A 
ATOM      2  C   UNL     1       5.569   5.927  17.438  0.00  0.00    +0.000 A 
ATOM      3  N   UNL     1       5.436   5.338  18.660  0.00  0.00    +0.000 N 
ATOM      4  N   UNL     1       6.407   4.429  18.871  0.00  0.00    +0.000 NA
ATOM      5  N   UNL     1       7.182   4.417  17.796  0.00  0.00    +0.000 NA
ENDROOT
BRANCH   1   6
ATOM      6  C   UNL     1       7.297   5.505  15.556  0.00  0.00    +0.000 C 
BRANCH   6   7
ATOM      7  O   UNL     1       6.542   4.886  14.503  0.00  0.00    +0.000 OA
BRANCH   7   9
ATOM      8  O   UNL     1       8.035   5.582  12.905  0.00  0.00    +0.000 OA
ATOM      9  C   UNL     1       7.166   4.822  13.304  0.00  0.00    +0.000 C 
BRANCH   9  10
ATOM     10  C   UNL     1       6.620   3.699  12.494  0.00  0.00    +0.000 A 
ATOM     11  C   UNL     1       7.528   2.825  11.880  0.00  0.00    +0.000 A 
ATOM     12  C   UNL     1       7.065   1.775  11.084  0.00  0.00    +0.000 A 
ATOM     13  C   UNL     1       5.696   1.592  10.900  0.00  0.00    +0.000 A 
ATOM     14  C   UNL     1       4.787   2.450  11.516  0.00  0.00    +0.000 A 
ATOM     15  C   UNL     1       5.245   3.501  12.312  0.00  0.00    +0.000 A 
ENDBRANCH   9  10
ENDBRANCH   7   9
ENDBRANCH   6   7
ENDBRANCH   1   6
BRANCH   3  16
ATOM     16  C   UNL     1       4.344   5.488  19.603  0.00  0.00    +0.000 C 
BRANCH  16  17
ATOM     17  C   UNL     1       3.214   4.536  19.305  0.00  0.00    +0.000 A 
ATOM     18  C   UNL     1       2.385   4.734  18.188  0.00  0.00    +0.000 A 
ATOM     19  C   UNL     1       1.326   3.865  17.933  0.00  0.00    +0.000 A 
ATOM     20  C   UNL     1       1.092   2.797  18.792  0.00  0.00    +0.000 A 
ATOM     21  F   UNL     1       0.069   1.967  18.549  0.00  0.00    +0.000 F 
ATOM     22  C   UNL     1       1.900   2.581  19.901  0.00  0.00    +0.000 A 
ATOM     23  C   UNL     1       2.959   3.450  20.161  0.00  0.00    +0.000 A 
ENDBRANCH  16  17
ENDBRANCH   3  16
TORSDOF 6
ENDMDL
MODEL 6
REMARK VINA RESULT:      -7.2      2.072      2.903
REMARK  Name = 
REMARK  6 active torsions:
REMARK  status: ('A' for Active; 'I' for Inactive)
REMARK    1  A    between atoms: C_2  and  O_3
REMARK    2  A    between atoms: C_2  and  C_18
REMARK    3  A    between atoms: O_3  and  C_4
REMARK    4  A    between atoms: C_4  and  C_5
REMARK    5  A    between atoms: N_7  and  C_8
REMARK    6  A    between atoms: C_8  and  C_9
REMARK                            x       y       z     vdW  Elec       q    Type
REMARK                         _______ _______ _______ _____ _____    ______ ____
ROOT
ATOM      1  C   UNL     1       6.471   5.283  16.367  0.00  0.00    +0.000 A 
ATOM      2  C   UNL     1       5.715   4.549  17.255  0.00  0.00    +0.000 A 
ATOM      3  N   UNL     1       5.307   5.465  18.179  0.00  0.00    +0.000 N 
ATOM      4  N   UNL     1       5.770   6.694  17.883  0.00  0.00    +0.000 NA
ATOM      5  N   UNL     1       6.480   6.595  16.767  0.00  0.00    +0.000 NA
ENDROOT
BRANCH   1   6
ATOM      6  C   UNL     1       7.229   4.832  15.174  0.00  0.00    +0.000 C 
BRANCH   6   7
ATOM      7  O   UNL     1       6.661   5.299  13.940  0.00  0.00    +0.000 OA
BRANCH   7   9
ATOM      8  O   UNL     1       8.302   5.698  12.386  0.00  0.00    +0.000 OA
ATOM      9  C   UNL     1       7.384   5.025  12.830  0.00  0.00    +0.000 C 
BRANCH   9  10
ATOM     10  C   UNL     1       6.885   3.783  12.179  0.00  0.00    +0.000 A 
ATOM     11  C   UNL     1       5.501   3.559  12.156  0.00  0.00    +0.000 A 
ATOM     12  C   UNL     1       4.986   2.392  11.586  0.00  0.00    +0.000 A 
ATOM     13  C   UNL     1       5.849   1.448  11.034  0.00  0.00    +0.000 A 
ATOM     14  C   UNL     1       7.226   1.668  11.044  0.00  0.00    +0.000 A 
ATOM     15  C   UNL     1       7.745   2.832  11.613  0.00  0.00    +0.000 A 
ENDBRANCH   9  10
ENDBRANCH   7   9
ENDBRANCH   6   7
ENDBRANCH   1   6
BRANCH   3  16
ATOM     16  C   UNL     1       4.604   5.217  19.422  0.00  0.00    +0.000 C 
BRANCH  16  17
ATOM     17  C   UNL     1       3.391   4.347  19.216  0.00  0.00    +0.000 A 
ATOM     18  C   UNL     1       2.427   4.679  18.249  0.00  0.00    +0.000 A 
ATOM     19  C   UNL     1       1.294   3.884  18.081  0.00  0.00    +0.000 A 
ATOM     20  C   UNL     1       1.123   2.756  18.875  0.00  0.00    +0.000 A 
ATOM     21  F   UNL     1       0.031   1.997  18.715  0.00  0.00    +0.000 F 
ATOM     22  C   UNL     1       2.065   2.407  19.834  0.00  0.00    +0.000 A 
ATOM     23  C   UNL     1       3.198   3.202  20.008  0.00  0.00    +0.000 A 
ENDBRANCH  16  17
ENDBRANCH   3  16
TORSDOF 6
ENDMDL
MODEL 7
REMARK VINA RESULT:      -7.2      1.079      1.842
REMARK  Name = 
REMARK  6 active torsions:
REMARK  status: ('A' for Active; 'I' for Inactive)
REMARK    1  A    between atoms: C_2  and  O_3
REMARK    2  A    between atoms: C_2  and  C_18
REMARK    3  A    between atoms: O_3  and  C_4
REMARK    4  A    between atoms: C_4  and  C_5
REMARK    5  A    between atoms: N_7  and  C_8
REMARK    6  A    between atoms: C_8  and  C_9
REMARK                            x       y       z     vdW  Elec       q    Type
REMARK                         _______ _______ _______ _____ _____    ______ ____
ROOT
ATOM      1  C   UNL     1       6.087   6.447  17.841  0.00  0.00    +0.000 A 
ATOM      2  C   UNL     1       4.798   6.609  17.382  0.00  0.00    +0.000 A 
ATOM      3  N   UNL     1       4.038   5.917  18.277  0.00  0.00    +0.000 N 
ATOM      4  N   UNL     1       4.801   5.364  19.239  0.00  0.00    +0.000 NA
ATOM      5  N   UNL     1       6.061   5.691  18.985  0.00  0.00    +0.000 NA
ENDROOT
BRANCH   1   6
ATOM      6  C   UNL     1       7.365   6.924  17.256  0.00  0.00    +0.000 C 
BRANCH   6   7
ATOM      7  O   UNL     1       7.619   6.385  15.950  0.00  0.00    +0.000 OA
BRANCH   7   9
ATOM      8  O   UNL     1       7.926   4.246  16.724  0.00  0.00    +0.000 OA
ATOM      9  C   UNL     1       7.573   5.036  15.862  0.00  0.00    +0.000 C 
BRANCH   9  10
ATOM     10  C   UNL     1       7.051   4.621  14.530  0.00  0.00    +0.000 A 
ATOM     11  C   UNL     1       5.823   3.946  14.482  0.00  0.00    +0.000 A 
ATOM     12  C   UNL     1       5.309   3.508  13.259  0.00  0.00    +0.000 A 
ATOM     13  C   UNL     1       6.016   3.744  12.082  0.00  0.00    +0.000 A 
ATOM     14  C   UNL     1       7.233   4.423  12.121  0.00  0.00    +0.000 A 
ATOM     15  C   UNL     1       7.752   4.862  13.340  0.00  0.00    +0.000 A 
ENDBRANCH   9  10
ENDBRANCH   7   9
ENDBRANCH   6   7
ENDBRANCH   1   6
BRANCH   3  16
ATOM     16  C   UNL     1       2.620   5.627  18.199  0.00  0.00    +0.000 C 
BRANCH  16  17
ATOM     17  C   UNL     1       2.189   4.651  19.264  0.00  0.00    +0.000 A 
ATOM     18  C   UNL     1       1.634   3.408  18.914  0.00  0.00    +0.000 A 
ATOM     19  C   UNL     1       1.214   2.521  19.904  0.00  0.00    +0.000 A 
ATOM     20  C   UNL     1       1.348   2.871  21.243  0.00  0.00    +0.000 A 
ATOM     21  F   UNL     1       0.938   2.019  22.192  0.00  0.00    +0.000 F 
ATOM     22  C   UNL     1       1.897   4.093  21.610  0.00  0.00    +0.000 A 
ATOM     23  C   UNL     1       2.315   4.985  20.623  0.00  0.00    +0.000 A 
ENDBRANCH  16  17
ENDBRANCH   3  16
TORSDOF 6
ENDMDL
MODEL 8
REMARK VINA RESULT:      -7.2      5.639      8.049
REMARK  Name = 
REMARK  6 active torsions:
REMARK  status: ('A' for Active; 'I' for Inactive)
REMARK    1  A    between atoms: C_2  and  O_3
REMARK    2  A    between atoms: C_2  and  C_18
REMARK    3  A    between atoms: O_3  and  C_4
REMARK    4  A    between atoms: C_4  and  C_5
REMARK    5  A    between atoms: N_7  and  C_8
REMARK    6  A    between atoms: C_8  and  C_9
REMARK                            x       y       z     vdW  Elec       q    Type
REMARK                         _______ _______ _______ _____ _____    ______ ____
ROOT
ATOM      1  C   UNL     1       1.019   9.299  19.476  0.00  0.00    +0.000 A 
ATOM      2  C   UNL     1       1.752   8.339  20.141  0.00  0.00    +0.000 A 
ATOM      3  N   UNL     1       2.432   7.696  19.150  0.00  0.00    +0.000 N 
ATOM      4  N   UNL     1       2.151   8.224  17.944  0.00  0.00    +0.000 NA
ATOM      5  N   UNL     1       1.290   9.215  18.134  0.00  0.00    +0.000 NA
ENDROOT
BRANCH   1   6
ATOM      6  C   UNL     1       0.041  10.278  20.010  0.00  0.00    +0.000 C 
BRANCH   6   7
ATOM      7  O   UNL     1      -0.460  11.174  19.005  0.00  0.00    +0.000 OA
BRANCH   7   9
ATOM      8  O   UNL     1      -2.323  11.971  20.083  0.00  0.00    +0.000 OA
ATOM      9  C   UNL     1      -1.773  11.482  19.108  0.00  0.00    +0.000 C 
BRANCH   9  10
ATOM     10  C   UNL     1      -2.493  11.111  17.858  0.00  0.00    +0.000 A 
ATOM     11  C   UNL     1      -3.757  11.672  17.631  0.00  0.00    +0.000 A 
ATOM     12  C   UNL     1      -4.484  11.329  16.489  0.00  0.00    +0.000 A 
ATOM     13  C   UNL     1      -3.952  10.428  15.570  0.00  0.00    +0.000 A 
ATOM     14  C   UNL     1      -2.692   9.873  15.783  0.00  0.00    +0.000 A 
ATOM     15  C   UNL     1      -1.961  10.213  16.923  0.00  0.00    +0.000 A 
ENDBRANCH   9  10
ENDBRANCH   7   9
ENDBRANCH   6   7
ENDBRANCH   1   6
BRANCH   3  16
ATOM     16  C   UNL     1       3.244   6.500  19.264  0.00  0.00    +0.000 C 
BRANCH  16  17
ATOM     17  C   UNL     1       2.419   5.247  19.105  0.00  0.00    +0.000 A 
ATOM     18  C   UNL     1       1.702   4.719  20.191  0.00  0.00    +0.000 A 
ATOM     19  C   UNL     1       0.963   3.546  20.043  0.00  0.00    +0.000 A 
ATOM     20  C   UNL     1       0.937   2.900  18.812  0.00  0.00    +0.000 A 
ATOM     21  F   UNL     1       0.231   1.770  18.675  0.00  0.00    +0.000 F 
ATOM     22  C   UNL     1       1.636   3.408  17.725  0.00  0.00    +0.000 A 
ATOM     23  C   UNL     1       2.380   4.579  17.869  0.00  0.00    +0.000 A 
ENDBRANCH  16  17
ENDBRANCH   3  16
TORSDOF 6
ENDMDL
MODEL 9
REMARK VINA RESULT:      -7.2      5.641      8.101
REMARK  Name = 
REMARK  6 active torsions:
REMARK  status: ('A' for Active; 'I' for Inactive)
REMARK    1  A    between atoms: C_2  and  O_3
REMARK    2  A    between atoms: C_2  and  C_18
REMARK    3  A    between atoms: O_3  and  C_4
REMARK    4  A    between atoms: C_4  and  C_5
REMARK    5  A    between atoms: N_7  and  C_8
REMARK    6  A    between atoms: C_8  and  C_9
REMARK                            x       y       z     vdW  Elec       q    Type
REMARK                         _______ _______ _______ _____ _____    ______ ____
ROOT
ATOM      1  C   UNL     1       0.963   9.243  19.569  0.00  0.00    +0.000 A 
ATOM      2  C   UNL     1       1.634   8.240  20.233  0.00  0.00    +0.000 A 
ATOM      3  N   UNL     1       2.427   7.682  19.275  0.00  0.00    +0.000 N 
ATOM      4  N   UNL     1       2.270   8.302  18.090  0.00  0.00    +0.000 NA
ATOM      5  N   UNL     1       1.378   9.268  18.262  0.00  0.00    +0.000 NA
ENDROOT
BRANCH   1   6
ATOM      6  C   UNL     1      -0.083  10.171  20.068  0.00  0.00    +0.000 C 
BRANCH   6   7
ATOM      7  O   UNL     1      -0.507  11.121  19.078  0.00  0.00    +0.000 OA
BRANCH   7   9
ATOM      8  O   UNL     1      -2.361  12.018  20.091  0.00  0.00    +0.000 OA
ATOM      9  C   UNL     1      -1.810  11.481  19.142  0.00  0.00    +0.000 C 
BRANCH   9  10
ATOM     10  C   UNL     1      -2.516  11.102  17.888  0.00  0.00    +0.000 A 
ATOM     11  C   UNL     1      -3.806  11.607  17.676  0.00  0.00    +0.000 A 
ATOM     12  C   UNL     1      -4.521  11.254  16.530  0.00  0.00    +0.000 A 
ATOM     13  C   UNL     1      -3.951  10.397  15.591  0.00  0.00    +0.000 A 
ATOM     14  C   UNL     1      -2.665   9.898  15.789  0.00  0.00    +0.000 A 
ATOM     15  C   UNL     1      -1.946  10.248  16.933  0.00  0.00    +0.000 A 
ENDBRANCH   9  10
ENDBRANCH   7   9
ENDBRANCH   6   7
ENDBRANCH   1   6
BRANCH   3  16
ATOM     16  C   UNL     1       3.241   6.486  19.383  0.00  0.00    +0.000 C 
BRANCH  16  17
ATOM     17  C   UNL     1       2.424   5.234  19.186  0.00  0.00    +0.000 A 
ATOM     18  C   UNL     1       2.288   4.660  17.911  0.00  0.00    +0.000 A 
ATOM     19  C   UNL     1       1.510   3.518  17.733  0.00  0.00    +0.000 A 
ATOM     20  C   UNL     1       0.867   2.946  18.825  0.00  0.00    +0.000 A 
ATOM     21  F   UNL     1       0.115   1.851  18.649  0.00  0.00    +0.000 F 
ATOM     22  C   UNL     1       0.991   3.495  20.094  0.00  0.00    +0.000 A 
ATOM     23  C   UNL     1       1.765   4.641  20.277  0.00  0.00    +0.000 A 
ENDBRANCH  16  17
ENDBRANCH   3  16
TORSDOF 6
ENDMDL
