MODEL 1
REMARK VINA RESULT:      -8.8      0.000      0.000
REMARK  Name = 
REMARK  3 active torsions:
REMARK  status: ('A' for Active; 'I' for Inactive)
REMARK    1  A    between atoms: C_1  and  C_2
REMARK    2  A    between atoms: C_4  and  C_5
REMARK    3  A    between atoms: C_13  and  C_15
REMARK                            x       y       z     vdW  Elec       q    Type
REMARK                         _______ _______ _______ _____ _____    ______ ____
ROOT
ATOM      1  C   UNL     1       0.951   3.047  19.841  0.00  0.00    +0.000 C 
ATOM      2  C   UNL     1       1.480   4.425  19.464  0.00  0.00    +0.000 C 
ATOM      3  C   UNL     1       1.638   5.286  20.727  0.00  0.00    +0.000 C 
ATOM      4  C   UNL     1       2.638   6.367  20.328  0.00  0.00    +0.000 C 
ATOM      5  C   UNL     1       3.557   5.610  19.385  0.00  0.00    +0.000 C 
ATOM      6  N   UNL     1       2.814   4.484  18.832  0.00  0.00    +0.000 N 
ATOM      7  C   UNL     1       3.170   3.737  17.718  0.00  0.00    +0.000 C 
ATOM      8  O   UNL     1       2.409   2.904  17.224  0.00  0.00    +0.000 OA
ENDROOT
BRANCH   7   9
ATOM      9  C   UNL     1       4.504   3.999  17.032  0.00  0.00    +0.000 A 
ATOM     10  C   UNL     1       5.747   4.387  17.707  0.00  0.00    +0.000 A 
ATOM     11  C   UNL     1       6.816   4.864  17.046  0.00  0.00    +0.000 A 
ATOM     12  C   UNL     1       6.834   4.817  15.631  0.00  0.00    +0.000 A 
ATOM     13  N   UNL     1       7.765   5.157  14.770  0.00  0.00    +0.000 NA
ATOM     14  C   UNL     1       7.282   4.770  13.549  0.00  0.00    +0.000 A 
ATOM     15  C   UNL     1       6.030   4.203  13.670  0.00  0.00    +0.000 A 
ATOM     16  N   UNL     1       5.726   4.257  15.008  0.00  0.00    +0.000 N 
ATOM     17  C   UNL     1       4.565   3.873  15.686  0.00  0.00    +0.000 A 
ENDBRANCH   7   9
BRANCH   4  18
ATOM     18  C   UNL     1       1.993   7.610  19.763  0.00  0.00    +0.000 A 
ATOM     19  C   UNL     1       2.245   7.927  18.417  0.00  0.00    +0.000 A 
ATOM     20  C   UNL     1       1.715   9.080  17.842  0.00  0.00    +0.000 A 
ATOM     21  C   UNL     1       0.925   9.937  18.605  0.00  0.00    +0.000 A 
ATOM     22  C   UNL     1       0.649   9.626  19.934  0.00  0.00    +0.000 A 
ATOM     23  C   UNL     1       1.177   8.470  20.511  0.00  0.00    +0.000 A 
ENDBRANCH   4  18
TORSDOF 2
ENDMDL
MODEL 2
REMARK VINA RESULT:      -8.7      0.235      1.028
REMARK  Name = 
REMARK  3 active torsions:
REMARK  status: ('A' for Active; 'I' for Inactive)
REMARK    1  A    between atoms: C_1  and  C_2
REMARK    2  A    between atoms: C_4  and  C_5
REMARK    3  A    between atoms: C_13  and  C_15
REMARK                            x       y       z     vdW  Elec       q    Type
REMARK                         _______ _______ _______ _____ _____    ______ ____
ROOT
ATOM      1  C   UNL     1       1.065   2.974  19.608  0.00  0.00    +0.000 C 
ATOM      2  C   UNL     1       1.587   4.367  19.279  0.00  0.00    +0.000 C 
ATOM      3  C   UNL     1       1.749   5.180  20.574  0.00  0.00    +0.000 C 
ATOM      4  C   UNL     1       2.744   6.279  20.210  0.00  0.00    +0.000 C 
ATOM      5  C   UNL     1       3.660   5.561  19.235  0.00  0.00    +0.000 C 
ATOM      6  N   UNL     1       2.917   4.453  18.644  0.00  0.00    +0.000 N 
ATOM      7  C   UNL     1       3.270   3.750  17.501  0.00  0.00    +0.000 C 
ATOM      8  O   UNL     1       2.509   2.934  16.979  0.00  0.00    +0.000 OA
ENDROOT
BRANCH   7   9
ATOM      9  C   UNL     1       4.600   4.042  16.819  0.00  0.00    +0.000 A 
ATOM     10  C   UNL     1       5.827   4.478  17.494  0.00  0.00    +0.000 A 
ATOM     11  C   UNL     1       6.884   4.977  16.832  0.00  0.00    +0.000 A 
ATOM     12  C   UNL     1       6.913   4.909  15.418  0.00  0.00    +0.000 A 
ATOM     13  N   UNL     1       7.839   5.263  14.558  0.00  0.00    +0.000 NA
ATOM     14  C   UNL     1       7.375   4.843  13.340  0.00  0.00    +0.000 A 
ATOM     15  C   UNL     1       6.140   4.241  13.462  0.00  0.00    +0.000 A 
ATOM     16  N   UNL     1       5.826   4.305  14.798  0.00  0.00    +0.000 N 
ATOM     17  C   UNL     1       4.673   3.897  15.475  0.00  0.00    +0.000 A 
ENDBRANCH   7   9
BRANCH   4  18
ATOM     18  C   UNL     1       2.092   7.540  19.695  0.00  0.00    +0.000 A 
ATOM     19  C   UNL     1       1.342   8.308  20.601  0.00  0.00    +0.000 A 
ATOM     20  C   UNL     1       0.680   9.462  20.185  0.00  0.00    +0.000 A 
ATOM     21  C   UNL     1       0.757   9.865  18.854  0.00  0.00    +0.000 A 
ATOM     22  C   UNL     1       1.513   9.125  17.948  0.00  0.00    +0.000 A 
ATOM     23  C   UNL     1       2.179   7.971  18.364  0.00  0.00    +0.000 A 
ENDBRANCH   4  18
TORSDOF 2
ENDMDL
MODEL 3
REMARK VINA RESULT:      -7.9      2.700      7.145
REMARK  Name = 
REMARK  3 active torsions:
REMARK  status: ('A' for Active; 'I' for Inactive)
REMARK    1  A    between atoms: C_1  and  C_2
REMARK    2  A    between atoms: C_4  and  C_5
REMARK    3  A    between atoms: C_13  and  C_15
REMARK                            x       y       z     vdW  Elec       q    Type
REMARK                         _______ _______ _______ _____ _____    ______ ____
ROOT
ATOM      1  C   UNL     1       6.669   8.232  17.496  0.00  0.00    +0.000 C 
ATOM      2  C   UNL     1       6.331   6.955  16.736  0.00  0.00    +0.000 C 
ATOM      3  C   UNL     1       7.614   6.151  16.473  0.00  0.00    +0.000 C 
ATOM      4  C   UNL     1       7.125   4.725  16.229  0.00  0.00    +0.000 C 
ATOM      5  C   UNL     1       5.939   4.636  17.173  0.00  0.00    +0.000 C 
ATOM      6  N   UNL     1       5.443   5.987  17.410  0.00  0.00    +0.000 N 
ATOM      7  C   UNL     1       4.209   6.322  17.950  0.00  0.00    +0.000 C 
ATOM      8  O   UNL     1       3.803   7.484  17.971  0.00  0.00    +0.000 OA
ENDROOT
BRANCH   7   9
ATOM      9  C   UNL     1       3.289   5.222  18.462  0.00  0.00    +0.000 A 
ATOM     10  C   UNL     1       2.268   4.527  17.670  0.00  0.00    +0.000 A 
ATOM     11  C   UNL     1       1.310   3.765  18.225  0.00  0.00    +0.000 A 
ATOM     12  C   UNL     1       1.386   3.450  19.603  0.00  0.00    +0.000 A 
ATOM     13  N   UNL     1       0.625   2.690  20.355  0.00  0.00    +0.000 NA
ATOM     14  C   UNL     1       1.252   2.649  21.572  0.00  0.00    +0.000 A 
ATOM     15  C   UNL     1       2.401   3.411  21.562  0.00  0.00    +0.000 A 
ATOM     16  N   UNL     1       2.477   3.952  20.301  0.00  0.00    +0.000 N 
ATOM     17  C   UNL     1       3.406   4.843  19.756  0.00  0.00    +0.000 A 
ENDBRANCH   7   9
BRANCH   4  18
ATOM     18  C   UNL     1       6.837   4.424  14.777  0.00  0.00    +0.000 A 
ATOM     19  C   UNL     1       7.683   4.990  13.809  0.00  0.00    +0.000 A 
ATOM     20  C   UNL     1       7.452   4.788  12.450  0.00  0.00    +0.000 A 
ATOM     21  C   UNL     1       6.368   4.016  12.037  0.00  0.00    +0.000 A 
ATOM     22  C   UNL     1       5.532   3.432  12.986  0.00  0.00    +0.000 A 
ATOM     23  C   UNL     1       5.764   3.632  14.347  0.00  0.00    +0.000 A 
ENDBRANCH   4  18
TORSDOF 2
ENDMDL
MODEL 4
REMARK VINA RESULT:      -7.9      2.719      7.186
REMARK  Name = 
REMARK  3 active torsions:
REMARK  status: ('A' for Active; 'I' for Inactive)
REMARK    1  A    between atoms: C_1  and  C_2
REMARK    2  A    between atoms: C_4  and  C_5
REMARK    3  A    between atoms: C_13  and  C_15
REMARK                            x       y       z     vdW  Elec       q    Type
REMARK                         _______ _______ _______ _____ _____    ______ ____
ROOT
ATOM      1  C   UNL     1       6.832   8.090  17.463  0.00  0.00    +0.000 C 
ATOM      2  C   UNL     1       6.408   6.857  16.675  0.00  0.00    +0.000 C 
ATOM      3  C   UNL     1       7.642   6.004  16.339  0.00  0.00    +0.000 C 
ATOM      4  C   UNL     1       7.079   4.611  16.069  0.00  0.00    +0.000 C 
ATOM      5  C   UNL     1       5.925   4.544  17.053  0.00  0.00    +0.000 C 
ATOM      6  N   UNL     1       5.500   5.907  17.351  0.00  0.00    +0.000 N 
ATOM      7  C   UNL     1       4.304   6.279  17.947  0.00  0.00    +0.000 C 
ATOM      8  O   UNL     1       3.953   7.458  18.020  0.00  0.00    +0.000 OA
ENDROOT
BRANCH   7   9
ATOM      9  C   UNL     1       3.352   5.205  18.458  0.00  0.00    +0.000 A 
ATOM     10  C   UNL     1       2.306   4.549  17.667  0.00  0.00    +0.000 A 
ATOM     11  C   UNL     1       1.328   3.813  18.224  0.00  0.00    +0.000 A 
ATOM     12  C   UNL     1       1.402   3.487  19.599  0.00  0.00    +0.000 A 
ATOM     13  N   UNL     1       0.621   2.747  20.352  0.00  0.00    +0.000 NA
ATOM     14  C   UNL     1       1.253   2.679  21.564  0.00  0.00    +0.000 A 
ATOM     15  C   UNL     1       2.426   3.404  21.552  0.00  0.00    +0.000 A 
ATOM     16  N   UNL     1       2.512   3.950  20.294  0.00  0.00    +0.000 N 
ATOM     17  C   UNL     1       3.466   4.815  19.748  0.00  0.00    +0.000 A 
ENDBRANCH   7   9
BRANCH   4  18
ATOM     18  C   UNL     1       6.725   4.372  14.620  0.00  0.00    +0.000 A 
ATOM     19  C   UNL     1       5.507   3.732  14.339  0.00  0.00    +0.000 A 
ATOM     20  C   UNL     1       5.135   3.444  13.027  0.00  0.00    +0.000 A 
ATOM     21  C   UNL     1       5.980   3.790  11.974  0.00  0.00    +0.000 A 
ATOM     22  C   UNL     1       7.182   4.443  12.235  0.00  0.00    +0.000 A 
ATOM     23  C   UNL     1       7.553   4.735  13.549  0.00  0.00    +0.000 A 
ENDBRANCH   4  18
TORSDOF 2
ENDMDL
MODEL 5
REMARK VINA RESULT:      -7.5      2.282      6.369
REMARK  Name = 
REMARK  3 active torsions:
REMARK  status: ('A' for Active; 'I' for Inactive)
REMARK    1  A    between atoms: C_1  and  C_2
REMARK    2  A    between atoms: C_4  and  C_5
REMARK    3  A    between atoms: C_13  and  C_15
REMARK                            x       y       z     vdW  Elec       q    Type
REMARK                         _______ _______ _______ _____ _____    ______ ____
ROOT
ATOM      1  C   UNL     1       2.048   2.157  19.949  0.00  0.00    +0.000 C 
ATOM      2  C   UNL     1       2.874   3.181  19.179  0.00  0.00    +0.000 C 
ATOM      3  C   UNL     1       2.884   2.822  17.684  0.00  0.00    +0.000 C 
ATOM      4  C   UNL     1       3.235   4.131  16.981  0.00  0.00    +0.000 C 
ATOM      5  C   UNL     1       2.547   5.155  17.867  0.00  0.00    +0.000 C 
ATOM      6  N   UNL     1       2.400   4.579  19.199  0.00  0.00    +0.000 N 
ATOM      7  C   UNL     1       2.112   5.277  20.364  0.00  0.00    +0.000 C 
ATOM      8  O   UNL     1       2.160   4.739  21.471  0.00  0.00    +0.000 OA
ENDROOT
BRANCH   7   9
ATOM      9  C   UNL     1       1.805   6.766  20.292  0.00  0.00    +0.000 A 
ATOM     10  C   UNL     1       1.098   7.541  21.317  0.00  0.00    +0.000 A 
ATOM     11  C   UNL     1       0.618   8.776  21.094  0.00  0.00    +0.000 A 
ATOM     12  C   UNL     1       0.965   9.450  19.898  0.00  0.00    +0.000 A 
ATOM     13  N   UNL     1       0.681  10.661  19.479  0.00  0.00    +0.000 NA
ATOM     14  C   UNL     1       1.390  10.812  18.318  0.00  0.00    +0.000 A 
ATOM     15  C   UNL     1       2.100   9.669  18.019  0.00  0.00    +0.000 A 
ATOM     16  N   UNL     1       1.807   8.777  19.022  0.00  0.00    +0.000 N 
ATOM     17  C   UNL     1       2.207   7.448  19.195  0.00  0.00    +0.000 A 
ENDBRANCH   7   9
BRANCH   4  18
ATOM     18  C   UNL     1       4.719   4.328  16.775  0.00  0.00    +0.000 A 
ATOM     19  C   UNL     1       5.220   4.217  15.467  0.00  0.00    +0.000 A 
ATOM     20  C   UNL     1       6.583   4.348  15.209  0.00  0.00    +0.000 A 
ATOM     21  C   UNL     1       7.468   4.590  16.258  0.00  0.00    +0.000 A 
ATOM     22  C   UNL     1       6.984   4.723  17.557  0.00  0.00    +0.000 A 
ATOM     23  C   UNL     1       5.618   4.595  17.816  0.00  0.00    +0.000 A 
ENDBRANCH   4  18
TORSDOF 2
ENDMDL
MODEL 6
REMARK VINA RESULT:      -7.5      2.557      4.459
REMARK  Name = 
REMARK  3 active torsions:
REMARK  status: ('A' for Active; 'I' for Inactive)
REMARK    1  A    between atoms: C_1  and  C_2
REMARK    2  A    between atoms: C_4  and  C_5
REMARK    3  A    between atoms: C_13  and  C_15
REMARK                            x       y       z     vdW  Elec       q    Type
REMARK                         _______ _______ _______ _____ _____    ______ ____
ROOT
ATOM      1  C   UNL     1       1.188   9.206  22.414  0.00  0.00    +0.000 C 
ATOM      2  C   UNL     1       0.675   9.233  20.979  0.00  0.00    +0.000 C 
ATOM      3  C   UNL     1       0.688  10.676  20.449  0.00  0.00    +0.000 C 
ATOM      4  C   UNL     1       0.697  10.523  18.931  0.00  0.00    +0.000 C 
ATOM      5  C   UNL     1       1.536   9.272  18.747  0.00  0.00    +0.000 C 
ATOM      6  N   UNL     1       1.454   8.484  19.973  0.00  0.00    +0.000 N 
ATOM      7  C   UNL     1       1.810   7.150  20.113  0.00  0.00    +0.000 C 
ATOM      8  O   UNL     1       1.563   6.517  21.140  0.00  0.00    +0.000 OA
ENDROOT
BRANCH   7   9
ATOM      9  C   UNL     1       2.455   6.417  18.944  0.00  0.00    +0.000 A 
ATOM     10  C   UNL     1       2.006   5.134  18.392  0.00  0.00    +0.000 A 
ATOM     11  C   UNL     1       2.756   4.403  17.549  0.00  0.00    +0.000 A 
ATOM     12  C   UNL     1       3.939   4.963  17.009  0.00  0.00    +0.000 A 
ATOM     13  N   UNL     1       4.796   4.488  16.136  0.00  0.00    +0.000 NA
ATOM     14  C   UNL     1       5.667   5.515  15.894  0.00  0.00    +0.000 A 
ATOM     15  C   UNL     1       5.344   6.625  16.645  0.00  0.00    +0.000 A 
ATOM     16  N   UNL     1       4.246   6.264  17.387  0.00  0.00    +0.000 N 
ATOM     17  C   UNL     1       3.535   6.980  18.356  0.00  0.00    +0.000 A 
ENDBRANCH   7   9
BRANCH   4  18
ATOM     18  C   UNL     1      -0.684  10.487  18.318  0.00  0.00    +0.000 A 
ATOM     19  C   UNL     1      -1.665  11.334  18.860  0.00  0.00    +0.000 A 
ATOM     20  C   UNL     1      -2.969  11.323  18.371  0.00  0.00    +0.000 A 
ATOM     21  C   UNL     1      -3.315  10.462  17.331  0.00  0.00    +0.000 A 
ATOM     22  C   UNL     1      -2.348   9.630  16.771  0.00  0.00    +0.000 A 
ATOM     23  C   UNL     1      -1.040   9.642  17.258  0.00  0.00    +0.000 A 
ENDBRANCH   4  18
TORSDOF 2
ENDMDL
MODEL 7
REMARK VINA RESULT:      -7.5      2.895      5.204
REMARK  Name = 
REMARK  3 active torsions:
REMARK  status: ('A' for Active; 'I' for Inactive)
REMARK    1  A    between atoms: C_1  and  C_2
REMARK    2  A    between atoms: C_4  and  C_5
REMARK    3  A    between atoms: C_13  and  C_15
REMARK                            x       y       z     vdW  Elec       q    Type
REMARK                         _______ _______ _______ _____ _____    ______ ____
ROOT
ATOM      1  C   UNL     1      -0.042   9.681  22.759  0.00  0.00    +0.000 C 
ATOM      2  C   UNL     1      -0.266   9.714  21.252  0.00  0.00    +0.000 C 
ATOM      3  C   UNL     1      -0.401  11.170  20.778  0.00  0.00    +0.000 C 
ATOM      4  C   UNL     1      -0.074  11.117  19.288  0.00  0.00    +0.000 C 
ATOM      5  C   UNL     1       0.990  10.034  19.240  0.00  0.00    +0.000 C 
ATOM      6  N   UNL     1       0.810   9.168  20.401  0.00  0.00    +0.000 N 
ATOM      7  C   UNL     1       1.358   7.905  20.570  0.00  0.00    +0.000 C 
ATOM      8  O   UNL     1       1.031   7.175  21.507  0.00  0.00    +0.000 OA
ENDROOT
BRANCH   7   9
ATOM      9  C   UNL     1       2.333   7.362  19.533  0.00  0.00    +0.000 A 
ATOM     10  C   UNL     1       2.674   8.011  18.263  0.00  0.00    +0.000 A 
ATOM     11  C   UNL     1       3.322   7.375  17.272  0.00  0.00    +0.000 A 
ATOM     12  C   UNL     1       3.876   6.095  17.515  0.00  0.00    +0.000 A 
ATOM     13  N   UNL     1       4.593   5.308  16.747  0.00  0.00    +0.000 NA
ATOM     14  C   UNL     1       4.959   4.262  17.551  0.00  0.00    +0.000 A 
ATOM     15  C   UNL     1       4.441   4.408  18.821  0.00  0.00    +0.000 A 
ATOM     16  N   UNL     1       3.718   5.576  18.794  0.00  0.00    +0.000 N 
ATOM     17  C   UNL     1       2.941   6.180  19.787  0.00  0.00    +0.000 A 
ENDBRANCH   7   9
BRANCH   4  18
ATOM     18  C   UNL     1      -1.283  10.893  18.410  0.00  0.00    +0.000 A 
ATOM     19  C   UNL     1      -2.434  11.655  18.673  0.00  0.00    +0.000 A 
ATOM     20  C   UNL     1      -3.598  11.472  17.929  0.00  0.00    +0.000 A 
ATOM     21  C   UNL     1      -3.629  10.521  16.910  0.00  0.00    +0.000 A 
ATOM     22  C   UNL     1      -2.490   9.773  16.626  0.00  0.00    +0.000 A 
ATOM     23  C   UNL     1      -1.322   9.957  17.368  0.00  0.00    +0.000 A 
ENDBRANCH   4  18
TORSDOF 2
ENDMDL
MODEL 8
REMARK VINA RESULT:      -7.4      3.257      7.121
REMARK  Name = 
REMARK  3 active torsions:
REMARK  status: ('A' for Active; 'I' for Inactive)
REMARK    1  A    between atoms: C_1  and  C_2
REMARK    2  A    between atoms: C_4  and  C_5
REMARK    3  A    between atoms: C_13  and  C_15
REMARK                            x       y       z     vdW  Elec       q    Type
REMARK                         _______ _______ _______ _____ _____    ______ ____
ROOT
ATOM      1  C   UNL     1       1.544   4.589  20.450  0.00  0.00    +0.000 C 
ATOM      2  C   UNL     1       2.648   5.435  19.826  0.00  0.00    +0.000 C 
ATOM      3  C   UNL     1       3.200   4.731  18.576  0.00  0.00    +0.000 C 
ATOM      4  C   UNL     1       3.852   5.849  17.767  0.00  0.00    +0.000 C 
ATOM      5  C   UNL     1       2.933   7.023  18.059  0.00  0.00    +0.000 C 
ATOM      6  N   UNL     1       2.269   6.775  19.334  0.00  0.00    +0.000 N 
ATOM      7  C   UNL     1       1.602   7.717  20.104  0.00  0.00    +0.000 C 
ATOM      8  O   UNL     1       1.204   7.462  21.242  0.00  0.00    +0.000 OA
ENDROOT
BRANCH   7   9
ATOM      9  C   UNL     1       1.417   9.131  19.570  0.00  0.00    +0.000 A 
ATOM     10  C   UNL     1       1.844   9.605  18.249  0.00  0.00    +0.000 A 
ATOM     11  C   UNL     1       1.903  10.909  17.929  0.00  0.00    +0.000 A 
ATOM     12  C   UNL     1       1.354  11.868  18.815  0.00  0.00    +0.000 A 
ATOM     13  N   UNL     1       1.234  13.170  18.708  0.00  0.00    +0.000 NA
ATOM     14  C   UNL     1       0.509  13.554  19.804  0.00  0.00    +0.000 A 
ATOM     15  C   UNL     1       0.201  12.469  20.597  0.00  0.00    +0.000 A 
ATOM     16  N   UNL     1       0.768  11.382  19.977  0.00  0.00    +0.000 N 
ATOM     17  C   UNL     1       0.813  10.041  20.369  0.00  0.00    +0.000 A 
ENDBRANCH   7   9
BRANCH   4  18
ATOM     18  C   UNL     1       5.312   6.058  18.091  0.00  0.00    +0.000 A 
ATOM     19  C   UNL     1       6.039   6.959  17.294  0.00  0.00    +0.000 A 
ATOM     20  C   UNL     1       7.399   7.170  17.511  0.00  0.00    +0.000 A 
ATOM     21  C   UNL     1       8.056   6.481  18.529  0.00  0.00    +0.000 A 
ATOM     22  C   UNL     1       7.344   5.601  19.341  0.00  0.00    +0.000 A 
ATOM     23  C   UNL     1       5.981   5.390  19.126  0.00  0.00    +0.000 A 
ENDBRANCH   4  18
TORSDOF 2
ENDMDL
MODEL 9
REMARK VINA RESULT:      -7.4      3.273      7.174
REMARK  Name = 
REMARK  3 active torsions:
REMARK  status: ('A' for Active; 'I' for Inactive)
REMARK    1  A    between atoms: C_1  and  C_2
REMARK    2  A    between atoms: C_4  and  C_5
REMARK    3  A    between atoms: C_13  and  C_15
REMARK                            x       y       z     vdW  Elec       q    Type
REMARK                         _______ _______ _______ _____ _____    ______ ____
ROOT
ATOM      1  C   UNL     1       1.617   4.652  20.478  0.00  0.00    +0.000 C 
ATOM      2  C   UNL     1       2.693   5.493  19.802  0.00  0.00    +0.000 C 
ATOM      3  C   UNL     1       3.198   4.774  18.541  0.00  0.00    +0.000 C 
ATOM      4  C   UNL     1       3.816   5.883  17.693  0.00  0.00    +0.000 C 
ATOM      5  C   UNL     1       2.907   7.059  18.006  0.00  0.00    +0.000 C 
ATOM      6  N   UNL     1       2.293   6.826  19.309  0.00  0.00    +0.000 N 
ATOM      7  C   UNL     1       1.654   7.776  20.092  0.00  0.00    +0.000 C 
ATOM      8  O   UNL     1       1.301   7.535  21.248  0.00  0.00    +0.000 OA
ENDROOT
BRANCH   7   9
ATOM      9  C   UNL     1       1.446   9.183  19.549  0.00  0.00    +0.000 A 
ATOM     10  C   UNL     1       1.884   9.662  18.233  0.00  0.00    +0.000 A 
ATOM     11  C   UNL     1       1.918  10.965  17.908  0.00  0.00    +0.000 A 
ATOM     12  C   UNL     1       1.333  11.914  18.780  0.00  0.00    +0.000 A 
ATOM     13  N   UNL     1       1.185  13.213  18.665  0.00  0.00    +0.000 NA
ATOM     14  C   UNL     1       0.433  13.585  19.747  0.00  0.00    +0.000 A 
ATOM     15  C   UNL     1       0.136  12.497  20.540  0.00  0.00    +0.000 A 
ATOM     16  N   UNL     1       0.738  11.421  19.934  0.00  0.00    +0.000 N 
ATOM     17  C   UNL     1       0.808  10.082  20.334  0.00  0.00    +0.000 A 
ENDBRANCH   7   9
BRANCH   4  18
ATOM     18  C   UNL     1       5.287   6.099  17.958  0.00  0.00    +0.000 A 
ATOM     19  C   UNL     1       5.876   5.382  19.013  0.00  0.00    +0.000 A 
ATOM     20  C   UNL     1       7.219   5.561  19.339  0.00  0.00    +0.000 A 
ATOM     21  C   UNL     1       7.995   6.465  18.615  0.00  0.00    +0.000 A 
ATOM     22  C   UNL     1       7.430   7.168  17.554  0.00  0.00    +0.000 A 
ATOM     23  C   UNL     1       6.086   6.987  17.225  0.00  0.00    +0.000 A 
ENDBRANCH   4  18
TORSDOF 2
ENDMDL
