MODEL 1
REMARK VINA RESULT:      -7.1      0.000      0.000
REMARK  Name = 
REMARK  7 active torsions:
REMARK  status: ('A' for Active; 'I' for Inactive)
REMARK    1  A    between atoms: C_1  and  N_2
REMARK    2  A    between atoms: C_3  and  C_5
REMARK    3  A    between atoms: C_8  and  C_9
REMARK    4  A    between atoms: N_11  and  C_12
REMARK    5  A    between atoms: C_12  and  C_13
REMARK    6  A    between atoms: N_15  and  C_16
REMARK    7  A    between atoms: N_15  and  C_17
REMARK                            x       y       z     vdW  Elec       q    Type
REMARK                         _______ _______ _______ _____ _____    ______ ____
ROOT
ATOM      1  C   UNL     1       3.350   5.938  18.169  0.00  0.00    +0.000 C 
ATOM      2  C   UNL     1       4.201   5.417  19.358  0.00  0.00    +0.000 C 
ATOM      3  N   UNL     1       5.000   4.204  19.050  0.00  0.00    +0.000 NA
ATOM      4  C   UNL     1       5.763   4.453  17.810  0.00  0.00    +0.000 C 
ATOM      5  C   UNL     1       4.901   4.969  16.649  0.00  0.00    +0.000 C 
ATOM      6  O   UNL     1       4.189   6.156  17.014  0.00  0.00    +0.000 OA
ENDROOT
BRANCH   1  10
ATOM      7  C   UNL     1       1.279   9.492  19.357  0.00  0.00    +0.000 A 
ATOM      8  C   UNL     1       1.763   9.406  18.054  0.00  0.00    +0.000 A 
ATOM      9  C   UNL     1       2.440   8.256  17.654  0.00  0.00    +0.000 A 
ATOM     10  C   UNL     1       2.626   7.216  18.565  0.00  0.00    +0.000 A 
ATOM     11  N   UNL     1       2.155   7.289  19.841  0.00  0.00    +0.000 NA
ATOM     12  C   UNL     1       1.510   8.424  20.210  0.00  0.00    +0.000 A 
BRANCH   7  15
ATOM     13  C   UNL     1      -0.394  11.806  21.824  0.00  0.00    +0.000 C 
ATOM     14  N   UNL     1       0.283  10.689  21.218  0.00  0.00    +0.000 N 
ATOM     15  C   UNL     1       0.560  10.680  19.868  0.00  0.00    +0.000 C 
ATOM     16  O   UNL     1       0.265  11.595  19.107  0.00  0.00    +0.000 OA
ATOM     17  H   UNL     1       0.705  10.000  21.826  0.00  0.00    +0.000 HD
ENDBRANCH   7  15
ENDBRANCH   1  10
BRANCH   3  18
ATOM     18  C   UNL     1       4.121   3.016  18.961  0.00  0.00    +0.000 C 
BRANCH  18  19
ATOM     19  C   UNL     1       3.444   2.684  20.297  0.00  0.00    +0.000 C 
ATOM     20  O   UNL     1       4.140   2.280  21.233  0.00  0.00    +0.000 OA
ATOM     21  N   UNL     1       2.067   2.826  20.405  0.00  0.00    +0.000 N 
ATOM     22  C   UNL     1       1.191   3.330  19.356  0.00  0.00    +0.000 C 
ATOM     23  C   UNL     1       1.415   2.452  21.647  0.00  0.00    +0.000 C 
ENDBRANCH  18  19
ENDBRANCH   3  18
TORSDOF 4
ENDMDL
MODEL 2
REMARK VINA RESULT:      -7.0      1.157      1.499
REMARK  Name = 
REMARK  7 active torsions:
REMARK  status: ('A' for Active; 'I' for Inactive)
REMARK    1  A    between atoms: C_1  and  N_2
REMARK    2  A    between atoms: C_3  and  C_5
REMARK    3  A    between atoms: C_8  and  C_9
REMARK    4  A    between atoms: N_11  and  C_12
REMARK    5  A    between atoms: C_12  and  C_13
REMARK    6  A    between atoms: N_15  and  C_16
REMARK    7  A    between atoms: N_15  and  C_17
REMARK                            x       y       z     vdW  Elec       q    Type
REMARK                         _______ _______ _______ _____ _____    ______ ____
ROOT
ATOM      1  C   UNL     1       3.338   6.105  18.112  0.00  0.00    +0.000 C 
ATOM      2  C   UNL     1       4.150   5.581  19.326  0.00  0.00    +0.000 C 
ATOM      3  N   UNL     1       4.972   4.379  19.035  0.00  0.00    +0.000 NA
ATOM      4  C   UNL     1       5.777   4.648  17.827  0.00  0.00    +0.000 C 
ATOM      5  C   UNL     1       4.952   5.167  16.640  0.00  0.00    +0.000 C 
ATOM      6  O   UNL     1       4.216   6.344  16.990  0.00  0.00    +0.000 OA
ENDROOT
BRANCH   1  10
ATOM      7  C   UNL     1       1.258   9.712  19.111  0.00  0.00    +0.000 A 
ATOM      8  C   UNL     1       1.372   8.718  20.079  0.00  0.00    +0.000 A 
ATOM      9  C   UNL     1       2.046   7.539  19.768  0.00  0.00    +0.000 A 
ATOM     10  C   UNL     1       2.586   7.372  18.493  0.00  0.00    +0.000 A 
ATOM     11  N   UNL     1       2.482   8.338  17.539  0.00  0.00    +0.000 NA
ATOM     12  C   UNL     1       1.811   9.473  17.862  0.00  0.00    +0.000 A 
BRANCH   7  15
ATOM     13  C   UNL     1      -0.332  13.054  18.371  0.00  0.00    +0.000 C 
ATOM     14  N   UNL     1       0.363  11.798  18.251  0.00  0.00    +0.000 N 
ATOM     15  C   UNL     1       0.551  10.989  19.352  0.00  0.00    +0.000 C 
ATOM     16  O   UNL     1       0.147  11.266  20.477  0.00  0.00    +0.000 OA
ATOM     17  H   UNL     1       0.552  11.443  17.325  0.00  0.00    +0.000 HD
ENDBRANCH   7  15
ENDBRANCH   1  10
BRANCH   3  18
ATOM     18  C   UNL     1       4.110   3.183  18.903  0.00  0.00    +0.000 C 
BRANCH  18  19
ATOM     19  C   UNL     1       3.463   2.775  20.233  0.00  0.00    +0.000 C 
ATOM     20  O   UNL     1       4.177   2.306  21.124  0.00  0.00    +0.000 OA
ATOM     21  N   UNL     1       2.091   2.925  20.387  0.00  0.00    +0.000 N 
ATOM     22  C   UNL     1       1.194   3.502  19.394  0.00  0.00    +0.000 C 
ATOM     23  C   UNL     1       1.466   2.480  21.619  0.00  0.00    +0.000 C 
ENDBRANCH  18  19
ENDBRANCH   3  18
TORSDOF 4
ENDMDL
MODEL 3
REMARK VINA RESULT:      -6.9      1.803      3.540
REMARK  Name = 
REMARK  7 active torsions:
REMARK  status: ('A' for Active; 'I' for Inactive)
REMARK    1  A    between atoms: C_1  and  N_2
REMARK    2  A    between atoms: C_3  and  C_5
REMARK    3  A    between atoms: C_8  and  C_9
REMARK    4  A    between atoms: N_11  and  C_12
REMARK    5  A    between atoms: C_12  and  C_13
REMARK    6  A    between atoms: N_15  and  C_16
REMARK    7  A    between atoms: N_15  and  C_17
REMARK                            x       y       z     vdW  Elec       q    Type
REMARK                         _______ _______ _______ _____ _____    ______ ____
ROOT
ATOM      1  C   UNL     1       2.636   5.834  19.801  0.00  0.00    +0.000 C 
ATOM      2  C   UNL     1       2.546   5.032  18.475  0.00  0.00    +0.000 C 
ATOM      3  N   UNL     1       2.950   3.608  18.597  0.00  0.00    +0.000 NA
ATOM      4  C   UNL     1       2.212   3.012  19.729  0.00  0.00    +0.000 C 
ATOM      5  C   UNL     1       2.314   3.823  21.028  0.00  0.00    +0.000 C 
ATOM      6  O   UNL     1       1.877   5.173  20.837  0.00  0.00    +0.000 OA
ENDROOT
BRANCH   1  10
ATOM      7  C   UNL     1       1.187   9.829  19.274  0.00  0.00    +0.000 A 
ATOM      8  C   UNL     1       1.796   9.193  18.196  0.00  0.00    +0.000 A 
ATOM      9  C   UNL     1       2.272   7.893  18.352  0.00  0.00    +0.000 A 
ATOM     10  C   UNL     1       2.138   7.256  19.586  0.00  0.00    +0.000 A 
ATOM     11  N   UNL     1       1.544   7.869  20.647  0.00  0.00    +0.000 NA
ATOM     12  C   UNL     1       1.098   9.138  20.473  0.00  0.00    +0.000 A 
BRANCH   7  15
ATOM     13  C   UNL     1      -0.863  12.759  18.070  0.00  0.00    +0.000 C 
ATOM     14  N   UNL     1      -0.273  11.454  18.218  0.00  0.00    +0.000 N 
ATOM     15  C   UNL     1       0.664  11.211  19.199  0.00  0.00    +0.000 C 
ATOM     16  O   UNL     1       1.048  12.059  19.998  0.00  0.00    +0.000 OA
ATOM     17  H   UNL     1      -0.685  10.684  17.709  0.00  0.00    +0.000 HD
ENDBRANCH   7  15
ENDBRANCH   1  10
BRANCH   3  18
ATOM     18  C   UNL     1       4.419   3.499  18.741  0.00  0.00    +0.000 C 
BRANCH  18  19
ATOM     19  C   UNL     1       5.174   4.126  17.561  0.00  0.00    +0.000 C 
ATOM     20  O   UNL     1       4.877   3.782  16.413  0.00  0.00    +0.000 OA
ATOM     21  N   UNL     1       6.181   5.045  17.821  0.00  0.00    +0.000 N 
ATOM     22  C   UNL     1       6.559   5.523  19.145  0.00  0.00    +0.000 C 
ATOM     23  C   UNL     1       6.940   5.593  16.711  0.00  0.00    +0.000 C 
ENDBRANCH  18  19
ENDBRANCH   3  18
TORSDOF 4
ENDMDL
MODEL 4
REMARK VINA RESULT:      -6.8      0.973      1.008
REMARK  Name = 
REMARK  7 active torsions:
REMARK  status: ('A' for Active; 'I' for Inactive)
REMARK    1  A    between atoms: C_1  and  N_2
REMARK    2  A    between atoms: C_3  and  C_5
REMARK    3  A    between atoms: C_8  and  C_9
REMARK    4  A    between atoms: N_11  and  C_12
REMARK    5  A    between atoms: C_12  and  C_13
REMARK    6  A    between atoms: N_15  and  C_16
REMARK    7  A    between atoms: N_15  and  C_17
REMARK                            x       y       z     vdW  Elec       q    Type
REMARK                         _______ _______ _______ _____ _____    ______ ____
ROOT
ATOM      1  C   UNL     1       3.541   6.494  17.845  0.00  0.00    +0.000 C 
ATOM      2  C   UNL     1       4.405   5.810  18.937  0.00  0.00    +0.000 C 
ATOM      3  N   UNL     1       5.383   4.825  18.411  0.00  0.00    +0.000 NA
ATOM      4  C   UNL     1       6.155   5.469  17.330  0.00  0.00    +0.000 C 
ATOM      5  C   UNL     1       5.279   6.139  16.262  0.00  0.00    +0.000 C 
ATOM      6  O   UNL     1       4.388   7.097  16.843  0.00  0.00    +0.000 OA
ENDROOT
BRANCH   1  10
ATOM      7  C   UNL     1       0.938   9.350  19.690  0.00  0.00    +0.000 A 
ATOM      8  C   UNL     1       1.335   9.562  18.372  0.00  0.00    +0.000 A 
ATOM      9  C   UNL     1       2.182   8.642  17.759  0.00  0.00    +0.000 A 
ATOM     10  C   UNL     1       2.622   7.530  18.477  0.00  0.00    +0.000 A 
ATOM     11  N   UNL     1       2.240   7.311  19.765  0.00  0.00    +0.000 NA
ATOM     12  C   UNL     1       1.424   8.228  20.344  0.00  0.00    +0.000 A 
BRANCH   7  15
ATOM     13  C   UNL     1      -0.644  11.155  22.601  0.00  0.00    +0.000 C 
ATOM     14  N   UNL     1       0.159  10.273  21.794  0.00  0.00    +0.000 N 
ATOM     15  C   UNL     1       0.051  10.282  20.421  0.00  0.00    +0.000 C 
ATOM     16  O   UNL     1      -0.707  11.022  19.802  0.00  0.00    +0.000 OA
ATOM     17  H   UNL     1       0.920   9.780  22.239  0.00  0.00    +0.000 HD
ENDBRANCH   7  15
ENDBRANCH   1  10
BRANCH   3  18
ATOM     18  C   UNL     1       4.690   3.592  17.974  0.00  0.00    +0.000 C 
BRANCH  18  19
ATOM     19  C   UNL     1       3.960   2.887  19.125  0.00  0.00    +0.000 C 
ATOM     20  O   UNL     1       4.626   2.392  20.039  0.00  0.00    +0.000 OA
ATOM     21  N   UNL     1       2.574   2.809  19.093  0.00  0.00    +0.000 N 
ATOM     22  C   UNL     1       1.724   3.400  18.068  0.00  0.00    +0.000 C 
ATOM     23  C   UNL     1       1.884   2.088  20.147  0.00  0.00    +0.000 C 
ENDBRANCH  18  19
ENDBRANCH   3  18
TORSDOF 4
ENDMDL
MODEL 5
REMARK VINA RESULT:      -6.7      1.803      3.664
REMARK  Name = 
REMARK  7 active torsions:
REMARK  status: ('A' for Active; 'I' for Inactive)
REMARK    1  A    between atoms: C_1  and  N_2
REMARK    2  A    between atoms: C_3  and  C_5
REMARK    3  A    between atoms: C_8  and  C_9
REMARK    4  A    between atoms: N_11  and  C_12
REMARK    5  A    between atoms: C_12  and  C_13
REMARK    6  A    between atoms: N_15  and  C_16
REMARK    7  A    between atoms: N_15  and  C_17
REMARK                            x       y       z     vdW  Elec       q    Type
REMARK                         _______ _______ _______ _____ _____    ______ ____
ROOT
ATOM      1  C   UNL     1       2.614   5.767  19.875  0.00  0.00    +0.000 C 
ATOM      2  C   UNL     1       2.526   4.966  18.549  0.00  0.00    +0.000 C 
ATOM      3  N   UNL     1       2.939   3.545  18.668  0.00  0.00    +0.000 NA
ATOM      4  C   UNL     1       2.209   2.942  19.801  0.00  0.00    +0.000 C 
ATOM      5  C   UNL     1       2.309   3.752  21.101  0.00  0.00    +0.000 C 
ATOM      6  O   UNL     1       1.863   5.099  20.912  0.00  0.00    +0.000 OA
ENDROOT
BRANCH   1  10
ATOM      7  C   UNL     1       1.237   9.765  19.203  0.00  0.00    +0.000 A 
ATOM      8  C   UNL     1       1.045   9.196  20.459  0.00  0.00    +0.000 A 
ATOM      9  C   UNL     1       1.487   7.896  20.692  0.00  0.00    +0.000 A 
ATOM     10  C   UNL     1       2.107   7.186  19.664  0.00  0.00    +0.000 A 
ATOM     11  N   UNL     1       2.302   7.733  18.432  0.00  0.00    +0.000 NA
ATOM     12  C   UNL     1       1.852   8.997  18.226  0.00  0.00    +0.000 A 
BRANCH   7  15
ATOM     13  C   UNL     1      -1.018  12.536  17.988  0.00  0.00    +0.000 C 
ATOM     14  N   UNL     1      -0.476  11.247  18.333  0.00  0.00    +0.000 N 
ATOM     15  C   UNL     1       0.790  11.135  18.867  0.00  0.00    +0.000 C 
ATOM     16  O   UNL     1       1.523  12.093  19.088  0.00  0.00    +0.000 OA
ATOM     17  H   UNL     1      -1.100  10.453  18.340  0.00  0.00    +0.000 HD
ENDBRANCH   7  15
ENDBRANCH   1  10
BRANCH   3  18
ATOM     18  C   UNL     1       4.410   3.444  18.807  0.00  0.00    +0.000 C 
BRANCH  18  19
ATOM     19  C   UNL     1       5.157   4.082  17.629  0.00  0.00    +0.000 C 
ATOM     20  O   UNL     1       4.864   3.736  16.480  0.00  0.00    +0.000 OA
ATOM     21  N   UNL     1       6.155   5.011  17.890  0.00  0.00    +0.000 N 
ATOM     22  C   UNL     1       6.528   5.492  19.213  0.00  0.00    +0.000 C 
ATOM     23  C   UNL     1       6.908   5.568  16.780  0.00  0.00    +0.000 C 
ENDBRANCH  18  19
ENDBRANCH   3  18
TORSDOF 4
ENDMDL
MODEL 6
REMARK VINA RESULT:      -6.7      1.270      1.590
REMARK  Name = 
REMARK  7 active torsions:
REMARK  status: ('A' for Active; 'I' for Inactive)
REMARK    1  A    between atoms: C_1  and  N_2
REMARK    2  A    between atoms: C_3  and  C_5
REMARK    3  A    between atoms: C_8  and  C_9
REMARK    4  A    between atoms: N_11  and  C_12
REMARK    5  A    between atoms: C_12  and  C_13
REMARK    6  A    between atoms: N_15  and  C_16
REMARK    7  A    between atoms: N_15  and  C_17
REMARK                            x       y       z     vdW  Elec       q    Type
REMARK                         _______ _______ _______ _____ _____    ______ ____
ROOT
ATOM      1  C   UNL     1       3.368   6.609  18.119  0.00  0.00    +0.000 C 
ATOM      2  C   UNL     1       4.360   5.906  19.084  0.00  0.00    +0.000 C 
ATOM      3  N   UNL     1       5.349   5.030  18.408  0.00  0.00    +0.000 NA
ATOM      4  C   UNL     1       5.988   5.802  17.323  0.00  0.00    +0.000 C 
ATOM      5  C   UNL     1       4.988   6.488  16.382  0.00  0.00    +0.000 C 
ATOM      6  O   UNL     1       4.091   7.340  17.104  0.00  0.00    +0.000 OA
ENDROOT
BRANCH   1  10
ATOM      7  C   UNL     1       0.782   9.273  20.253  0.00  0.00    +0.000 A 
ATOM      8  C   UNL     1       1.229   8.120  20.894  0.00  0.00    +0.000 A 
ATOM      9  C   UNL     1       2.070   7.244  20.212  0.00  0.00    +0.000 A 
ATOM     10  C   UNL     1       2.444   7.532  18.899  0.00  0.00    +0.000 A 
ATOM     11  N   UNL     1       2.014   8.657  18.263  0.00  0.00    +0.000 NA
ATOM     12  C   UNL     1       1.186   9.489  18.944  0.00  0.00    +0.000 A 
BRANCH   7  15
ATOM     13  C   UNL     1      -1.119  11.039  22.992  0.00  0.00    +0.000 C 
ATOM     14  N   UNL     1      -0.279  10.126  22.261  0.00  0.00    +0.000 N 
ATOM     15  C   UNL     1      -0.121  10.251  20.898  0.00  0.00    +0.000 C 
ATOM     16  O   UNL     1      -0.661  11.125  20.228  0.00  0.00    +0.000 OA
ATOM     17  H   UNL     1       0.325   9.509  22.786  0.00  0.00    +0.000 HD
ENDBRANCH   7  15
ENDBRANCH   1  10
BRANCH   3  18
ATOM     18  C   UNL     1       4.699   3.789  17.930  0.00  0.00    +0.000 C 
BRANCH  18  19
ATOM     19  C   UNL     1       4.000   3.019  19.059  0.00  0.00    +0.000 C 
ATOM     20  O   UNL     1       4.688   2.522  19.956  0.00  0.00    +0.000 OA
ATOM     21  N   UNL     1       2.618   2.887  19.026  0.00  0.00    +0.000 N 
ATOM     22  C   UNL     1       1.743   3.477  18.022  0.00  0.00    +0.000 C 
ATOM     23  C   UNL     1       1.960   2.106  20.058  0.00  0.00    +0.000 C 
ENDBRANCH  18  19
ENDBRANCH   3  18
TORSDOF 4
ENDMDL
MODEL 7
REMARK VINA RESULT:      -6.6      1.551      1.792
REMARK  Name = 
REMARK  7 active torsions:
REMARK  status: ('A' for Active; 'I' for Inactive)
REMARK    1  A    between atoms: C_1  and  N_2
REMARK    2  A    between atoms: C_3  and  C_5
REMARK    3  A    between atoms: C_8  and  C_9
REMARK    4  A    between atoms: N_11  and  C_12
REMARK    5  A    between atoms: C_12  and  C_13
REMARK    6  A    between atoms: N_15  and  C_16
REMARK    7  A    between atoms: N_15  and  C_17
REMARK                            x       y       z     vdW  Elec       q    Type
REMARK                         _______ _______ _______ _____ _____    ______ ____
ROOT
ATOM      1  C   UNL     1       3.336   6.697  17.774  0.00  0.00    +0.000 C 
ATOM      2  C   UNL     1       3.932   5.627  18.726  0.00  0.00    +0.000 C 
ATOM      3  N   UNL     1       4.871   4.682  18.069  0.00  0.00    +0.000 NA
ATOM      4  C   UNL     1       5.873   5.469  17.323  0.00  0.00    +0.000 C 
ATOM      5  C   UNL     1       5.261   6.522  16.389  0.00  0.00    +0.000 C 
ATOM      6  O   UNL     1       4.395   7.412  17.101  0.00  0.00    +0.000 OA
ENDROOT
BRANCH   1  10
ATOM      7  C   UNL     1       0.818   9.322  20.033  0.00  0.00    +0.000 A 
ATOM      8  C   UNL     1       1.061   9.619  18.694  0.00  0.00    +0.000 A 
ATOM      9  C   UNL     1       1.879   8.774  17.947  0.00  0.00    +0.000 A 
ATOM     10  C   UNL     1       2.444   7.652  18.553  0.00  0.00    +0.000 A 
ATOM     11  N   UNL     1       2.212   7.352  19.861  0.00  0.00    +0.000 NA
ATOM     12  C   UNL     1       1.422   8.196  20.571  0.00  0.00    +0.000 A 
BRANCH   7  15
ATOM     13  C   UNL     1      -0.982  10.496  23.134  0.00  0.00    +0.000 C 
ATOM     14  N   UNL     1      -0.195   9.735  22.198  0.00  0.00    +0.000 N 
ATOM     15  C   UNL     1      -0.028  10.170  20.901  0.00  0.00    +0.000 C 
ATOM     16  O   UNL     1      -0.515  11.207  20.463  0.00  0.00    +0.000 OA
ATOM     17  H   UNL     1       0.371   8.979  22.556  0.00  0.00    +0.000 HD
ENDBRANCH   7  15
ENDBRANCH   1  10
BRANCH   3  18
ATOM     18  C   UNL     1       4.130   3.727  17.215  0.00  0.00    +0.000 C 
BRANCH  18  19
ATOM     19  C   UNL     1       2.829   3.242  17.867  0.00  0.00    +0.000 C 
ATOM     20  O   UNL     1       1.751   3.561  17.355  0.00  0.00    +0.000 OA
ATOM     21  N   UNL     1       2.902   2.478  19.024  0.00  0.00    +0.000 N 
ATOM     22  C   UNL     1       4.135   2.035  19.660  0.00  0.00    +0.000 C 
ATOM     23  C   UNL     1       1.672   2.071  19.679  0.00  0.00    +0.000 C 
ENDBRANCH  18  19
ENDBRANCH   3  18
TORSDOF 4
ENDMDL
MODEL 8
REMARK VINA RESULT:      -6.6      1.915      3.841
REMARK  Name = 
REMARK  7 active torsions:
REMARK  status: ('A' for Active; 'I' for Inactive)
REMARK    1  A    between atoms: C_1  and  N_2
REMARK    2  A    between atoms: C_3  and  C_5
REMARK    3  A    between atoms: C_8  and  C_9
REMARK    4  A    between atoms: N_11  and  C_12
REMARK    5  A    between atoms: C_12  and  C_13
REMARK    6  A    between atoms: N_15  and  C_16
REMARK    7  A    between atoms: N_15  and  C_17
REMARK                            x       y       z     vdW  Elec       q    Type
REMARK                         _______ _______ _______ _____ _____    ______ ____
ROOT
ATOM      1  C   UNL     1       3.495   5.848  18.846  0.00  0.00    +0.000 C 
ATOM      2  C   UNL     1       3.749   5.479  17.360  0.00  0.00    +0.000 C 
ATOM      3  N   UNL     1       4.506   4.216  17.167  0.00  0.00    +0.000 NA
ATOM      4  C   UNL     1       3.851   3.157  17.960  0.00  0.00    +0.000 C 
ATOM      5  C   UNL     1       3.608   3.545  19.426  0.00  0.00    +0.000 C 
ATOM      6  O   UNL     1       2.846   4.752  19.528  0.00  0.00    +0.000 OA
ENDROOT
BRANCH   1  10
ATOM      7  C   UNL     1       1.105   9.386  19.174  0.00  0.00    +0.000 A 
ATOM      8  C   UNL     1       1.688   9.086  17.946  0.00  0.00    +0.000 A 
ATOM      9  C   UNL     1       2.468   7.939  17.824  0.00  0.00    +0.000 A 
ATOM     10  C   UNL     1       2.658   7.116  18.934  0.00  0.00    +0.000 A 
ATOM     11  N   UNL     1       2.092   7.398  20.140  0.00  0.00    +0.000 NA
ATOM     12  C   UNL     1       1.346   8.527  20.236  0.00  0.00    +0.000 A 
BRANCH   7  15
ATOM     13  C   UNL     1      -0.423  12.777  18.542  0.00  0.00    +0.000 C 
ATOM     14  N   UNL     1       0.361  11.574  18.436  0.00  0.00    +0.000 N 
ATOM     15  C   UNL     1       0.271  10.588  19.394  0.00  0.00    +0.000 C 
ATOM     16  O   UNL     1      -0.464  10.655  20.374  0.00  0.00    +0.000 OA
ATOM     17  H   UNL     1       0.839  11.391  17.565  0.00  0.00    +0.000 HD
ENDBRANCH   7  15
ENDBRANCH   1  10
BRANCH   3  18
ATOM     18  C   UNL     1       5.931   4.408  17.521  0.00  0.00    +0.000 C 
BRANCH  18  19
ATOM     19  C   UNL     1       6.455   5.793  17.119  0.00  0.00    +0.000 C 
ATOM     20  O   UNL     1       6.127   6.260  16.024  0.00  0.00    +0.000 OA
ATOM     21  N   UNL     1       7.299   6.470  17.989  0.00  0.00    +0.000 N 
ATOM     22  C   UNL     1       7.698   5.997  19.308  0.00  0.00    +0.000 C 
ATOM     23  C   UNL     1       7.848   7.752  17.585  0.00  0.00    +0.000 C 
ENDBRANCH  18  19
ENDBRANCH   3  18
TORSDOF 4
ENDMDL
MODEL 9
REMARK VINA RESULT:      -6.5      1.826      3.439
REMARK  Name = 
REMARK  7 active torsions:
REMARK  status: ('A' for Active; 'I' for Inactive)
REMARK    1  A    between atoms: C_1  and  N_2
REMARK    2  A    between atoms: C_3  and  C_5
REMARK    3  A    between atoms: C_8  and  C_9
REMARK    4  A    between atoms: N_11  and  C_12
REMARK    5  A    between atoms: C_12  and  C_13
REMARK    6  A    between atoms: N_15  and  C_16
REMARK    7  A    between atoms: N_15  and  C_17
REMARK                            x       y       z     vdW  Elec       q    Type
REMARK                         _______ _______ _______ _____ _____    ______ ____
ROOT
ATOM      1  C   UNL     1       2.614   5.801  19.620  0.00  0.00    +0.000 C 
ATOM      2  C   UNL     1       3.037   5.235  18.238  0.00  0.00    +0.000 C 
ATOM      3  N   UNL     1       3.457   3.811  18.267  0.00  0.00    +0.000 NA
ATOM      4  C   UNL     1       2.409   3.032  18.957  0.00  0.00    +0.000 C 
ATOM      5  C   UNL     1       2.006   3.612  20.320  0.00  0.00    +0.000 C 
ATOM      6  O   UNL     1       1.584   4.975  20.204  0.00  0.00    +0.000 OA
ENDROOT
BRANCH   1  10
ATOM      7  C   UNL     1       1.231   9.839  19.283  0.00  0.00    +0.000 A 
ATOM      8  C   UNL     1       1.811   9.238  18.169  0.00  0.00    +0.000 A 
ATOM      9  C   UNL     1       2.266   7.925  18.264  0.00  0.00    +0.000 A 
ATOM     10  C   UNL     1       2.140   7.240  19.472  0.00  0.00    +0.000 A 
ATOM     11  N   UNL     1       1.573   7.817  20.567  0.00  0.00    +0.000 NA
ATOM     12  C   UNL     1       1.148   9.101  20.454  0.00  0.00    +0.000 A 
BRANCH   7  15
ATOM     13  C   UNL     1      -0.726  12.873  18.184  0.00  0.00    +0.000 C 
ATOM     14  N   UNL     1      -0.162  11.551  18.273  0.00  0.00    +0.000 N 
ATOM     15  C   UNL     1       0.731  11.232  19.273  0.00  0.00    +0.000 C 
ATOM     16  O   UNL     1       1.096  12.022  20.137  0.00  0.00    +0.000 OA
ATOM     17  H   UNL     1      -0.565  10.821  17.703  0.00  0.00    +0.000 HD
ENDBRANCH   7  15
ENDBRANCH   1  10
BRANCH   3  18
ATOM     18  C   UNL     1       4.789   3.677  18.899  0.00  0.00    +0.000 C 
BRANCH  18  19
ATOM     19  C   UNL     1       5.778   4.747  18.417  0.00  0.00    +0.000 C 
ATOM     20  O   UNL     1       6.186   5.587  19.224  0.00  0.00    +0.000 OA
ATOM     21  N   UNL     1       6.167   4.751  17.084  0.00  0.00    +0.000 N 
ATOM     22  C   UNL     1       5.755   3.771  16.088  0.00  0.00    +0.000 C 
ATOM     23  C   UNL     1       7.052   5.799  16.611  0.00  0.00    +0.000 C 
ENDBRANCH  18  19
ENDBRANCH   3  18
TORSDOF 4
ENDMDL
