MODEL 1
REMARK VINA RESULT:      -7.1      0.000      0.000
REMARK  Name = 
REMARK  3 active torsions:
REMARK  status: ('A' for Active; 'I' for Inactive)
REMARK    1  A    between atoms: C_1  and  N_2
REMARK    2  A    between atoms: N_9  and  C_10
REMARK    3  A    between atoms: N_19  and  C_20
REMARK                            x       y       z     vdW  Elec       q    Type
REMARK                         _______ _______ _______ _____ _____    ______ ____
ROOT
ATOM      1  C   UNL     1       6.628  15.710  25.551  0.00  0.00    +0.000 C 
ATOM      2  N   UNL     1       6.224  16.095  24.202  0.00  0.00    +0.000 NA
ATOM      3  C   UNL     1       5.240  15.125  23.655  0.00  0.00    +0.000 C 
ATOM      4  C   UNL     1       4.841  15.438  22.191  0.00  0.00    +0.000 C 
ATOM      5  N   UNL     1       6.066  15.475  21.400  0.00  0.00    +0.000 N 
ATOM      6  C   UNL     1       6.012  15.245  20.052  0.00  0.00    +0.000 A 
ATOM      7  N   UNL     1       4.863  15.293  19.416  0.00  0.00    +0.000 NA
ATOM      8  C   UNL     1       4.875  14.996  18.121  0.00  0.00    +0.000 A 
ATOM      9  N   UNL     1       3.669  15.116  17.428  0.00  0.00    +0.000 N 
ATOM     10  N   UNL     1       5.949  14.570  17.462  0.00  0.00    +0.000 NA
ATOM     11  C   UNL     1       7.061  14.526  18.189  0.00  0.00    +0.000 A 
ATOM     12  N   UNL     1       8.245  14.096  17.584  0.00  0.00    +0.000 N 
ATOM     13  N   UNL     1       7.134  14.891  19.460  0.00  0.00    +0.000 NA
ATOM     14  C   UNL     1       7.042  16.466  21.849  0.00  0.00    +0.000 C 
ATOM     15  C   UNL     1       7.413  16.155  23.313  0.00  0.00    +0.000 C 
ATOM     16  H   UNL     1       3.640  14.602  16.563  0.00  0.00    +0.000 HD
ATOM     17  H   UNL     1       8.155  13.979  16.586  0.00  0.00    +0.000 HD
ENDROOT
BRANCH   9  18
ATOM     18  C   UNL     1       2.620  15.999  17.726  0.00  0.00    +0.000 A 
ATOM     19  C   UNL     1       1.606  15.644  18.634  0.00  0.00    +0.000 A 
ATOM     20  C   UNL     1       0.497  16.463  18.844  0.00  0.00    +0.000 A 
ATOM     21  C   UNL     1       0.388  17.645  18.132  0.00  0.00    +0.000 A 
ATOM     22  F   UNL     1      -0.689  18.421  18.304  0.00  0.00    +0.000 F 
ATOM     23  C   UNL     1       1.376  18.028  17.231  0.00  0.00    +0.000 A 
ATOM     24  C   UNL     1       2.495  17.209  17.033  0.00  0.00    +0.000 A 
ENDBRANCH   9  18
BRANCH  12  25
ATOM     25  C   UNL     1       9.312  13.424  18.207  0.00  0.00    +0.000 A 
ATOM     26  C   UNL     1       9.632  12.089  17.903  0.00  0.00    +0.000 A 
ATOM     27  C   UNL     1      10.659  11.421  18.572  0.00  0.00    +0.000 A 
ATOM     28  C   UNL     1      11.363  12.082  19.566  0.00  0.00    +0.000 A 
ATOM     29  F   UNL     1      12.333  11.438  20.228  0.00  0.00    +0.000 F 
ATOM     30  C   UNL     1      11.067  13.400  19.892  0.00  0.00    +0.000 A 
ATOM     31  C   UNL     1      10.051  14.073  19.205  0.00  0.00    +0.000 A 
ENDBRANCH  12  25
TORSDOF 2
ENDMDL
MODEL 2
REMARK VINA RESULT:      -7.1      7.780      9.642
REMARK  Name = 
REMARK  3 active torsions:
REMARK  status: ('A' for Active; 'I' for Inactive)
REMARK    1  A    between atoms: C_1  and  N_2
REMARK    2  A    between atoms: N_9  and  C_10
REMARK    3  A    between atoms: N_19  and  C_20
REMARK                            x       y       z     vdW  Elec       q    Type
REMARK                         _______ _______ _______ _____ _____    ______ ____
ROOT
ATOM      1  C   UNL     1      -3.431  10.344  14.628  0.00  0.00    +0.000 C 
ATOM      2  N   UNL     1      -3.329  10.588  16.065  0.00  0.00    +0.000 NA
ATOM      3  C   UNL     1      -2.365  11.686  16.339  0.00  0.00    +0.000 C 
ATOM      4  C   UNL     1      -2.152  11.930  17.855  0.00  0.00    +0.000 C 
ATOM      5  N   UNL     1      -1.724  10.669  18.447  0.00  0.00    +0.000 N 
ATOM      6  C   UNL     1      -1.012  10.674  19.616  0.00  0.00    +0.000 A 
ATOM      7  N   UNL     1      -0.969  11.754  20.363  0.00  0.00    +0.000 NA
ATOM      8  C   UNL     1      -0.207  11.709  21.450  0.00  0.00    +0.000 A 
ATOM      9  N   UNL     1      -0.216  12.829  22.282  0.00  0.00    +0.000 N 
ATOM     10  N   UNL     1       0.576  10.683  21.772  0.00  0.00    +0.000 NA
ATOM     11  C   UNL     1       0.491   9.643  20.947  0.00  0.00    +0.000 A 
ATOM     12  N   UNL     1       1.271   8.513  21.204  0.00  0.00    +0.000 N 
ATOM     13  N   UNL     1      -0.314   9.592  19.896  0.00  0.00    +0.000 NA
ATOM     14  C   UNL     1      -2.671   9.569  18.272  0.00  0.00    +0.000 C 
ATOM     15  C   UNL     1      -2.889   9.352  16.760  0.00  0.00    +0.000 C 
ATOM     16  H   UNL     1       0.577  12.889  22.899  0.00  0.00    +0.000 HD
ATOM     17  H   UNL     1       1.743   8.557  22.094  0.00  0.00    +0.000 HD
ENDROOT
BRANCH   9  18
ATOM     18  C   UNL     1      -1.278  13.730  22.457  0.00  0.00    +0.000 A 
ATOM     19  C   UNL     1      -1.199  15.050  21.976  0.00  0.00    +0.000 A 
ATOM     20  C   UNL     1      -2.195  15.986  22.250  0.00  0.00    +0.000 A 
ATOM     21  C   UNL     1      -3.279  15.608  23.024  0.00  0.00    +0.000 A 
ATOM     22  F   UNL     1      -4.224  16.510  23.319  0.00  0.00    +0.000 F 
ATOM     23  C   UNL     1      -3.391  14.310  23.510  0.00  0.00    +0.000 A 
ATOM     24  C   UNL     1      -2.395  13.369  23.221  0.00  0.00    +0.000 A 
ENDBRANCH   9  18
BRANCH  12  25
ATOM     25  C   UNL     1       1.794   7.619  20.253  0.00  0.00    +0.000 A 
ATOM     26  C   UNL     1       2.258   8.052  18.998  0.00  0.00    +0.000 A 
ATOM     27  C   UNL     1       2.723   7.144  18.045  0.00  0.00    +0.000 A 
ATOM     28  C   UNL     1       2.708   5.789  18.337  0.00  0.00    +0.000 A 
ATOM     29  F   UNL     1       3.130   4.911  17.418  0.00  0.00    +0.000 F 
ATOM     30  C   UNL     1       2.252   5.330  19.567  0.00  0.00    +0.000 A 
ATOM     31  C   UNL     1       1.807   6.245  20.527  0.00  0.00    +0.000 A 
ENDBRANCH  12  25
TORSDOF 2
ENDMDL
MODEL 3
REMARK VINA RESULT:      -6.9      7.769      9.550
REMARK  Name = 
REMARK  3 active torsions:
REMARK  status: ('A' for Active; 'I' for Inactive)
REMARK    1  A    between atoms: C_1  and  N_2
REMARK    2  A    between atoms: N_9  and  C_10
REMARK    3  A    between atoms: N_19  and  C_20
REMARK                            x       y       z     vdW  Elec       q    Type
REMARK                         _______ _______ _______ _____ _____    ______ ____
ROOT
ATOM      1  C   UNL     1      -3.412  10.376  14.564  0.00  0.00    +0.000 C 
ATOM      2  N   UNL     1      -3.323  10.602  16.004  0.00  0.00    +0.000 NA
ATOM      3  C   UNL     1      -2.370  11.702  16.301  0.00  0.00    +0.000 C 
ATOM      4  C   UNL     1      -2.172  11.928  17.822  0.00  0.00    +0.000 C 
ATOM      5  N   UNL     1      -1.739  10.662  18.401  0.00  0.00    +0.000 N 
ATOM      6  C   UNL     1      -1.036  10.656  19.575  0.00  0.00    +0.000 A 
ATOM      7  N   UNL     1      -1.008  11.727  20.337  0.00  0.00    +0.000 NA
ATOM      8  C   UNL     1      -0.255  11.673  21.429  0.00  0.00    +0.000 A 
ATOM      9  N   UNL     1      -0.279  12.782  22.277  0.00  0.00    +0.000 N 
ATOM     10  N   UNL     1       0.533  10.648  21.744  0.00  0.00    +0.000 NA
ATOM     11  C   UNL     1       0.463   9.619  20.905  0.00  0.00    +0.000 A 
ATOM     12  N   UNL     1       1.250   8.492  21.154  0.00  0.00    +0.000 N 
ATOM     13  N   UNL     1      -0.333   9.576  19.847  0.00  0.00    +0.000 NA
ATOM     14  C   UNL     1      -2.677   9.558  18.203  0.00  0.00    +0.000 C 
ATOM     15  C   UNL     1      -2.880   9.359  16.687  0.00  0.00    +0.000 C 
ATOM     16  H   UNL     1       0.509  12.839  22.901  0.00  0.00    +0.000 HD
ATOM     17  H   UNL     1       1.714   8.528  22.048  0.00  0.00    +0.000 HD
ENDROOT
BRANCH   9  18
ATOM     18  C   UNL     1      -1.349  13.673  22.455  0.00  0.00    +0.000 A 
ATOM     19  C   UNL     1      -2.508  13.287  23.152  0.00  0.00    +0.000 A 
ATOM     20  C   UNL     1      -3.623  14.120  23.230  0.00  0.00    +0.000 A 
ATOM     21  C   UNL     1      -3.590  15.349  22.594  0.00  0.00    +0.000 A 
ATOM     22  F   UNL     1      -4.668  16.142  22.636  0.00  0.00    +0.000 F 
ATOM     23  C   UNL     1      -2.458  15.763  21.901  0.00  0.00    +0.000 A 
ATOM     24  C   UNL     1      -1.335  14.929  21.837  0.00  0.00    +0.000 A 
ENDBRANCH   9  18
BRANCH  12  25
ATOM     25  C   UNL     1       1.787   7.614  20.195  0.00  0.00    +0.000 A 
ATOM     26  C   UNL     1       1.912   6.234  20.434  0.00  0.00    +0.000 A 
ATOM     27  C   UNL     1       2.498   5.387  19.492  0.00  0.00    +0.000 A 
ATOM     28  C   UNL     1       2.982   5.921  18.308  0.00  0.00    +0.000 A 
ATOM     29  F   UNL     1       3.567   5.117  17.411  0.00  0.00    +0.000 F 
ATOM     30  C   UNL     1       2.876   7.282  18.045  0.00  0.00    +0.000 A 
ATOM     31  C   UNL     1       2.269   8.124  18.982  0.00  0.00    +0.000 A 
ENDBRANCH  12  25
TORSDOF 2
ENDMDL
MODEL 4
REMARK VINA RESULT:      -6.9      6.473     10.389
REMARK  Name = 
REMARK  3 active torsions:
REMARK  status: ('A' for Active; 'I' for Inactive)
REMARK    1  A    between atoms: C_1  and  N_2
REMARK    2  A    between atoms: N_9  and  C_10
REMARK    3  A    between atoms: N_19  and  C_20
REMARK                            x       y       z     vdW  Elec       q    Type
REMARK                         _______ _______ _______ _____ _____    ______ ____
ROOT
ATOM      1  C   UNL     1       3.052  16.260  18.200  0.00  0.00    +0.000 C 
ATOM      2  N   UNL     1       3.092  14.912  18.761  0.00  0.00    +0.000 NA
ATOM      3  C   UNL     1       2.254  13.987  17.955  0.00  0.00    +0.000 C 
ATOM      4  C   UNL     1       2.191  12.560  18.556  0.00  0.00    +0.000 C 
ATOM      5  N   UNL     1       1.705  12.681  19.925  0.00  0.00    +0.000 N 
ATOM      6  C   UNL     1       1.095  11.614  20.527  0.00  0.00    +0.000 A 
ATOM      7  N   UNL     1       1.210  10.409  20.016  0.00  0.00    +0.000 NA
ATOM      8  C   UNL     1       0.541   9.431  20.615  0.00  0.00    +0.000 A 
ATOM      9  N   UNL     1       0.717   8.138  20.117  0.00  0.00    +0.000 N 
ATOM     10  N   UNL     1      -0.300   9.612  21.630  0.00  0.00    +0.000 NA
ATOM     11  C   UNL     1      -0.376  10.866  22.067  0.00  0.00    +0.000 A 
ATOM     12  N   UNL     1      -1.228  11.158  23.134  0.00  0.00    +0.000 N 
ATOM     13  N   UNL     1       0.331  11.870  21.569  0.00  0.00    +0.000 NA
ATOM     14  C   UNL     1       2.534  13.523  20.786  0.00  0.00    +0.000 C 
ATOM     15  C   UNL     1       2.605  14.933  20.164  0.00  0.00    +0.000 C 
ATOM     16  H   UNL     1      -0.013   7.496  20.375  0.00  0.00    +0.000 HD
ATOM     17  H   UNL     1      -1.618  10.332  23.561  0.00  0.00    +0.000 HD
ENDROOT
BRANCH   9  18
ATOM     18  C   UNL     1       1.865   7.638  19.483  0.00  0.00    +0.000 A 
ATOM     19  C   UNL     1       2.315   8.176  18.263  0.00  0.00    +0.000 A 
ATOM     20  C   UNL     1       3.380   7.610  17.565  0.00  0.00    +0.000 A 
ATOM     21  C   UNL     1       3.999   6.483  18.081  0.00  0.00    +0.000 A 
ATOM     22  F   UNL     1       5.001   5.913  17.401  0.00  0.00    +0.000 F 
ATOM     23  C   UNL     1       3.583   5.930  19.287  0.00  0.00    +0.000 A 
ATOM     24  C   UNL     1       2.521   6.511  19.992  0.00  0.00    +0.000 A 
ENDBRANCH   9  18
BRANCH  12  25
ATOM     25  C   UNL     1      -1.905  12.370  23.362  0.00  0.00    +0.000 A 
ATOM     26  C   UNL     1      -1.223  13.594  23.480  0.00  0.00    +0.000 A 
ATOM     27  C   UNL     1      -1.906  14.778  23.760  0.00  0.00    +0.000 A 
ATOM     28  C   UNL     1      -3.280  14.741  23.945  0.00  0.00    +0.000 A 
ATOM     29  F   UNL     1      -3.937  15.870  24.239  0.00  0.00    +0.000 F 
ATOM     30  C   UNL     1      -3.980  13.546  23.839  0.00  0.00    +0.000 A 
ATOM     31  C   UNL     1      -3.295  12.364  23.537  0.00  0.00    +0.000 A 
ENDBRANCH  12  25
TORSDOF 2
ENDMDL
MODEL 5
REMARK VINA RESULT:      -6.8      6.028      9.998
REMARK  Name = 
REMARK  3 active torsions:
REMARK  status: ('A' for Active; 'I' for Inactive)
REMARK    1  A    between atoms: C_1  and  N_2
REMARK    2  A    between atoms: N_9  and  C_10
REMARK    3  A    between atoms: N_19  and  C_20
REMARK                            x       y       z     vdW  Elec       q    Type
REMARK                         _______ _______ _______ _____ _____    ______ ____
ROOT
ATOM      1  C   UNL     1       4.090  16.766  18.518  0.00  0.00    +0.000 C 
ATOM      2  N   UNL     1       3.845  15.435  19.068  0.00  0.00    +0.000 NA
ATOM      3  C   UNL     1       2.891  14.685  18.210  0.00  0.00    +0.000 C 
ATOM      4  C   UNL     1       2.527  13.296  18.793  0.00  0.00    +0.000 C 
ATOM      5  N   UNL     1       2.002  13.507  20.137  0.00  0.00    +0.000 N 
ATOM      6  C   UNL     1       1.171  12.574  20.696  0.00  0.00    +0.000 A 
ATOM      7  N   UNL     1       1.082  11.369  20.180  0.00  0.00    +0.000 NA
ATOM      8  C   UNL     1       0.209  10.536  20.734  0.00  0.00    +0.000 A 
ATOM      9  N   UNL     1       0.164   9.234  20.233  0.00  0.00    +0.000 N 
ATOM     10  N   UNL     1      -0.633  10.874  21.706  0.00  0.00    +0.000 NA
ATOM     11  C   UNL     1      -0.493  12.119  22.150  0.00  0.00    +0.000 A 
ATOM     12  N   UNL     1      -1.330  12.567  23.176  0.00  0.00    +0.000 N 
ATOM     13  N   UNL     1       0.416  12.971  21.700  0.00  0.00    +0.000 NA
ATOM     14  C   UNL     1       2.929  14.176  21.047  0.00  0.00    +0.000 C 
ATOM     15  C   UNL     1       3.298  15.547  20.444  0.00  0.00    +0.000 C 
ATOM     16  H   UNL     1      -0.687   8.741  20.446  0.00  0.00    +0.000 HD
ATOM     17  H   UNL     1      -1.891  11.830  23.574  0.00  0.00    +0.000 HD
ENDROOT
BRANCH   9  18
ATOM     18  C   UNL     1       1.228   8.525  19.653  0.00  0.00    +0.000 A 
ATOM     19  C   UNL     1       1.709   8.854  18.373  0.00  0.00    +0.000 A 
ATOM     20  C   UNL     1       2.682   8.083  17.740  0.00  0.00    +0.000 A 
ATOM     21  C   UNL     1       3.174   6.959  18.382  0.00  0.00    +0.000 A 
ATOM     22  F   UNL     1       4.084   6.194  17.767  0.00  0.00    +0.000 F 
ATOM     23  C   UNL     1       2.723   6.609  19.651  0.00  0.00    +0.000 A 
ATOM     24  C   UNL     1       1.756   7.395  20.289  0.00  0.00    +0.000 A 
ENDBRANCH   9  18
BRANCH  12  25
ATOM     25  C   UNL     1      -1.776  13.885  23.381  0.00  0.00    +0.000 A 
ATOM     26  C   UNL     1      -1.137  14.757  24.279  0.00  0.00    +0.000 A 
ATOM     27  C   UNL     1      -1.626  16.044  24.510  0.00  0.00    +0.000 A 
ATOM     28  C   UNL     1      -2.775  16.460  23.855  0.00  0.00    +0.000 A 
ATOM     29  F   UNL     1      -3.263  17.685  24.092  0.00  0.00    +0.000 F 
ATOM     30  C   UNL     1      -3.431  15.619  22.965  0.00  0.00    +0.000 A 
ATOM     31  C   UNL     1      -2.925  14.338  22.720  0.00  0.00    +0.000 A 
ENDBRANCH  12  25
TORSDOF 2
ENDMDL
MODEL 6
REMARK VINA RESULT:      -6.8      6.525      8.027
REMARK  Name = 
REMARK  3 active torsions:
REMARK  status: ('A' for Active; 'I' for Inactive)
REMARK    1  A    between atoms: C_1  and  N_2
REMARK    2  A    between atoms: N_9  and  C_10
REMARK    3  A    between atoms: N_19  and  C_20
REMARK                            x       y       z     vdW  Elec       q    Type
REMARK                         _______ _______ _______ _____ _____    ______ ____
ROOT
ATOM      1  C   UNL     1       4.639  15.147  18.297  0.00  0.00    +0.000 C 
ATOM      2  N   UNL     1       3.346  14.652  18.763  0.00  0.00    +0.000 NA
ATOM      3  C   UNL     1       3.386  14.387  20.225  0.00  0.00    +0.000 C 
ATOM      4  C   UNL     1       2.066  13.778  20.759  0.00  0.00    +0.000 C 
ATOM      5  N   UNL     1       1.800  12.566  19.994  0.00  0.00    +0.000 N 
ATOM      6  C   UNL     1       1.015  11.581  20.530  0.00  0.00    +0.000 A 
ATOM      7  N   UNL     1       0.258  11.831  21.575  0.00  0.00    +0.000 NA
ATOM      8  C   UNL     1      -0.429  10.814  22.082  0.00  0.00    +0.000 A 
ATOM      9  N   UNL     1      -1.287  11.091  23.147  0.00  0.00    +0.000 N 
ATOM     10  N   UNL     1      -0.326   9.557  21.658  0.00  0.00    +0.000 NA
ATOM     11  C   UNL     1       0.481   9.390  20.615  0.00  0.00    +0.000 A 
ATOM     12  N   UNL     1       0.651   8.106  20.092  0.00  0.00    +0.000 N 
ATOM     13  N   UNL     1       1.126  10.377  20.009  0.00  0.00    +0.000 NA
ATOM     14  C   UNL     1       1.676  12.779  18.553  0.00  0.00    +0.000 C 
ATOM     15  C   UNL     1       2.989  13.405  18.039  0.00  0.00    +0.000 C 
ATOM     16  H   UNL     1      -1.540  10.284  23.692  0.00  0.00    +0.000 HD
ATOM     17  H   UNL     1       0.022   7.432  20.499  0.00  0.00    +0.000 HD
ENDROOT
BRANCH   9  18
ATOM     18  C   UNL     1      -1.944  12.307  23.394  0.00  0.00    +0.000 A 
ATOM     19  C   UNL     1      -1.231  13.518  23.468  0.00  0.00    +0.000 A 
ATOM     20  C   UNL     1      -1.856  14.710  23.831  0.00  0.00    +0.000 A 
ATOM     21  C   UNL     1      -3.205  14.696  24.140  0.00  0.00    +0.000 A 
ATOM     22  F   UNL     1      -3.805  15.830  24.522  0.00  0.00    +0.000 F 
ATOM     23  C   UNL     1      -3.940  13.517  24.072  0.00  0.00    +0.000 A 
ATOM     24  C   UNL     1      -3.312  12.324  23.692  0.00  0.00    +0.000 A 
ENDBRANCH   9  18
BRANCH  12  25
ATOM     25  C   UNL     1       1.803   7.600  19.464  0.00  0.00    +0.000 A 
ATOM     26  C   UNL     1       2.287   8.130  18.254  0.00  0.00    +0.000 A 
ATOM     27  C   UNL     1       3.400   7.580  17.617  0.00  0.00    +0.000 A 
ATOM     28  C   UNL     1       4.028   6.479  18.179  0.00  0.00    +0.000 A 
ATOM     29  F   UNL     1       5.081   5.931  17.560  0.00  0.00    +0.000 F 
ATOM     30  C   UNL     1       3.570   5.931  19.372  0.00  0.00    +0.000 A 
ATOM     31  C   UNL     1       2.467   6.498  20.018  0.00  0.00    +0.000 A 
ENDBRANCH  12  25
TORSDOF 2
ENDMDL
MODEL 7
REMARK VINA RESULT:      -6.8      5.844      7.589
REMARK  Name = 
REMARK  3 active torsions:
REMARK  status: ('A' for Active; 'I' for Inactive)
REMARK    1  A    between atoms: C_1  and  N_2
REMARK    2  A    between atoms: N_9  and  C_10
REMARK    3  A    between atoms: N_19  and  C_20
REMARK                            x       y       z     vdW  Elec       q    Type
REMARK                         _______ _______ _______ _____ _____    ______ ____
ROOT
ATOM      1  C   UNL     1       5.591  15.437  18.590  0.00  0.00    +0.000 C 
ATOM      2  N   UNL     1       4.204  15.276  19.020  0.00  0.00    +0.000 NA
ATOM      3  C   UNL     1       4.138  15.021  20.483  0.00  0.00    +0.000 C 
ATOM      4  C   UNL     1       2.695  14.757  20.980  0.00  0.00    +0.000 C 
ATOM      5  N   UNL     1       2.162  13.640  20.209  0.00  0.00    +0.000 N 
ATOM      6  C   UNL     1       1.146  12.882  20.724  0.00  0.00    +0.000 A 
ATOM      7  N   UNL     1       0.445  13.317  21.747  0.00  0.00    +0.000 NA
ATOM      8  C   UNL     1      -0.483  12.502  22.235  0.00  0.00    +0.000 A 
ATOM      9  N   UNL     1      -1.276  12.990  23.276  0.00  0.00    +0.000 N 
ATOM     10  N   UNL     1      -0.678  11.255  21.816  0.00  0.00    +0.000 NA
ATOM     11  C   UNL     1       0.091  10.888  20.797  0.00  0.00    +0.000 A 
ATOM     12  N   UNL     1      -0.043   9.597  20.281  0.00  0.00    +0.000 N 
ATOM     13  N   UNL     1       0.974  11.682  20.208  0.00  0.00    +0.000 NA
ATOM     14  C   UNL     1       2.133  13.866  18.765  0.00  0.00    +0.000 C 
ATOM     15  C   UNL     1       3.573  14.148  18.288  0.00  0.00    +0.000 C 
ATOM     16  H   UNL     1      -1.733  12.273  23.814  0.00  0.00    +0.000 HD
ATOM     17  H   UNL     1      -0.829   9.100  20.670  0.00  0.00    +0.000 HD
ENDROOT
BRANCH   9  18
ATOM     18  C   UNL     1      -1.623  14.331  23.503  0.00  0.00    +0.000 A 
ATOM     19  C   UNL     1      -2.486  15.016  22.629  0.00  0.00    +0.000 A 
ATOM     20  C   UNL     1      -2.740  16.379  22.776  0.00  0.00    +0.000 A 
ATOM     21  C   UNL     1      -2.117  17.073  23.800  0.00  0.00    +0.000 A 
ATOM     22  F   UNL     1      -2.330  18.388  23.928  0.00  0.00    +0.000 F 
ATOM     23  C   UNL     1      -1.262  16.424  24.684  0.00  0.00    +0.000 A 
ATOM     24  C   UNL     1      -1.021  15.052  24.541  0.00  0.00    +0.000 A 
ENDBRANCH   9  18
BRANCH  12  25
ATOM     25  C   UNL     1       0.967   8.820  19.686  0.00  0.00    +0.000 A 
ATOM     26  C   UNL     1       1.422   9.064  18.378  0.00  0.00    +0.000 A 
ATOM     27  C   UNL     1       2.387   8.248  17.784  0.00  0.00    +0.000 A 
ATOM     28  C   UNL     1       2.890   7.168  18.492  0.00  0.00    +0.000 A 
ATOM     29  F   UNL     1       3.798   6.367  17.918  0.00  0.00    +0.000 F 
ATOM     30  C   UNL     1       2.456   6.899  19.784  0.00  0.00    +0.000 A 
ATOM     31  C   UNL     1       1.505   7.731  20.384  0.00  0.00    +0.000 A 
ENDBRANCH  12  25
TORSDOF 2
ENDMDL
MODEL 8
REMARK VINA RESULT:      -6.7      5.997      7.911
REMARK  Name = 
REMARK  3 active torsions:
REMARK  status: ('A' for Active; 'I' for Inactive)
REMARK    1  A    between atoms: C_1  and  N_2
REMARK    2  A    between atoms: N_9  and  C_10
REMARK    3  A    between atoms: N_19  and  C_20
REMARK                            x       y       z     vdW  Elec       q    Type
REMARK                         _______ _______ _______ _____ _____    ______ ____
ROOT
ATOM      1  C   UNL     1       4.787  16.270  18.598  0.00  0.00    +0.000 C 
ATOM      2  N   UNL     1       3.453  16.017  19.136  0.00  0.00    +0.000 NA
ATOM      3  C   UNL     1       3.526  15.707  20.588  0.00  0.00    +0.000 C 
ATOM      4  C   UNL     1       2.147  15.345  21.193  0.00  0.00    +0.000 C 
ATOM      5  N   UNL     1       1.609  14.228  20.424  0.00  0.00    +0.000 N 
ATOM      6  C   UNL     1       0.682  13.396  20.990  0.00  0.00    +0.000 A 
ATOM      7  N   UNL     1       0.049  13.755  22.085  0.00  0.00    +0.000 NA
ATOM      8  C   UNL     1      -0.789  12.872  22.616  0.00  0.00    +0.000 A 
ATOM      9  N   UNL     1      -1.514  13.277  23.738  0.00  0.00    +0.000 N 
ATOM     10  N   UNL     1      -0.954  11.632  22.164  0.00  0.00    +0.000 NA
ATOM     11  C   UNL     1      -0.257  11.346  21.070  0.00  0.00    +0.000 A 
ATOM     12  N   UNL     1      -0.367  10.068  20.515  0.00  0.00    +0.000 N 
ATOM     13  N   UNL     1       0.530  12.208  20.442  0.00  0.00    +0.000 NA
ATOM     14  C   UNL     1       1.445  14.504  18.998  0.00  0.00    +0.000 C 
ATOM     15  C   UNL     1       2.821  14.883  18.414  0.00  0.00    +0.000 C 
ATOM     16  H   UNL     1      -1.886  12.516  24.283  0.00  0.00    +0.000 HD
ATOM     17  H   UNL     1      -1.090   9.515  20.947  0.00  0.00    +0.000 HD
ENDROOT
BRANCH   9  18
ATOM     18  C   UNL     1      -1.911  14.587  24.048  0.00  0.00    +0.000 A 
ATOM     19  C   UNL     1      -1.228  15.344  25.018  0.00  0.00    +0.000 A 
ATOM     20  C   UNL     1      -1.686  16.598  25.418  0.00  0.00    +0.000 A 
ATOM     21  C   UNL     1      -2.847  17.102  24.857  0.00  0.00    +0.000 A 
ATOM     22  F   UNL     1      -3.311  18.291  25.260  0.00  0.00    +0.000 F 
ATOM     23  C   UNL     1      -3.542  16.382  23.891  0.00  0.00    +0.000 A 
ATOM     24  C   UNL     1      -3.071  15.128  23.481  0.00  0.00    +0.000 A 
ENDBRANCH   9  18
BRANCH  12  25
ATOM     25  C   UNL     1       0.628   9.371  19.806  0.00  0.00    +0.000 A 
ATOM     26  C   UNL     1       0.899   9.630  18.451  0.00  0.00    +0.000 A 
ATOM     27  C   UNL     1       1.853   8.891  17.749  0.00  0.00    +0.000 A 
ATOM     28  C   UNL     1       2.530   7.870  18.398  0.00  0.00    +0.000 A 
ATOM     29  F   UNL     1       3.428   7.141  17.723  0.00  0.00    +0.000 F 
ATOM     30  C   UNL     1       2.280   7.587  19.735  0.00  0.00    +0.000 A 
ATOM     31  C   UNL     1       1.340   8.345  20.441  0.00  0.00    +0.000 A 
ENDBRANCH  12  25
TORSDOF 2
ENDMDL
MODEL 9
REMARK VINA RESULT:      -6.6      9.276     12.049
REMARK  Name = 
REMARK  3 active torsions:
REMARK  status: ('A' for Active; 'I' for Inactive)
REMARK    1  A    between atoms: C_1  and  N_2
REMARK    2  A    between atoms: N_9  and  C_10
REMARK    3  A    between atoms: N_19  and  C_20
REMARK                            x       y       z     vdW  Elec       q    Type
REMARK                         _______ _______ _______ _____ _____    ______ ____
ROOT
ATOM      1  C   UNL     1       1.821   1.596  21.950  0.00  0.00    +0.000 C 
ATOM      2  N   UNL     1       2.065   2.258  20.671  0.00  0.00    +0.000 NA
ATOM      3  C   UNL     1       3.441   2.818  20.629  0.00  0.00    +0.000 C 
ATOM      4  C   UNL     1       3.725   3.608  19.326  0.00  0.00    +0.000 C 
ATOM      5  N   UNL     1       2.710   4.648  19.213  0.00  0.00    +0.000 N 
ATOM      6  C   UNL     1       2.967   5.770  18.472  0.00  0.00    +0.000 A 
ATOM      7  N   UNL     1       3.972   5.792  17.626  0.00  0.00    +0.000 NA
ATOM      8  C   UNL     1       4.202   6.934  16.989  0.00  0.00    +0.000 A 
ATOM      9  N   UNL     1       5.224   6.939  16.038  0.00  0.00    +0.000 N 
ATOM     10  N   UNL     1       3.543   8.066  17.220  0.00  0.00    +0.000 NA
ATOM     11  C   UNL     1       2.560   7.960  18.110  0.00  0.00    +0.000 A 
ATOM     12  N   UNL     1       1.805   9.094  18.418  0.00  0.00    +0.000 N 
ATOM     13  N   UNL     1       2.224   6.831  18.716  0.00  0.00    +0.000 NA
ATOM     14  C   UNL     1       1.337   4.148  19.174  0.00  0.00    +0.000 C 
ATOM     15  C   UNL     1       1.076   3.347  20.466  0.00  0.00    +0.000 C 
ATOM     16  H   UNL     1       5.570   7.857  15.812  0.00  0.00    +0.000 HD
ATOM     17  H   UNL     1       2.011   9.877  17.817  0.00  0.00    +0.000 HD
ENDROOT
BRANCH   9  18
ATOM     18  C   UNL     1       5.655   5.846  15.270  0.00  0.00    +0.000 A 
ATOM     19  C   UNL     1       7.007   5.699  14.908  0.00  0.00    +0.000 A 
ATOM     20  C   UNL     1       7.424   4.686  14.047  0.00  0.00    +0.000 A 
ATOM     21  C   UNL     1       6.482   3.814  13.527  0.00  0.00    +0.000 A 
ATOM     22  F   UNL     1       6.870   2.858  12.673  0.00  0.00    +0.000 F 
ATOM     23  C   UNL     1       5.139   3.928  13.869  0.00  0.00    +0.000 A 
ATOM     24  C   UNL     1       4.726   4.939  14.746  0.00  0.00    +0.000 A 
ENDBRANCH   9  18
BRANCH  12  25
ATOM     25  C   UNL     1       1.188   9.384  19.648  0.00  0.00    +0.000 A 
ATOM     26  C   UNL     1       1.463   8.646  20.813  0.00  0.00    +0.000 A 
ATOM     27  C   UNL     1       0.800   8.913  22.012  0.00  0.00    +0.000 A 
ATOM     28  C   UNL     1      -0.159   9.912  22.048  0.00  0.00    +0.000 A 
ATOM     29  F   UNL     1      -0.816  10.156  23.190  0.00  0.00    +0.000 F 
ATOM     30  C   UNL     1      -0.455  10.656  20.913  0.00  0.00    +0.000 A 
ATOM     31  C   UNL     1       0.226  10.401  19.718  0.00  0.00    +0.000 A 
ENDBRANCH  12  25
TORSDOF 2
ENDMDL
