MODEL 1
REMARK VINA RESULT:      -8.2      0.000      0.000
REMARK  Name = 
REMARK  4 active torsions:
REMARK  status: ('A' for Active; 'I' for Inactive)
REMARK    1  A    between atoms: C_2  and  O_3
REMARK    2  A    between atoms: C_2  and  C_4
REMARK    3  A    between atoms: C_4  and  C_5
REMARK    4  A    between atoms: C_6  and  C_7
REMARK                            x       y       z     vdW  Elec       q    Type
REMARK                         _______ _______ _______ _____ _____    ______ ____
ROOT
ATOM      1  C   UNL     1       2.538   4.532  17.960  0.00  0.00    +0.000 A 
ATOM      2  C   UNL     1       3.274   5.661  18.095  0.00  0.00    +0.000 A 
ATOM      3  C   UNL     1       4.718   5.633  17.731  0.00  0.00    +0.000 A 
ATOM      4  C   UNL     1       5.527   6.778  17.807  0.00  0.00    +0.000 A 
ATOM      5  C   UNL     1       6.871   6.714  17.454  0.00  0.00    +0.000 A 
ATOM      6 CL   UNL     1       7.844   8.137  17.524  0.00  0.00    +0.000 Cl
ATOM      7  C   UNL     1       7.441   5.516  17.034  0.00  0.00    +0.000 A 
ATOM      8  C   UNL     1       6.654   4.366  16.964  0.00  0.00    +0.000 A 
ATOM      9  C   UNL     1       5.299   4.433  17.301  0.00  0.00    +0.000 A 
ATOM     10  N   UNL     1       4.503   3.292  17.182  0.00  0.00    +0.000 N 
ATOM     11  C   UNL     1       3.159   3.286  17.415  0.00  0.00    +0.000 A 
ATOM     12  O   UNL     1       2.460   2.300  17.178  0.00  0.00    +0.000 OA
ATOM     13  H   UNL     1       4.905   2.430  16.836  0.00  0.00    +0.000 HD
ENDROOT
BRANCH   2  14
ATOM     14  C   UNL     1       2.579   6.890  18.545  0.00  0.00    +0.000 A 
ATOM     15  C   UNL     1       2.272   7.096  19.895  0.00  0.00    +0.000 A 
ATOM     16  C   UNL     1       1.609   8.260  20.289  0.00  0.00    +0.000 A 
ATOM     17  C   UNL     1       1.265   9.223  19.339  0.00  0.00    +0.000 A 
ATOM     18  C   UNL     1       1.580   9.027  17.996  0.00  0.00    +0.000 A 
ATOM     19  C   UNL     1       2.236   7.863  17.599  0.00  0.00    +0.000 A 
ENDBRANCH   2  14
BRANCH   1  20
ATOM     20  C   UNL     1       1.087   4.354  18.338  0.00  0.00    +0.000 C 
BRANCH  20  22
ATOM     21  O   UNL     1       1.414   3.872  20.689  0.00  0.00    +0.000 OA
ATOM     22  C   UNL     1       0.942   3.542  19.610  0.00  0.00    +0.000 C 
BRANCH  22  23
ATOM     23  O   UNL     1       0.224   2.406  19.455  0.00  0.00    +0.000 OA
ATOM     24  H   UNL     1      -0.529   2.502  18.827  0.00  0.00    +0.000 HD
ENDBRANCH  22  23
ENDBRANCH  20  22
ENDBRANCH   1  20
TORSDOF 4
ENDMDL
MODEL 2
REMARK VINA RESULT:      -8.2      0.086      1.035
REMARK  Name = 
REMARK  4 active torsions:
REMARK  status: ('A' for Active; 'I' for Inactive)
REMARK    1  A    between atoms: C_2  and  O_3
REMARK    2  A    between atoms: C_2  and  C_4
REMARK    3  A    between atoms: C_4  and  C_5
REMARK    4  A    between atoms: C_6  and  C_7
REMARK                            x       y       z     vdW  Elec       q    Type
REMARK                         _______ _______ _______ _____ _____    ______ ____
ROOT
ATOM      1  C   UNL     1       2.593   4.520  18.021  0.00  0.00    +0.000 A 
ATOM      2  C   UNL     1       3.315   5.661  18.130  0.00  0.00    +0.000 A 
ATOM      3  C   UNL     1       4.764   5.637  17.786  0.00  0.00    +0.000 A 
ATOM      4  C   UNL     1       5.560   6.793  17.838  0.00  0.00    +0.000 A 
ATOM      5  C   UNL     1       6.910   6.732  17.505  0.00  0.00    +0.000 A 
ATOM      6 CL   UNL     1       7.866   8.167  17.543  0.00  0.00    +0.000 Cl
ATOM      7  C   UNL     1       7.498   5.528  17.132  0.00  0.00    +0.000 A 
ATOM      8  C   UNL     1       6.725   4.368  17.087  0.00  0.00    +0.000 A 
ATOM      9  C   UNL     1       5.364   4.430  17.404  0.00  0.00    +0.000 A 
ATOM     10  N   UNL     1       4.582   3.277  17.310  0.00  0.00    +0.000 N 
ATOM     11  C   UNL     1       3.235   3.264  17.524  0.00  0.00    +0.000 A 
ATOM     12  O   UNL     1       2.550   2.263  17.310  0.00  0.00    +0.000 OA
ATOM     13  H   UNL     1       4.998   2.409  16.998  0.00  0.00    +0.000 HD
ENDROOT
BRANCH   2  14
ATOM     14  C   UNL     1       2.601   6.895  18.531  0.00  0.00    +0.000 A 
ATOM     15  C   UNL     1       2.232   7.859  17.585  0.00  0.00    +0.000 A 
ATOM     16  C   UNL     1       1.567   9.016  17.993  0.00  0.00    +0.000 A 
ATOM     17  C   UNL     1       1.259   9.207  19.341  0.00  0.00    +0.000 A 
ATOM     18  C   UNL     1       1.614   8.244  20.284  0.00  0.00    +0.000 A 
ATOM     19  C   UNL     1       2.283   7.091  19.880  0.00  0.00    +0.000 A 
ENDBRANCH   2  14
BRANCH   1  20
ATOM     20  C   UNL     1       1.138   4.338  18.384  0.00  0.00    +0.000 C 
BRANCH  20  22
ATOM     21  O   UNL     1       1.470   3.869  20.738  0.00  0.00    +0.000 OA
ATOM     22  C   UNL     1       0.984   3.540  19.665  0.00  0.00    +0.000 C 
BRANCH  22  23
ATOM     23  O   UNL     1       0.239   2.419  19.524  0.00  0.00    +0.000 OA
ATOM     24  H   UNL     1       0.749   1.652  19.176  0.00  0.00    +0.000 HD
ENDBRANCH  22  23
ENDBRANCH  20  22
ENDBRANCH   1  20
TORSDOF 4
ENDMDL
MODEL 3
REMARK VINA RESULT:      -7.8      2.261      4.967
REMARK  Name = 
REMARK  4 active torsions:
REMARK  status: ('A' for Active; 'I' for Inactive)
REMARK    1  A    between atoms: C_2  and  O_3
REMARK    2  A    between atoms: C_2  and  C_4
REMARK    3  A    between atoms: C_4  and  C_5
REMARK    4  A    between atoms: C_6  and  C_7
REMARK                            x       y       z     vdW  Elec       q    Type
REMARK                         _______ _______ _______ _____ _____    ______ ____
ROOT
ATOM      1  C   UNL     1       3.622   3.804  19.912  0.00  0.00    +0.000 A 
ATOM      2  C   UNL     1       3.727   4.852  19.060  0.00  0.00    +0.000 A 
ATOM      3  C   UNL     1       2.914   6.074  19.311  0.00  0.00    +0.000 A 
ATOM      4  C   UNL     1       3.007   7.210  18.491  0.00  0.00    +0.000 A 
ATOM      5  C   UNL     1       2.235   8.336  18.760  0.00  0.00    +0.000 A 
ATOM      6 CL   UNL     1       2.384   9.734  17.761  0.00  0.00    +0.000 Cl
ATOM      7  C   UNL     1       1.348   8.353  19.832  0.00  0.00    +0.000 A 
ATOM      8  C   UNL     1       1.236   7.228  20.650  0.00  0.00    +0.000 A 
ATOM      9  C   UNL     1       2.024   6.103  20.392  0.00  0.00    +0.000 A 
ATOM     10  N   UNL     1       1.945   4.998  21.242  0.00  0.00    +0.000 N 
ATOM     11  C   UNL     1       2.732   3.891  21.111  0.00  0.00    +0.000 A 
ATOM     12  O   UNL     1       2.732   2.987  21.947  0.00  0.00    +0.000 OA
ATOM     13  H   UNL     1       1.333   5.023  22.047  0.00  0.00    +0.000 HD
ENDROOT
BRANCH   2  14
ATOM     14  C   UNL     1       4.701   4.744  17.949  0.00  0.00    +0.000 A 
ATOM     15  C   UNL     1       4.298   4.345  16.669  0.00  0.00    +0.000 A 
ATOM     16  C   UNL     1       5.240   4.244  15.643  0.00  0.00    +0.000 A 
ATOM     17  C   UNL     1       6.578   4.553  15.889  0.00  0.00    +0.000 A 
ATOM     18  C   UNL     1       6.980   4.963  17.159  0.00  0.00    +0.000 A 
ATOM     19  C   UNL     1       6.044   5.058  18.187  0.00  0.00    +0.000 A 
ENDBRANCH   2  14
BRANCH   1  20
ATOM     20  C   UNL     1       4.314   2.467  19.784  0.00  0.00    +0.000 C 
BRANCH  20  22
ATOM     21  O   UNL     1       2.425   1.716  18.465  0.00  0.00    +0.000 OA
ATOM     22  C   UNL     1       3.590   1.562  18.806  0.00  0.00    +0.000 C 
BRANCH  22  23
ATOM     23  O   UNL     1       4.355   0.558  18.321  0.00  0.00    +0.000 OA
ATOM     24  H   UNL     1       5.237   0.495  18.753  0.00  0.00    +0.000 HD
ENDBRANCH  22  23
ENDBRANCH  20  22
ENDBRANCH   1  20
TORSDOF 4
ENDMDL
MODEL 4
REMARK VINA RESULT:      -7.7      2.271      4.915
REMARK  Name = 
REMARK  4 active torsions:
REMARK  status: ('A' for Active; 'I' for Inactive)
REMARK    1  A    between atoms: C_2  and  O_3
REMARK    2  A    between atoms: C_2  and  C_4
REMARK    3  A    between atoms: C_4  and  C_5
REMARK    4  A    between atoms: C_6  and  C_7
REMARK                            x       y       z     vdW  Elec       q    Type
REMARK                         _______ _______ _______ _____ _____    ______ ____
ROOT
ATOM      1  C   UNL     1       3.625   3.796  19.928  0.00  0.00    +0.000 A 
ATOM      2  C   UNL     1       3.735   4.850  19.084  0.00  0.00    +0.000 A 
ATOM      3  C   UNL     1       2.912   6.066  19.331  0.00  0.00    +0.000 A 
ATOM      4  C   UNL     1       3.008   7.207  18.519  0.00  0.00    +0.000 A 
ATOM      5  C   UNL     1       2.225   8.327  18.785  0.00  0.00    +0.000 A 
ATOM      6 CL   UNL     1       2.378   9.732  17.796  0.00  0.00    +0.000 Cl
ATOM      7  C   UNL     1       1.325   8.331  19.846  0.00  0.00    +0.000 A 
ATOM      8  C   UNL     1       1.209   7.201  20.656  0.00  0.00    +0.000 A 
ATOM      9  C   UNL     1       2.007   6.082  20.401  0.00  0.00    +0.000 A 
ATOM     10  N   UNL     1       1.924   4.971  21.243  0.00  0.00    +0.000 N 
ATOM     11  C   UNL     1       2.719   3.870  21.115  0.00  0.00    +0.000 A 
ATOM     12  O   UNL     1       2.714   2.962  21.946  0.00  0.00    +0.000 OA
ATOM     13  H   UNL     1       1.302   4.988  22.041  0.00  0.00    +0.000 HD
ENDROOT
BRANCH   2  14
ATOM     14  C   UNL     1       4.723   4.754  17.984  0.00  0.00    +0.000 A 
ATOM     15  C   UNL     1       6.071   5.069  18.192  0.00  0.00    +0.000 A 
ATOM     16  C   UNL     1       6.979   4.977  17.135  0.00  0.00    +0.000 A 
ATOM     17  C   UNL     1       6.544   4.561  15.875  0.00  0.00    +0.000 A 
ATOM     18  C   UNL     1       5.206   4.235  15.668  0.00  0.00    +0.000 A 
ATOM     19  C   UNL     1       4.297   4.331  16.719  0.00  0.00    +0.000 A 
ENDBRANCH   2  14
BRANCH   1  20
ATOM     20  C   UNL     1       4.326   2.464  19.801  0.00  0.00    +0.000 C 
BRANCH  20  22
ATOM     21  O   UNL     1       2.436   1.702  18.492  0.00  0.00    +0.000 OA
ATOM     22  C   UNL     1       3.599   1.547  18.836  0.00  0.00    +0.000 C 
BRANCH  22  23
ATOM     23  O   UNL     1       4.360   0.530  18.370  0.00  0.00    +0.000 OA
ATOM     24  H   UNL     1       4.834   0.747  17.535  0.00  0.00    +0.000 HD
ENDBRANCH  22  23
ENDBRANCH  20  22
ENDBRANCH   1  20
TORSDOF 4
ENDMDL
MODEL 5
REMARK VINA RESULT:      -7.4      2.972      5.107
REMARK  Name = 
REMARK  4 active torsions:
REMARK  status: ('A' for Active; 'I' for Inactive)
REMARK    1  A    between atoms: C_2  and  O_3
REMARK    2  A    between atoms: C_2  and  C_4
REMARK    3  A    between atoms: C_4  and  C_5
REMARK    4  A    between atoms: C_6  and  C_7
REMARK                            x       y       z     vdW  Elec       q    Type
REMARK                         _______ _______ _______ _____ _____    ______ ____
ROOT
ATOM      1  C   UNL     1       3.759   5.586  17.809  0.00  0.00    +0.000 A 
ATOM      2  C   UNL     1       2.816   5.914  18.724  0.00  0.00    +0.000 A 
ATOM      3  C   UNL     1       2.324   7.318  18.787  0.00  0.00    +0.000 A 
ATOM      4  C   UNL     1       1.318   7.715  19.683  0.00  0.00    +0.000 A 
ATOM      5  C   UNL     1       0.881   9.036  19.709  0.00  0.00    +0.000 A 
ATOM      6 CL   UNL     1      -0.377   9.500  20.794  0.00  0.00    +0.000 Cl
ATOM      7  C   UNL     1       1.440   9.988  18.862  0.00  0.00    +0.000 A 
ATOM      8  C   UNL     1       2.448   9.613  17.974  0.00  0.00    +0.000 A 
ATOM      9  C   UNL     1       2.876   8.283  17.934  0.00  0.00    +0.000 A 
ATOM     10  N   UNL     1       3.850   7.901  17.009  0.00  0.00    +0.000 N 
ATOM     11  C   UNL     1       4.269   6.612  16.848  0.00  0.00    +0.000 A 
ATOM     12  O   UNL     1       5.033   6.283  15.941  0.00  0.00    +0.000 OA
ATOM     13  H   UNL     1       4.227   8.581  16.363  0.00  0.00    +0.000 HD
ENDROOT
BRANCH   2  14
ATOM     14  C   UNL     1       2.277   4.831  19.580  0.00  0.00    +0.000 A 
ATOM     15  C   UNL     1       2.681   4.692  20.913  0.00  0.00    +0.000 A 
ATOM     16  C   UNL     1       2.163   3.657  21.694  0.00  0.00    +0.000 A 
ATOM     17  C   UNL     1       1.234   2.770  21.150  0.00  0.00    +0.000 A 
ATOM     18  C   UNL     1       0.819   2.913  19.827  0.00  0.00    +0.000 A 
ATOM     19  C   UNL     1       1.340   3.941  19.043  0.00  0.00    +0.000 A 
ENDBRANCH   2  14
BRANCH   1  20
ATOM     20  C   UNL     1       4.420   4.238  17.642  0.00  0.00    +0.000 C 
BRANCH  20  22
ATOM     21  O   UNL     1       6.385   4.749  18.964  0.00  0.00    +0.000 OA
ATOM     22  C   UNL     1       5.455   3.992  18.723  0.00  0.00    +0.000 C 
BRANCH  22  23
ATOM     23  O   UNL     1       5.255   2.851  19.422  0.00  0.00    +0.000 OA
ATOM     24  H   UNL     1       4.346   2.487  19.324  0.00  0.00    +0.000 HD
ENDBRANCH  22  23
ENDBRANCH  20  22
ENDBRANCH   1  20
TORSDOF 4
ENDMDL
MODEL 6
REMARK VINA RESULT:      -7.4      2.968      5.171
REMARK  Name = 
REMARK  4 active torsions:
REMARK  status: ('A' for Active; 'I' for Inactive)
REMARK    1  A    between atoms: C_2  and  O_3
REMARK    2  A    between atoms: C_2  and  C_4
REMARK    3  A    between atoms: C_4  and  C_5
REMARK    4  A    between atoms: C_6  and  C_7
REMARK                            x       y       z     vdW  Elec       q    Type
REMARK                         _______ _______ _______ _____ _____    ______ ____
ROOT
ATOM      1  C   UNL     1       3.748   5.581  17.794  0.00  0.00    +0.000 A 
ATOM      2  C   UNL     1       2.802   5.904  18.708  0.00  0.00    +0.000 A 
ATOM      3  C   UNL     1       2.317   7.310  18.784  0.00  0.00    +0.000 A 
ATOM      4  C   UNL     1       1.308   7.702  19.679  0.00  0.00    +0.000 A 
ATOM      5  C   UNL     1       0.878   9.025  19.718  0.00  0.00    +0.000 A 
ATOM      6 CL   UNL     1      -0.383   9.483  20.802  0.00  0.00    +0.000 Cl
ATOM      7  C   UNL     1       1.446   9.984  18.885  0.00  0.00    +0.000 A 
ATOM      8  C   UNL     1       2.457   9.613  17.998  0.00  0.00    +0.000 A 
ATOM      9  C   UNL     1       2.878   8.281  17.945  0.00  0.00    +0.000 A 
ATOM     10  N   UNL     1       3.855   7.904  17.021  0.00  0.00    +0.000 N 
ATOM     11  C   UNL     1       4.268   6.616  16.848  0.00  0.00    +0.000 A 
ATOM     12  O   UNL     1       5.036   6.292  15.941  0.00  0.00    +0.000 OA
ATOM     13  H   UNL     1       4.240   8.590  16.385  0.00  0.00    +0.000 HD
ENDROOT
BRANCH   2  14
ATOM     14  C   UNL     1       2.253   4.815  19.549  0.00  0.00    +0.000 A 
ATOM     15  C   UNL     1       1.320   3.905  19.039  0.00  0.00    +0.000 A 
ATOM     16  C   UNL     1       0.813   2.893  19.857  0.00  0.00    +0.000 A 
ATOM     17  C   UNL     1       1.247   2.782  21.179  0.00  0.00    +0.000 A 
ATOM     18  C   UNL     1       2.185   3.678  21.687  0.00  0.00    +0.000 A 
ATOM     19  C   UNL     1       2.687   4.692  20.875  0.00  0.00    +0.000 A 
ENDBRANCH   2  14
BRANCH   1  20
ATOM     20  C   UNL     1       4.403   4.232  17.616  0.00  0.00    +0.000 C 
BRANCH  20  22
ATOM     21  O   UNL     1       6.365   4.722  18.949  0.00  0.00    +0.000 OA
ATOM     22  C   UNL     1       5.434   3.970  18.697  0.00  0.00    +0.000 C 
BRANCH  22  23
ATOM     23  O   UNL     1       5.230   2.821  19.381  0.00  0.00    +0.000 OA
ATOM     24  H   UNL     1       5.288   2.015  18.818  0.00  0.00    +0.000 HD
ENDBRANCH  22  23
ENDBRANCH  20  22
ENDBRANCH   1  20
TORSDOF 4
ENDMDL
MODEL 7
REMARK VINA RESULT:      -7.2      1.150      1.628
REMARK  Name = 
REMARK  4 active torsions:
REMARK  status: ('A' for Active; 'I' for Inactive)
REMARK    1  A    between atoms: C_2  and  O_3
REMARK    2  A    between atoms: C_2  and  C_4
REMARK    3  A    between atoms: C_4  and  C_5
REMARK    4  A    between atoms: C_6  and  C_7
REMARK                            x       y       z     vdW  Elec       q    Type
REMARK                         _______ _______ _______ _____ _____    ______ ____
ROOT
ATOM      1  C   UNL     1       3.187   4.403  19.081  0.00  0.00    +0.000 A 
ATOM      2  C   UNL     1       3.735   5.619  18.847  0.00  0.00    +0.000 A 
ATOM      3  C   UNL     1       5.176   5.707  18.480  0.00  0.00    +0.000 A 
ATOM      4  C   UNL     1       5.794   6.933  18.184  0.00  0.00    +0.000 A 
ATOM      5  C   UNL     1       7.142   6.974  17.840  0.00  0.00    +0.000 A 
ATOM      6 CL   UNL     1       7.880   8.484  17.450  0.00  0.00    +0.000 Cl
ATOM      7  C   UNL     1       7.903   5.810  17.798  0.00  0.00    +0.000 A 
ATOM      8  C   UNL     1       7.306   4.586  18.099  0.00  0.00    +0.000 A 
ATOM      9  C   UNL     1       5.948   4.540  18.428  0.00  0.00    +0.000 A 
ATOM     10  N   UNL     1       5.343   3.307  18.681  0.00  0.00    +0.000 N 
ATOM     11  C   UNL     1       4.009   3.163  18.931  0.00  0.00    +0.000 A 
ATOM     12  O   UNL     1       3.479   2.055  19.024  0.00  0.00    +0.000 OA
ATOM     13  H   UNL     1       5.883   2.455  18.608  0.00  0.00    +0.000 HD
ENDROOT
BRANCH   2  14
ATOM     14  C   UNL     1       2.845   6.802  18.912  0.00  0.00    +0.000 A 
ATOM     15  C   UNL     1       2.525   7.532  17.762  0.00  0.00    +0.000 A 
ATOM     16  C   UNL     1       1.690   8.648  17.855  0.00  0.00    +0.000 A 
ATOM     17  C   UNL     1       1.165   9.027  19.092  0.00  0.00    +0.000 A 
ATOM     18  C   UNL     1       1.472   8.295  20.237  0.00  0.00    +0.000 A 
ATOM     19  C   UNL     1       2.310   7.185  20.148  0.00  0.00    +0.000 A 
ENDBRANCH   2  14
BRANCH   1  20
ATOM     20  C   UNL     1       1.770   4.124  19.524  0.00  0.00    +0.000 C 
BRANCH  20  22
ATOM     21  O   UNL     1       0.852   4.009  17.285  0.00  0.00    +0.000 OA
ATOM     22  C   UNL     1       0.949   3.519  18.402  0.00  0.00    +0.000 C 
BRANCH  22  23
ATOM     23  O   UNL     1       0.329   2.365  18.739  0.00  0.00    +0.000 OA
ATOM     24  H   UNL     1       0.359   2.173  19.704  0.00  0.00    +0.000 HD
ENDBRANCH  22  23
ENDBRANCH  20  22
ENDBRANCH   1  20
TORSDOF 4
ENDMDL
MODEL 8
REMARK VINA RESULT:      -7.2      1.146      1.265
REMARK  Name = 
REMARK  4 active torsions:
REMARK  status: ('A' for Active; 'I' for Inactive)
REMARK    1  A    between atoms: C_2  and  O_3
REMARK    2  A    between atoms: C_2  and  C_4
REMARK    3  A    between atoms: C_4  and  C_5
REMARK    4  A    between atoms: C_6  and  C_7
REMARK                            x       y       z     vdW  Elec       q    Type
REMARK                         _______ _______ _______ _____ _____    ______ ____
ROOT
ATOM      1  C   UNL     1       3.186   4.400  19.079  0.00  0.00    +0.000 A 
ATOM      2  C   UNL     1       3.734   5.618  18.854  0.00  0.00    +0.000 A 
ATOM      3  C   UNL     1       5.173   5.708  18.481  0.00  0.00    +0.000 A 
ATOM      4  C   UNL     1       5.791   6.936  18.195  0.00  0.00    +0.000 A 
ATOM      5  C   UNL     1       7.138   6.980  17.845  0.00  0.00    +0.000 A 
ATOM      6 CL   UNL     1       7.875   8.492  17.466  0.00  0.00    +0.000 Cl
ATOM      7  C   UNL     1       7.897   5.815  17.787  0.00  0.00    +0.000 A 
ATOM      8  C   UNL     1       7.301   4.589  18.080  0.00  0.00    +0.000 A 
ATOM      9  C   UNL     1       5.944   4.541  18.414  0.00  0.00    +0.000 A 
ATOM     10  N   UNL     1       5.338   3.307  18.658  0.00  0.00    +0.000 N 
ATOM     11  C   UNL     1       4.006   3.161  18.913  0.00  0.00    +0.000 A 
ATOM     12  O   UNL     1       3.475   2.053  18.998  0.00  0.00    +0.000 OA
ATOM     13  H   UNL     1       5.877   2.454  18.575  0.00  0.00    +0.000 HD
ENDROOT
BRANCH   2  14
ATOM     14  C   UNL     1       2.845   6.801  18.935  0.00  0.00    +0.000 A 
ATOM     15  C   UNL     1       2.288   7.208  20.153  0.00  0.00    +0.000 A 
ATOM     16  C   UNL     1       1.448   8.322  20.197  0.00  0.00    +0.000 A 
ATOM     17  C   UNL     1       1.174   9.037  19.030  0.00  0.00    +0.000 A 
ATOM     18  C   UNL     1       1.737   8.643  17.819  0.00  0.00    +0.000 A 
ATOM     19  C   UNL     1       2.571   7.528  17.770  0.00  0.00    +0.000 A 
ENDBRANCH   2  14
BRANCH   1  20
ATOM     20  C   UNL     1       1.771   4.119  19.526  0.00  0.00    +0.000 C 
BRANCH  20  22
ATOM     21  O   UNL     1       0.847   4.008  17.289  0.00  0.00    +0.000 OA
ATOM     22  C   UNL     1       0.946   3.516  18.405  0.00  0.00    +0.000 C 
BRANCH  22  23
ATOM     23  O   UNL     1       0.327   2.362  18.741  0.00  0.00    +0.000 OA
ATOM     24  H   UNL     1       0.944   1.668  19.069  0.00  0.00    +0.000 HD
ENDBRANCH  22  23
ENDBRANCH  20  22
ENDBRANCH   1  20
TORSDOF 4
ENDMDL
MODEL 9
REMARK VINA RESULT:      -7.0      3.672      5.287
REMARK  Name = 
REMARK  4 active torsions:
REMARK  status: ('A' for Active; 'I' for Inactive)
REMARK    1  A    between atoms: C_2  and  O_3
REMARK    2  A    between atoms: C_2  and  C_4
REMARK    3  A    between atoms: C_4  and  C_5
REMARK    4  A    between atoms: C_6  and  C_7
REMARK                            x       y       z     vdW  Elec       q    Type
REMARK                         _______ _______ _______ _____ _____    ______ ____
ROOT
ATOM      1  C   UNL     1       5.999   5.577  17.249  0.00  0.00    +0.000 A 
ATOM      2  C   UNL     1       5.360   4.730  16.407  0.00  0.00    +0.000 A 
ATOM      3  C   UNL     1       5.895   4.535  15.031  0.00  0.00    +0.000 A 
ATOM      4  C   UNL     1       5.305   3.641  14.123  0.00  0.00    +0.000 A 
ATOM      5  C   UNL     1       5.837   3.482  12.847  0.00  0.00    +0.000 A 
ATOM      6 CL   UNL     1       5.118   2.357  11.755  0.00  0.00    +0.000 Cl
ATOM      7  C   UNL     1       6.949   4.213  12.442  0.00  0.00    +0.000 A 
ATOM      8  C   UNL     1       7.540   5.114  13.328  0.00  0.00    +0.000 A 
ATOM      9  C   UNL     1       7.018   5.262  14.616  0.00  0.00    +0.000 A 
ATOM     10  N   UNL     1       7.643   6.128  15.516  0.00  0.00    +0.000 N 
ATOM     11  C   UNL     1       7.249   6.275  16.814  0.00  0.00    +0.000 A 
ATOM     12  O   UNL     1       7.894   6.946  17.620  0.00  0.00    +0.000 OA
ATOM     13  H   UNL     1       8.477   6.629  15.239  0.00  0.00    +0.000 HD
ENDROOT
BRANCH   2  14
ATOM     14  C   UNL     1       4.186   3.992  16.928  0.00  0.00    +0.000 A 
ATOM     15  C   UNL     1       4.272   2.635  17.262  0.00  0.00    +0.000 A 
ATOM     16  C   UNL     1       3.147   1.963  17.743  0.00  0.00    +0.000 A 
ATOM     17  C   UNL     1       1.941   2.647  17.904  0.00  0.00    +0.000 A 
ATOM     18  C   UNL     1       1.855   4.001  17.585  0.00  0.00    +0.000 A 
ATOM     19  C   UNL     1       2.974   4.672  17.098  0.00  0.00    +0.000 A 
ENDBRANCH   2  14
BRANCH   1  20
ATOM     20  C   UNL     1       5.570   5.948  18.648  0.00  0.00    +0.000 C 
BRANCH  20  22
ATOM     21  O   UNL     1       5.646   3.989  20.071  0.00  0.00    +0.000 OA
ATOM     22  C   UNL     1       6.180   5.017  19.679  0.00  0.00    +0.000 C 
BRANCH  22  23
ATOM     23  O   UNL     1       7.391   5.417  20.129  0.00  0.00    +0.000 OA
ATOM     24  H   UNL     1       8.136   4.875  19.781  0.00  0.00    +0.000 HD
ENDBRANCH  22  23
ENDBRANCH  20  22
ENDBRANCH   1  20
TORSDOF 4
ENDMDL
