MODEL 1
REMARK VINA RESULT:      -7.0      0.000      0.000
REMARK  Name = 
REMARK  7 active torsions:
REMARK  status: ('A' for Active; 'I' for Inactive)
REMARK    1  A    between atoms: C_1  and  C_2
REMARK    2  A    between atoms: C_2  and  O_3
REMARK    3  A    between atoms: O_3  and  C_4
REMARK    4  A    between atoms: C_7  and  N_8
REMARK    5  A    between atoms: C_12  and  N_13
REMARK    6  A    between atoms: C_15  and  C_16
REMARK    7  A    between atoms: C_18  and  C_19
REMARK                            x       y       z     vdW  Elec       q    Type
REMARK                         _______ _______ _______ _____ _____    ______ ____
ROOT
ATOM      1  N   UNL     1       6.202   5.841  17.175  0.00  0.00    +0.000 N 
ATOM      2  C   UNL     1       6.605   4.610  16.709  0.00  0.00    +0.000 C 
ATOM      3  O   UNL     1       7.726   4.178  16.486  0.00  0.00    +0.000 OA
ATOM      4  C   UNL     1       5.379   3.813  16.363  0.00  0.00    +0.000 C 
ATOM      5  C   UNL     1       4.272   4.492  17.152  0.00  0.00    +0.000 C 
ATOM      6  C   UNL     1       4.821   5.913  17.156  0.00  0.00    +0.000 C 
ATOM      7  O   UNL     1       4.092   6.899  17.131  0.00  0.00    +0.000 OA
ENDROOT
BRANCH   5   8
ATOM      8  N   UNL     1       4.100   4.052  18.562  0.00  0.00    +0.000 NA
ATOM      9  C   UNL     1       3.669   5.144  19.477  0.00  0.00    +0.000 C 
ATOM     10  C   UNL     1       2.141   5.443  19.533  0.00  0.00    +0.000 C 
ATOM     11  C   UNL     1       1.809   6.274  20.772  0.00  0.00    +0.000 C 
ATOM     12  O   UNL     1       1.341   4.247  19.599  0.00  0.00    +0.000 OA
ATOM     13  C   UNL     1       1.704   3.336  18.553  0.00  0.00    +0.000 C 
ATOM     14  C   UNL     1       0.795   2.118  18.603  0.00  0.00    +0.000 C 
ATOM     15  C   UNL     1       3.171   2.924  18.750  0.00  0.00    +0.000 C 
ENDBRANCH   5   8
BRANCH   1  19
ATOM     16  C   UNL     1       8.636   9.053  18.586  0.00  0.00    +0.000 A 
ATOM     17  C   UNL     1       8.723   7.794  19.171  0.00  0.00    +0.000 A 
ATOM     18  C   UNL     1       7.959   6.726  18.683  0.00  0.00    +0.000 A 
ATOM     19  C   UNL     1       7.067   6.891  17.610  0.00  0.00    +0.000 A 
ATOM     20  C   UNL     1       7.001   8.173  17.037  0.00  0.00    +0.000 A 
ATOM     21  C   UNL     1       7.763   9.242  17.524  0.00  0.00    +0.000 A 
BRANCH  16  22
ATOM     22  O   UNL     1       9.428  10.017  19.138  0.00  0.00    +0.000 OA
BRANCH  22  24
ATOM     23  C   UNL     1      10.729  11.603  17.934  0.00  0.00    +0.000 C 
ATOM     24  C   UNL     1       9.362  11.299  18.514  0.00  0.00    +0.000 C 
ENDBRANCH  22  24
ENDBRANCH  16  22
ENDBRANCH   1  19
TORSDOF 4
ENDMDL
MODEL 2
REMARK VINA RESULT:      -6.6      6.820      9.485
REMARK  Name = 
REMARK  7 active torsions:
REMARK  status: ('A' for Active; 'I' for Inactive)
REMARK    1  A    between atoms: C_1  and  C_2
REMARK    2  A    between atoms: C_2  and  O_3
REMARK    3  A    between atoms: O_3  and  C_4
REMARK    4  A    between atoms: C_7  and  N_8
REMARK    5  A    between atoms: C_12  and  N_13
REMARK    6  A    between atoms: C_15  and  C_16
REMARK    7  A    between atoms: C_18  and  C_19
REMARK                            x       y       z     vdW  Elec       q    Type
REMARK                         _______ _______ _______ _____ _____    ______ ____
ROOT
ATOM      1  N   UNL     1       0.292  10.887  19.234  0.00  0.00    +0.000 N 
ATOM      2  C   UNL     1      -0.853  11.088  18.496  0.00  0.00    +0.000 C 
ATOM      3  O   UNL     1      -1.393  10.373  17.666  0.00  0.00    +0.000 OA
ATOM      4  C   UNL     1      -1.352  12.479  18.771  0.00  0.00    +0.000 C 
ATOM      5  C   UNL     1      -0.701  12.841  20.096  0.00  0.00    +0.000 C 
ATOM      6  C   UNL     1       0.581  12.028  19.960  0.00  0.00    +0.000 C 
ATOM      7  O   UNL     1       1.648  12.402  20.433  0.00  0.00    +0.000 OA
ENDROOT
BRANCH   5   8
ATOM      8  N   UNL     1      -1.411  12.395  21.324  0.00  0.00    +0.000 NA
ATOM      9  C   UNL     1      -0.938  13.072  22.563  0.00  0.00    +0.000 C 
ATOM     10  C   UNL     1      -1.563  14.464  22.877  0.00  0.00    +0.000 C 
ATOM     11  C   UNL     1      -1.305  14.843  24.335  0.00  0.00    +0.000 C 
ATOM     12  O   UNL     1      -2.989  14.492  22.679  0.00  0.00    +0.000 OA
ATOM     13  C   UNL     1      -3.330  13.998  21.377  0.00  0.00    +0.000 C 
ATOM     14  C   UNL     1      -4.833  14.108  21.170  0.00  0.00    +0.000 C 
ATOM     15  C   UNL     1      -2.878  12.533  21.277  0.00  0.00    +0.000 C 
ENDBRANCH   5   8
BRANCH   1  19
ATOM     16  C   UNL     1       2.456   7.206  19.240  0.00  0.00    +0.000 A 
ATOM     17  C   UNL     1       2.483   8.037  18.125  0.00  0.00    +0.000 A 
ATOM     18  C   UNL     1       1.811   9.266  18.135  0.00  0.00    +0.000 A 
ATOM     19  C   UNL     1       1.072   9.691  19.252  0.00  0.00    +0.000 A 
ATOM     20  C   UNL     1       1.063   8.832  20.364  0.00  0.00    +0.000 A 
ATOM     21  C   UNL     1       1.733   7.602  20.357  0.00  0.00    +0.000 A 
BRANCH  16  22
ATOM     22  O   UNL     1       3.148   6.036  19.124  0.00  0.00    +0.000 OA
BRANCH  22  24
ATOM     23  C   UNL     1       1.762   4.462  18.001  0.00  0.00    +0.000 C 
ATOM     24  C   UNL     1       2.987   5.346  17.884  0.00  0.00    +0.000 C 
ENDBRANCH  22  24
ENDBRANCH  16  22
ENDBRANCH   1  19
TORSDOF 4
ENDMDL
MODEL 3
REMARK VINA RESULT:      -6.6      2.530      6.586
REMARK  Name = 
REMARK  7 active torsions:
REMARK  status: ('A' for Active; 'I' for Inactive)
REMARK    1  A    between atoms: C_1  and  C_2
REMARK    2  A    between atoms: C_2  and  O_3
REMARK    3  A    between atoms: O_3  and  C_4
REMARK    4  A    between atoms: C_7  and  N_8
REMARK    5  A    between atoms: C_12  and  N_13
REMARK    6  A    between atoms: C_15  and  C_16
REMARK    7  A    between atoms: C_18  and  C_19
REMARK                            x       y       z     vdW  Elec       q    Type
REMARK                         _______ _______ _______ _____ _____    ______ ____
ROOT
ATOM      1  N   UNL     1       2.774   5.507  18.632  0.00  0.00    +0.000 N 
ATOM      2  C   UNL     1       2.193   4.702  17.677  0.00  0.00    +0.000 C 
ATOM      3  O   UNL     1       1.016   4.522  17.405  0.00  0.00    +0.000 OA
ATOM      4  C   UNL     1       3.278   3.901  17.014  0.00  0.00    +0.000 C 
ATOM      5  C   UNL     1       4.543   4.693  17.308  0.00  0.00    +0.000 C 
ATOM      6  C   UNL     1       4.139   5.294  18.649  0.00  0.00    +0.000 C 
ATOM      7  O   UNL     1       4.951   5.507  19.543  0.00  0.00    +0.000 OA
ENDROOT
BRANCH   5   8
ATOM      8  N   UNL     1       4.858   5.804  16.372  0.00  0.00    +0.000 NA
ATOM      9  C   UNL     1       5.687   6.879  16.983  0.00  0.00    +0.000 C 
ATOM     10  C   UNL     1       7.227   6.645  17.001  0.00  0.00    +0.000 C 
ATOM     11  C   UNL     1       7.959   7.959  17.272  0.00  0.00    +0.000 C 
ATOM     12  O   UNL     1       7.727   6.131  15.752  0.00  0.00    +0.000 OA
ATOM     13  C   UNL     1       6.982   4.977  15.343  0.00  0.00    +0.000 C 
ATOM     14  C   UNL     1       7.578   4.415  14.062  0.00  0.00    +0.000 C 
ATOM     15  C   UNL     1       5.520   5.392  15.121  0.00  0.00    +0.000 C 
ENDBRANCH   5   8
BRANCH   1  19
ATOM     16  C   UNL     1       0.867   8.248  21.293  0.00  0.00    +0.000 A 
ATOM     17  C   UNL     1       1.460   8.703  20.121  0.00  0.00    +0.000 A 
ATOM     18  C   UNL     1       2.048   7.803  19.223  0.00  0.00    +0.000 A 
ATOM     19  C   UNL     1       2.081   6.422  19.483  0.00  0.00    +0.000 A 
ATOM     20  C   UNL     1       1.472   5.991  20.674  0.00  0.00    +0.000 A 
ATOM     21  C   UNL     1       0.884   6.889  21.573  0.00  0.00    +0.000 A 
BRANCH  16  22
ATOM     22  O   UNL     1       0.320   9.211  22.091  0.00  0.00    +0.000 OA
BRANCH  22  24
ATOM     23  C   UNL     1      -0.651  11.364  22.375  0.00  0.00    +0.000 C 
ATOM     24  C   UNL     1       0.302  10.529  21.543  0.00  0.00    +0.000 C 
ENDBRANCH  22  24
ENDBRANCH  16  22
ENDBRANCH   1  19
TORSDOF 4
ENDMDL
MODEL 4
REMARK VINA RESULT:      -6.5      7.001      9.755
REMARK  Name = 
REMARK  7 active torsions:
REMARK  status: ('A' for Active; 'I' for Inactive)
REMARK    1  A    between atoms: C_1  and  C_2
REMARK    2  A    between atoms: C_2  and  O_3
REMARK    3  A    between atoms: O_3  and  C_4
REMARK    4  A    between atoms: C_7  and  N_8
REMARK    5  A    between atoms: C_12  and  N_13
REMARK    6  A    between atoms: C_15  and  C_16
REMARK    7  A    between atoms: C_18  and  C_19
REMARK                            x       y       z     vdW  Elec       q    Type
REMARK                         _______ _______ _______ _____ _____    ______ ____
ROOT
ATOM      1  N   UNL     1       0.076  11.022  19.675  0.00  0.00    +0.000 N 
ATOM      2  C   UNL     1      -1.054  11.360  18.964  0.00  0.00    +0.000 C 
ATOM      3  O   UNL     1      -1.657  10.743  18.099  0.00  0.00    +0.000 OA
ATOM      4  C   UNL     1      -1.435  12.767  19.327  0.00  0.00    +0.000 C 
ATOM      5  C   UNL     1      -0.747  12.994  20.664  0.00  0.00    +0.000 C 
ATOM      6  C   UNL     1       0.463  12.089  20.463  0.00  0.00    +0.000 C 
ATOM      7  O   UNL     1       1.561  12.345  20.945  0.00  0.00    +0.000 OA
ENDROOT
BRANCH   5   8
ATOM      8  N   UNL     1      -1.482  12.535  21.871  0.00  0.00    +0.000 NA
ATOM      9  C   UNL     1      -1.065  13.229  23.121  0.00  0.00    +0.000 C 
ATOM     10  C   UNL     1      -1.736  14.605  23.410  0.00  0.00    +0.000 C 
ATOM     11  C   UNL     1      -1.532  14.996  24.873  0.00  0.00    +0.000 C 
ATOM     12  O   UNL     1      -3.155  14.595  23.167  0.00  0.00    +0.000 OA
ATOM     13  C   UNL     1      -3.443  14.087  21.859  0.00  0.00    +0.000 C 
ATOM     14  C   UNL     1      -4.941  14.157  21.605  0.00  0.00    +0.000 C 
ATOM     15  C   UNL     1      -2.950  12.634  21.779  0.00  0.00    +0.000 C 
ENDBRANCH   5   8
BRANCH   1  19
ATOM     16  C   UNL     1       2.277   7.366  19.528  0.00  0.00    +0.000 A 
ATOM     17  C   UNL     1       1.580   7.722  20.677  0.00  0.00    +0.000 A 
ATOM     18  C   UNL     1       0.821   8.898  20.715  0.00  0.00    +0.000 A 
ATOM     19  C   UNL     1       0.754   9.766  19.612  0.00  0.00    +0.000 A 
ATOM     20  C   UNL     1       1.467   9.380  18.464  0.00  0.00    +0.000 A 
ATOM     21  C   UNL     1       2.227   8.205  18.423  0.00  0.00    +0.000 A 
BRANCH  16  22
ATOM     22  O   UNL     1       2.979   6.198  19.599  0.00  0.00    +0.000 OA
BRANCH  22  24
ATOM     23  C   UNL     1       1.916   4.549  18.253  0.00  0.00    +0.000 C 
ATOM     24  C   UNL     1       2.192   5.009  19.671  0.00  0.00    +0.000 C 
ENDBRANCH  22  24
ENDBRANCH  16  22
ENDBRANCH   1  19
TORSDOF 4
ENDMDL
MODEL 5
REMARK VINA RESULT:      -6.5      2.937      4.718
REMARK  Name = 
REMARK  7 active torsions:
REMARK  status: ('A' for Active; 'I' for Inactive)
REMARK    1  A    between atoms: C_1  and  C_2
REMARK    2  A    between atoms: C_2  and  O_3
REMARK    3  A    between atoms: O_3  and  C_4
REMARK    4  A    between atoms: C_7  and  N_8
REMARK    5  A    between atoms: C_12  and  N_13
REMARK    6  A    between atoms: C_15  and  C_16
REMARK    7  A    between atoms: C_18  and  C_19
REMARK                            x       y       z     vdW  Elec       q    Type
REMARK                         _______ _______ _______ _____ _____    ______ ____
ROOT
ATOM      1  N   UNL     1       3.920   6.484  18.211  0.00  0.00    +0.000 N 
ATOM      2  C   UNL     1       2.946   7.457  18.161  0.00  0.00    +0.000 C 
ATOM      3  O   UNL     1       2.744   8.330  17.331  0.00  0.00    +0.000 OA
ATOM      4  C   UNL     1       2.145   7.387  19.431  0.00  0.00    +0.000 C 
ATOM      5  C   UNL     1       2.413   5.984  19.950  0.00  0.00    +0.000 C 
ATOM      6  C   UNL     1       3.823   5.794  19.405  0.00  0.00    +0.000 C 
ATOM      7  O   UNL     1       4.672   5.136  19.997  0.00  0.00    +0.000 OA
ENDROOT
BRANCH   5   8
ATOM      8  N   UNL     1       1.550   4.903  19.404  0.00  0.00    +0.000 NA
ATOM      9  C   UNL     1       2.252   4.012  18.441  0.00  0.00    +0.000 C 
ATOM     10  C   UNL     1       3.085   2.845  19.051  0.00  0.00    +0.000 C 
ATOM     11  C   UNL     1       3.403   1.804  17.979  0.00  0.00    +0.000 C 
ATOM     12  O   UNL     1       2.393   2.162  20.113  0.00  0.00    +0.000 OA
ATOM     13  C   UNL     1       1.920   3.095  21.093  0.00  0.00    +0.000 C 
ATOM     14  C   UNL     1       1.259   2.341  22.236  0.00  0.00    +0.000 C 
ATOM     15  C   UNL     1       0.916   4.044  20.420  0.00  0.00    +0.000 C 
ENDBRANCH   5   8
BRANCH   1  19
ATOM     16  C   UNL     1       6.901   5.566  15.296  0.00  0.00    +0.000 A 
ATOM     17  C   UNL     1       5.640   4.985  15.220  0.00  0.00    +0.000 A 
ATOM     18  C   UNL     1       4.645   5.317  16.148  0.00  0.00    +0.000 A 
ATOM     19  C   UNL     1       4.889   6.223  17.195  0.00  0.00    +0.000 A 
ATOM     20  C   UNL     1       6.171   6.795  17.246  0.00  0.00    +0.000 A 
ATOM     21  C   UNL     1       7.168   6.464  16.320  0.00  0.00    +0.000 A 
BRANCH  16  22
ATOM     22  O   UNL     1       7.791   5.175  14.338  0.00  0.00    +0.000 OA
BRANCH  22  24
ATOM     23  C   UNL     1       7.593   5.133  11.968  0.00  0.00    +0.000 C 
ATOM     24  C   UNL     1       7.242   4.420  13.258  0.00  0.00    +0.000 C 
ENDBRANCH  22  24
ENDBRANCH  16  22
ENDBRANCH   1  19
TORSDOF 4
ENDMDL
MODEL 6
REMARK VINA RESULT:      -6.5      2.556      6.564
REMARK  Name = 
REMARK  7 active torsions:
REMARK  status: ('A' for Active; 'I' for Inactive)
REMARK    1  A    between atoms: C_1  and  C_2
REMARK    2  A    between atoms: C_2  and  O_3
REMARK    3  A    between atoms: O_3  and  C_4
REMARK    4  A    between atoms: C_7  and  N_8
REMARK    5  A    between atoms: C_12  and  N_13
REMARK    6  A    between atoms: C_15  and  C_16
REMARK    7  A    between atoms: C_18  and  C_19
REMARK                            x       y       z     vdW  Elec       q    Type
REMARK                         _______ _______ _______ _____ _____    ______ ____
ROOT
ATOM      1  N   UNL     1       2.801   5.602  18.674  0.00  0.00    +0.000 N 
ATOM      2  C   UNL     1       2.162   4.821  17.737  0.00  0.00    +0.000 C 
ATOM      3  O   UNL     1       0.971   4.686  17.501  0.00  0.00    +0.000 OA
ATOM      4  C   UNL     1       3.195   3.980  17.042  0.00  0.00    +0.000 C 
ATOM      5  C   UNL     1       4.497   4.722  17.297  0.00  0.00    +0.000 C 
ATOM      6  C   UNL     1       4.158   5.337  18.650  0.00  0.00    +0.000 C 
ATOM      7  O   UNL     1       5.004   5.518  19.519  0.00  0.00    +0.000 OA
ENDROOT
BRANCH   5   8
ATOM      8  N   UNL     1       4.826   5.822  16.352  0.00  0.00    +0.000 NA
ATOM      9  C   UNL     1       5.650   6.902  16.961  0.00  0.00    +0.000 C 
ATOM     10  C   UNL     1       7.189   6.666  17.000  0.00  0.00    +0.000 C 
ATOM     11  C   UNL     1       7.920   7.981  17.265  0.00  0.00    +0.000 C 
ATOM     12  O   UNL     1       7.704   6.136  15.764  0.00  0.00    +0.000 OA
ATOM     13  C   UNL     1       6.962   4.978  15.360  0.00  0.00    +0.000 C 
ATOM     14  C   UNL     1       7.572   4.400  14.093  0.00  0.00    +0.000 C 
ATOM     15  C   UNL     1       5.503   5.394  15.114  0.00  0.00    +0.000 C 
ENDBRANCH   5   8
BRANCH   1  19
ATOM     16  C   UNL     1       0.749   8.403  21.159  0.00  0.00    +0.000 A 
ATOM     17  C   UNL     1       0.801   7.057  21.508  0.00  0.00    +0.000 A 
ATOM     18  C   UNL     1       1.510   6.142  20.720  0.00  0.00    +0.000 A 
ATOM     19  C   UNL     1       2.170   6.542  19.545  0.00  0.00    +0.000 A 
ATOM     20  C   UNL     1       2.102   7.906  19.218  0.00  0.00    +0.000 A 
ATOM     21  C   UNL     1       1.393   8.823  20.004  0.00  0.00    +0.000 A 
BRANCH  16  22
ATOM     22  O   UNL     1       0.035   9.205  22.001  0.00  0.00    +0.000 OA
BRANCH  22  24
ATOM     23  C   UNL     1      -0.253  11.566  21.958  0.00  0.00    +0.000 C 
ATOM     24  C   UNL     1      -0.712  10.246  21.372  0.00  0.00    +0.000 C 
ENDBRANCH  22  24
ENDBRANCH  16  22
ENDBRANCH   1  19
TORSDOF 4
ENDMDL
MODEL 7
REMARK VINA RESULT:      -6.5      0.981      1.254
REMARK  Name = 
REMARK  7 active torsions:
REMARK  status: ('A' for Active; 'I' for Inactive)
REMARK    1  A    between atoms: C_1  and  C_2
REMARK    2  A    between atoms: C_2  and  O_3
REMARK    3  A    between atoms: O_3  and  C_4
REMARK    4  A    between atoms: C_7  and  N_8
REMARK    5  A    between atoms: C_12  and  N_13
REMARK    6  A    between atoms: C_15  and  C_16
REMARK    7  A    between atoms: C_18  and  C_19
REMARK                            x       y       z     vdW  Elec       q    Type
REMARK                         _______ _______ _______ _____ _____    ______ ____
ROOT
ATOM      1  N   UNL     1       6.318   6.243  17.349  0.00  0.00    +0.000 N 
ATOM      2  C   UNL     1       6.707   5.006  16.886  0.00  0.00    +0.000 C 
ATOM      3  O   UNL     1       7.816   4.580  16.604  0.00  0.00    +0.000 OA
ATOM      4  C   UNL     1       5.471   4.189  16.632  0.00  0.00    +0.000 C 
ATOM      5  C   UNL     1       4.405   4.875  17.472  0.00  0.00    +0.000 C 
ATOM      6  C   UNL     1       4.939   6.301  17.413  0.00  0.00    +0.000 C 
ATOM      7  O   UNL     1       4.198   7.279  17.411  0.00  0.00    +0.000 OA
ENDROOT
BRANCH   5   8
ATOM      8  N   UNL     1       4.325   4.463  18.899  0.00  0.00    +0.000 NA
ATOM      9  C   UNL     1       3.012   4.768  19.532  0.00  0.00    +0.000 C 
ATOM     10  C   UNL     1       1.875   3.727  19.313  0.00  0.00    +0.000 C 
ATOM     11  C   UNL     1       0.749   3.953  20.322  0.00  0.00    +0.000 C 
ATOM     12  O   UNL     1       2.324   2.369  19.477  0.00  0.00    +0.000 OA
ATOM     13  C   UNL     1       3.485   2.118  18.674  0.00  0.00    +0.000 C 
ATOM     14  C   UNL     1       3.892   0.659  18.811  0.00  0.00    +0.000 C 
ATOM     15  C   UNL     1       4.617   3.041  19.151  0.00  0.00    +0.000 C 
ENDBRANCH   5   8
BRANCH   1  19
ATOM     16  C   UNL     1       8.798   9.508  18.542  0.00  0.00    +0.000 A 
ATOM     17  C   UNL     1       8.932   8.264  19.149  0.00  0.00    +0.000 A 
ATOM     18  C   UNL     1       8.152   7.178  18.731  0.00  0.00    +0.000 A 
ATOM     19  C   UNL     1       7.196   7.311  17.709  0.00  0.00    +0.000 A 
ATOM     20  C   UNL     1       7.084   8.578  17.113  0.00  0.00    +0.000 A 
ATOM     21  C   UNL     1       7.862   9.665  17.530  0.00  0.00    +0.000 A 
BRANCH  16  22
ATOM     22  O   UNL     1       9.611  10.492  19.025  0.00  0.00    +0.000 OA
BRANCH  22  24
ATOM     23  C   UNL     1      11.262  11.823  17.947  0.00  0.00    +0.000 C 
ATOM     24  C   UNL     1       9.776  11.626  18.174  0.00  0.00    +0.000 C 
ENDBRANCH  22  24
ENDBRANCH  16  22
ENDBRANCH   1  19
TORSDOF 4
ENDMDL
MODEL 8
REMARK VINA RESULT:      -6.4      2.984      4.733
REMARK  Name = 
REMARK  7 active torsions:
REMARK  status: ('A' for Active; 'I' for Inactive)
REMARK    1  A    between atoms: C_1  and  C_2
REMARK    2  A    between atoms: C_2  and  O_3
REMARK    3  A    between atoms: O_3  and  C_4
REMARK    4  A    between atoms: C_7  and  N_8
REMARK    5  A    between atoms: C_12  and  N_13
REMARK    6  A    between atoms: C_15  and  C_16
REMARK    7  A    between atoms: C_18  and  C_19
REMARK                            x       y       z     vdW  Elec       q    Type
REMARK                         _______ _______ _______ _____ _____    ______ ____
ROOT
ATOM      1  N   UNL     1       4.089   6.255  18.099  0.00  0.00    +0.000 N 
ATOM      2  C   UNL     1       3.175   7.275  17.953  0.00  0.00    +0.000 C 
ATOM      3  O   UNL     1       3.049   8.101  17.063  0.00  0.00    +0.000 OA
ATOM      4  C   UNL     1       2.334   7.335  19.198  0.00  0.00    +0.000 C 
ATOM      5  C   UNL     1       2.503   5.956  19.815  0.00  0.00    +0.000 C 
ATOM      6  C   UNL     1       3.916   5.652  19.331  0.00  0.00    +0.000 C 
ATOM      7  O   UNL     1       4.707   4.988  19.992  0.00  0.00    +0.000 OA
ENDROOT
BRANCH   5   8
ATOM      8  N   UNL     1       1.596   4.891  19.311  0.00  0.00    +0.000 NA
ATOM      9  C   UNL     1       2.250   3.956  18.355  0.00  0.00    +0.000 C 
ATOM     10  C   UNL     1       3.057   2.778  18.975  0.00  0.00    +0.000 C 
ATOM     11  C   UNL     1       3.320   1.703  17.921  0.00  0.00    +0.000 C 
ATOM     12  O   UNL     1       2.366   2.141  20.066  0.00  0.00    +0.000 OA
ATOM     13  C   UNL     1       1.942   3.111  21.033  0.00  0.00    +0.000 C 
ATOM     14  C   UNL     1       1.280   2.404  22.205  0.00  0.00    +0.000 C 
ATOM     15  C   UNL     1       0.955   4.076  20.358  0.00  0.00    +0.000 C 
ENDBRANCH   5   8
BRANCH   1  19
ATOM     16  C   UNL     1       6.940   5.244  15.086  0.00  0.00    +0.000 A 
ATOM     17  C   UNL     1       7.270   6.144  16.094  0.00  0.00    +0.000 A 
ATOM     18  C   UNL     1       6.353   6.444  17.110  0.00  0.00    +0.000 A 
ATOM     19  C   UNL     1       5.070   5.872  17.135  0.00  0.00    +0.000 A 
ATOM     20  C   UNL     1       4.765   4.967  16.105  0.00  0.00    +0.000 A 
ATOM     21  C   UNL     1       5.679   4.665  15.088  0.00  0.00    +0.000 A 
BRANCH  16  22
ATOM     22  O   UNL     1       7.910   5.021  14.152  0.00  0.00    +0.000 OA
BRANCH  22  24
ATOM     23  C   UNL     1       7.198   4.070  12.090  0.00  0.00    +0.000 C 
ATOM     24  C   UNL     1       7.559   5.355  12.809  0.00  0.00    +0.000 C 
ENDBRANCH  22  24
ENDBRANCH  16  22
ENDBRANCH   1  19
TORSDOF 4
ENDMDL
MODEL 9
REMARK VINA RESULT:      -6.3      6.875      9.727
REMARK  Name = 
REMARK  7 active torsions:
REMARK  status: ('A' for Active; 'I' for Inactive)
REMARK    1  A    between atoms: C_1  and  C_2
REMARK    2  A    between atoms: C_2  and  O_3
REMARK    3  A    between atoms: O_3  and  C_4
REMARK    4  A    between atoms: C_7  and  N_8
REMARK    5  A    between atoms: C_12  and  N_13
REMARK    6  A    between atoms: C_15  and  C_16
REMARK    7  A    between atoms: C_18  and  C_19
REMARK                            x       y       z     vdW  Elec       q    Type
REMARK                         _______ _______ _______ _____ _____    ______ ____
ROOT
ATOM      1  N   UNL     1       0.621  10.897  18.764  0.00  0.00    +0.000 N 
ATOM      2  C   UNL     1      -0.723  11.120  18.561  0.00  0.00    +0.000 C 
ATOM      3  O   UNL     1      -1.655  10.333  18.502  0.00  0.00    +0.000 OA
ATOM      4  C   UNL     1      -0.919  12.583  18.277  0.00  0.00    +0.000 C 
ATOM      5  C   UNL     1       0.332  13.232  18.848  0.00  0.00    +0.000 C 
ATOM      6  C   UNL     1       1.312  12.086  18.633  0.00  0.00    +0.000 C 
ATOM      7  O   UNL     1       2.497  12.275  18.376  0.00  0.00    +0.000 OA
ENDROOT
BRANCH   5   8
ATOM      8  N   UNL     1       0.303  13.559  20.298  0.00  0.00    +0.000 NA
ATOM      9  C   UNL     1       1.409  14.459  20.726  0.00  0.00    +0.000 C 
ATOM     10  C   UNL     1       1.182  15.987  20.521  0.00  0.00    +0.000 C 
ATOM     11  C   UNL     1       2.185  16.787  21.352  0.00  0.00    +0.000 C 
ATOM     12  O   UNL     1      -0.134  16.414  20.920  0.00  0.00    +0.000 OA
ATOM     13  C   UNL     1      -1.140  15.602  20.300  0.00  0.00    +0.000 C 
ATOM     14  C   UNL     1      -2.518  16.121  20.682  0.00  0.00    +0.000 C 
ATOM     15  C   UNL     1      -0.960  14.152  20.775  0.00  0.00    +0.000 C 
ENDBRANCH   5   8
BRANCH   1  19
ATOM     16  C   UNL     1       2.226   7.037  19.632  0.00  0.00    +0.000 A 
ATOM     17  C   UNL     1       2.341   7.576  18.356  0.00  0.00    +0.000 A 
ATOM     18  C   UNL     1       1.856   8.860  18.077  0.00  0.00    +0.000 A 
ATOM     19  C   UNL     1       1.218   9.634  19.062  0.00  0.00    +0.000 A 
ATOM     20  C   UNL     1       1.117   9.065  20.343  0.00  0.00    +0.000 A 
ATOM     21  C   UNL     1       1.601   7.781  20.624  0.00  0.00    +0.000 A 
BRANCH  16  22
ATOM     22  O   UNL     1       2.737   5.781  19.793  0.00  0.00    +0.000 OA
BRANCH  22  24
ATOM     23  C   UNL     1       1.101   4.102  20.193  0.00  0.00    +0.000 C 
ATOM     24  C   UNL     1       2.141   5.002  20.829  0.00  0.00    +0.000 C 
ENDBRANCH  22  24
ENDBRANCH  16  22
ENDBRANCH   1  19
TORSDOF 4
ENDMDL
