MODEL 1
REMARK VINA RESULT:      -7.8      0.000      0.000
REMARK  Name = 
REMARK  3 active torsions:
REMARK  status: ('A' for Active; 'I' for Inactive)
REMARK    1  A    between atoms: C_2  and  C_4
REMARK    2  A    between atoms: C_8  and  N_9
REMARK    3  A    between atoms: C_10  and  C_12
REMARK                            x       y       z     vdW  Elec       q    Type
REMARK                         _______ _______ _______ _____ _____    ______ ____
ROOT
ATOM      1  N   UNL     1       4.266   4.094  18.628  0.00  0.00    +0.000 N 
ATOM      2  C   UNL     1       3.880   3.867  17.320  0.00  0.00    +0.000 C 
ATOM      3  O   UNL     1       2.772   3.504  16.939  0.00  0.00    +0.000 OA
ATOM      4  H   UNL     1       5.038   4.733  18.771  0.00  0.00    +0.000 HD
ENDROOT
BRANCH   2   5
ATOM      5  C   UNL     1       4.972   4.254  16.355  0.00  0.00    +0.000 A 
ATOM      6  C   UNL     1       5.866   5.183  16.724  0.00  0.00    +0.000 A 
ATOM      7  C   UNL     1       6.915   5.583  15.768  0.00  0.00    +0.000 A 
ATOM      8  O   UNL     1       7.782   6.392  16.078  0.00  0.00    +0.000 OA
ATOM      9  C   UNL     1       6.856   4.970  14.432  0.00  0.00    +0.000 A 
ATOM     10  C   UNL     1       7.737   5.354  13.417  0.00  0.00    +0.000 A 
ATOM     11  C   UNL     1       7.646   4.754  12.158  0.00  0.00    +0.000 A 
ATOM     12  C   UNL     1       6.686   3.767  11.921  0.00  0.00    +0.000 A 
ATOM     13  C   UNL     1       5.809   3.385  12.938  0.00  0.00    +0.000 A 
ATOM     14  C   UNL     1       5.891   3.996  14.189  0.00  0.00    +0.000 A 
ATOM     15  O   UNL     1       4.984   3.598  15.134  0.00  0.00    +0.000 OA
ENDBRANCH   2   5
BRANCH   1  20
ATOM     16  C   UNL     1       2.554   4.808  20.354  0.00  0.00    +0.000 A 
ATOM     17  C   UNL     1       1.949   4.114  21.468  0.00  0.00    +0.000 A 
ATOM     18  C   UNL     1       2.309   2.786  21.536  0.00  0.00    +0.000 A 
ATOM     19  S   UNL     1       3.303   2.335  20.224  0.00  0.00    +0.000 S 
ATOM     20  C   UNL     1       3.386   3.941  19.672  0.00  0.00    +0.000 A 
BRANCH  16  22
ATOM     21  N   UNL     1       1.893   7.028  20.942  0.00  0.00    +0.000 N 
ATOM     22  C   UNL     1       2.262   6.175  19.936  0.00  0.00    +0.000 C 
ATOM     23  O   UNL     1       2.279   6.559  18.772  0.00  0.00    +0.000 OA
ATOM     24  H   UNL     1       1.796   7.999  20.677  0.00  0.00    +0.000 HD
ATOM     25  H   UNL     1       2.118   6.820  21.903  0.00  0.00    +0.000 HD
ENDBRANCH  16  22
ENDBRANCH   1  20
TORSDOF 3
ENDMDL
MODEL 2
REMARK VINA RESULT:      -7.6      3.531      8.107
REMARK  Name = 
REMARK  3 active torsions:
REMARK  status: ('A' for Active; 'I' for Inactive)
REMARK    1  A    between atoms: C_2  and  C_4
REMARK    2  A    between atoms: C_8  and  N_9
REMARK    3  A    between atoms: C_10  and  C_12
REMARK                            x       y       z     vdW  Elec       q    Type
REMARK                         _______ _______ _______ _____ _____    ______ ____
ROOT
ATOM      1  N   UNL     1       2.884   6.502  18.057  0.00  0.00    +0.000 N 
ATOM      2  C   UNL     1       2.591   6.544  19.408  0.00  0.00    +0.000 C 
ATOM      3  O   UNL     1       2.982   5.759  20.264  0.00  0.00    +0.000 OA
ATOM      4  H   UNL     1       2.831   7.377  17.551  0.00  0.00    +0.000 HD
ENDROOT
BRANCH   2   5
ATOM      5  C   UNL     1       1.812   7.787  19.756  0.00  0.00    +0.000 A 
ATOM      6  C   UNL     1       1.754   8.789  18.867  0.00  0.00    +0.000 A 
ATOM      7  C   UNL     1       1.017  10.017  19.222  0.00  0.00    +0.000 A 
ATOM      8  O   UNL     1       0.898  10.938  18.423  0.00  0.00    +0.000 OA
ATOM      9  C   UNL     1       0.451  10.074  20.578  0.00  0.00    +0.000 A 
ATOM     10  C   UNL     1      -0.177  11.230  21.054  0.00  0.00    +0.000 A 
ATOM     11  C   UNL     1      -0.697  11.249  22.351  0.00  0.00    +0.000 A 
ATOM     12  C   UNL     1      -0.601  10.115  23.161  0.00  0.00    +0.000 A 
ATOM     13  C   UNL     1       0.024   8.964  22.681  0.00  0.00    +0.000 A 
ATOM     14  C   UNL     1       0.558   8.950  21.393  0.00  0.00    +0.000 A 
ATOM     15  O   UNL     1       1.184   7.801  20.993  0.00  0.00    +0.000 OA
ENDBRANCH   2   5
BRANCH   1  20
ATOM     16  C   UNL     1       3.562   4.170  17.335  0.00  0.00    +0.000 A 
ATOM     17  C   UNL     1       4.814   3.624  16.861  0.00  0.00    +0.000 A 
ATOM     18  C   UNL     1       5.787   4.582  16.682  0.00  0.00    +0.000 A 
ATOM     19  S   UNL     1       5.192   6.151  16.998  0.00  0.00    +0.000 S 
ATOM     20  C   UNL     1       3.701   5.530  17.531  0.00  0.00    +0.000 A 
BRANCH  16  22
ATOM     21  N   UNL     1       2.444   2.087  17.685  0.00  0.00    +0.000 N 
ATOM     22  C   UNL     1       2.310   3.435  17.486  0.00  0.00    +0.000 C 
ATOM     23  O   UNL     1       1.198   3.942  17.392  0.00  0.00    +0.000 OA
ATOM     24  H   UNL     1       1.590   1.591  17.899  0.00  0.00    +0.000 HD
ATOM     25  H   UNL     1       3.313   1.698  18.019  0.00  0.00    +0.000 HD
ENDBRANCH  16  22
ENDBRANCH   1  20
TORSDOF 3
ENDMDL
MODEL 3
REMARK VINA RESULT:      -7.5      3.256      7.614
REMARK  Name = 
REMARK  3 active torsions:
REMARK  status: ('A' for Active; 'I' for Inactive)
REMARK    1  A    between atoms: C_2  and  C_4
REMARK    2  A    between atoms: C_8  and  N_9
REMARK    3  A    between atoms: C_10  and  C_12
REMARK                            x       y       z     vdW  Elec       q    Type
REMARK                         _______ _______ _______ _____ _____    ______ ____
ROOT
ATOM      1  N   UNL     1       4.449   6.779  17.454  0.00  0.00    +0.000 N 
ATOM      2  C   UNL     1       3.267   6.323  18.010  0.00  0.00    +0.000 C 
ATOM      3  O   UNL     1       2.927   5.153  18.140  0.00  0.00    +0.000 OA
ATOM      4  H   UNL     1       4.767   7.694  17.747  0.00  0.00    +0.000 HD
ENDROOT
BRANCH   2   5
ATOM      5  C   UNL     1       2.462   7.461  18.584  0.00  0.00    +0.000 A 
ATOM      6  C   UNL     1       2.205   8.529  17.814  0.00  0.00    +0.000 A 
ATOM      7  C   UNL     1       1.443   9.655  18.388  0.00  0.00    +0.000 A 
ATOM      8  O   UNL     1       1.144  10.629  17.708  0.00  0.00    +0.000 OA
ATOM      9  C   UNL     1       1.078   9.545  19.808  0.00  0.00    +0.000 A 
ATOM     10  C   UNL     1       0.446  10.598  20.478  0.00  0.00    +0.000 A 
ATOM     11  C   UNL     1       0.121  10.460  21.830  0.00  0.00    +0.000 A 
ATOM     12  C   UNL     1       0.414   9.271  22.503  0.00  0.00    +0.000 A 
ATOM     13  C   UNL     1       1.041   8.222  21.831  0.00  0.00    +0.000 A 
ATOM     14  C   UNL     1       1.381   8.367  20.485  0.00  0.00    +0.000 A 
ATOM     15  O   UNL     1       2.022   7.313  19.891  0.00  0.00    +0.000 OA
ENDBRANCH   2   5
BRANCH   1  20
ATOM     16  C   UNL     1       6.305   5.061  17.607  0.00  0.00    +0.000 A 
ATOM     17  C   UNL     1       7.175   4.479  16.610  0.00  0.00    +0.000 A 
ATOM     18  C   UNL     1       6.863   4.870  15.327  0.00  0.00    +0.000 A 
ATOM     19  S   UNL     1       5.478   5.867  15.291  0.00  0.00    +0.000 S 
ATOM     20  C   UNL     1       5.406   5.909  16.990  0.00  0.00    +0.000 A 
BRANCH  16  22
ATOM     21  N   UNL     1       5.487   3.685  19.380  0.00  0.00    +0.000 N 
ATOM     22  C   UNL     1       6.292   4.735  19.029  0.00  0.00    +0.000 C 
ATOM     23  O   UNL     1       6.901   5.365  19.887  0.00  0.00    +0.000 OA
ATOM     24  H   UNL     1       5.557   3.384  20.343  0.00  0.00    +0.000 HD
ATOM     25  H   UNL     1       5.193   3.007  18.693  0.00  0.00    +0.000 HD
ENDBRANCH  16  22
ENDBRANCH   1  20
TORSDOF 3
ENDMDL
MODEL 4
REMARK VINA RESULT:      -7.5      3.279      7.559
REMARK  Name = 
REMARK  3 active torsions:
REMARK  status: ('A' for Active; 'I' for Inactive)
REMARK    1  A    between atoms: C_2  and  C_4
REMARK    2  A    between atoms: C_8  and  N_9
REMARK    3  A    between atoms: C_10  and  C_12
REMARK                            x       y       z     vdW  Elec       q    Type
REMARK                         _______ _______ _______ _____ _____    ______ ____
ROOT
ATOM      1  N   UNL     1       4.585   6.480  17.513  0.00  0.00    +0.000 N 
ATOM      2  C   UNL     1       3.663   6.108  18.474  0.00  0.00    +0.000 C 
ATOM      3  O   UNL     1       3.624   5.038  19.071  0.00  0.00    +0.000 OA
ATOM      4  H   UNL     1       4.740   7.473  17.390  0.00  0.00    +0.000 HD
ENDROOT
BRANCH   2   5
ATOM      5  C   UNL     1       2.747   7.253  18.821  0.00  0.00    +0.000 A 
ATOM      6  C   UNL     1       2.574   8.241  17.931  0.00  0.00    +0.000 A 
ATOM      7  C   UNL     1       1.702   9.377  18.285  0.00  0.00    +0.000 A 
ATOM      8  O   UNL     1       1.477  10.278  17.486  0.00  0.00    +0.000 OA
ATOM      9  C   UNL     1       1.133   9.370  19.641  0.00  0.00    +0.000 A 
ATOM     10  C   UNL     1       0.377  10.447  20.116  0.00  0.00    +0.000 A 
ATOM     11  C   UNL     1      -0.141  10.408  21.413  0.00  0.00    +0.000 A 
ATOM     12  C   UNL     1       0.085   9.293  22.225  0.00  0.00    +0.000 A 
ATOM     13  C   UNL     1       0.837   8.220  21.746  0.00  0.00    +0.000 A 
ATOM     14  C   UNL     1       1.368   8.267  20.457  0.00  0.00    +0.000 A 
ATOM     15  O   UNL     1       2.122   7.196  20.058  0.00  0.00    +0.000 OA
ENDBRANCH   2   5
BRANCH   1  20
ATOM     16  C   UNL     1       6.867   5.386  17.640  0.00  0.00    +0.000 A 
ATOM     17  C   UNL     1       7.570   4.495  16.746  0.00  0.00    +0.000 A 
ATOM     18  C   UNL     1       6.806   4.099  15.670  0.00  0.00    +0.000 A 
ATOM     19  S   UNL     1       5.218   4.718  15.762  0.00  0.00    +0.000 S 
ATOM     20  C   UNL     1       5.607   5.642  17.136  0.00  0.00    +0.000 A 
BRANCH  16  22
ATOM     21  N   UNL     1       8.251   6.898  18.870  0.00  0.00    +0.000 N 
ATOM     22  C   UNL     1       7.355   5.864  18.930  0.00  0.00    +0.000 C 
ATOM     23  O   UNL     1       7.052   5.367  20.009  0.00  0.00    +0.000 OA
ATOM     24  H   UNL     1       8.507   7.305  19.759  0.00  0.00    +0.000 HD
ATOM     25  H   UNL     1       8.313   7.479  18.048  0.00  0.00    +0.000 HD
ENDBRANCH  16  22
ENDBRANCH   1  20
TORSDOF 3
ENDMDL
MODEL 5
REMARK VINA RESULT:      -7.4      3.960      7.947
REMARK  Name = 
REMARK  3 active torsions:
REMARK  status: ('A' for Active; 'I' for Inactive)
REMARK    1  A    between atoms: C_2  and  C_4
REMARK    2  A    between atoms: C_8  and  N_9
REMARK    3  A    between atoms: C_10  and  C_12
REMARK                            x       y       z     vdW  Elec       q    Type
REMARK                         _______ _______ _______ _____ _____    ______ ____
ROOT
ATOM      1  N   UNL     1       2.821   6.127  20.144  0.00  0.00    +0.000 N 
ATOM      2  C   UNL     1       2.429   6.921  19.081  0.00  0.00    +0.000 C 
ATOM      3  O   UNL     1       2.537   6.650  17.890  0.00  0.00    +0.000 OA
ATOM      4  H   UNL     1       2.346   6.278  21.025  0.00  0.00    +0.000 HD
ENDROOT
BRANCH   2   5
ATOM      5  C   UNL     1       1.703   8.152  19.560  0.00  0.00    +0.000 A 
ATOM      6  C   UNL     1       1.709   9.251  18.791  0.00  0.00    +0.000 A 
ATOM      7  C   UNL     1       1.025  10.465  19.276  0.00  0.00    +0.000 A 
ATOM      8  O   UNL     1       0.963  11.476  18.588  0.00  0.00    +0.000 OA
ATOM      9  C   UNL     1       0.438  10.394  20.623  0.00  0.00    +0.000 A 
ATOM     10  C   UNL     1      -0.143  11.517  21.221  0.00  0.00    +0.000 A 
ATOM     11  C   UNL     1      -0.684  11.414  22.505  0.00  0.00    +0.000 A 
ATOM     12  C   UNL     1      -0.656  10.191  23.181  0.00  0.00    +0.000 A 
ATOM     13  C   UNL     1      -0.078   9.072  22.580  0.00  0.00    +0.000 A 
ATOM     14  C   UNL     1       0.477   9.180  21.305  0.00  0.00    +0.000 A 
ATOM     15  O   UNL     1       1.055   8.055  20.783  0.00  0.00    +0.000 OA
ENDBRANCH   2   5
BRANCH   1  20
ATOM     16  C   UNL     1       4.588   4.457  19.432  0.00  0.00    +0.000 A 
ATOM     17  C   UNL     1       4.581   3.015  19.336  0.00  0.00    +0.000 A 
ATOM     18  C   UNL     1       3.419   2.448  19.814  0.00  0.00    +0.000 A 
ATOM     19  S   UNL     1       2.364   3.625  20.459  0.00  0.00    +0.000 S 
ATOM     20  C   UNL     1       3.380   4.888  19.946  0.00  0.00    +0.000 A 
BRANCH  16  22
ATOM     21  N   UNL     1       5.629   6.037  17.972  0.00  0.00    +0.000 N 
ATOM     22  C   UNL     1       5.721   5.329  19.141  0.00  0.00    +0.000 C 
ATOM     23  O   UNL     1       6.728   5.408  19.836  0.00  0.00    +0.000 OA
ATOM     24  H   UNL     1       6.356   6.722  17.818  0.00  0.00    +0.000 HD
ATOM     25  H   UNL     1       4.734   6.189  17.531  0.00  0.00    +0.000 HD
ENDBRANCH  16  22
ENDBRANCH   1  20
TORSDOF 3
ENDMDL
MODEL 6
REMARK VINA RESULT:      -7.4      4.268      8.280
REMARK  Name = 
REMARK  3 active torsions:
REMARK  status: ('A' for Active; 'I' for Inactive)
REMARK    1  A    between atoms: C_2  and  C_4
REMARK    2  A    between atoms: C_8  and  N_9
REMARK    3  A    between atoms: C_10  and  C_12
REMARK                            x       y       z     vdW  Elec       q    Type
REMARK                         _______ _______ _______ _____ _____    ______ ____
ROOT
ATOM      1  N   UNL     1       2.545   6.298  20.535  0.00  0.00    +0.000 N 
ATOM      2  C   UNL     1       2.130   7.260  19.633  0.00  0.00    +0.000 C 
ATOM      3  O   UNL     1       2.231   7.207  18.413  0.00  0.00    +0.000 OA
ATOM      4  H   UNL     1       2.077   6.281  21.432  0.00  0.00    +0.000 HD
ENDROOT
BRANCH   2   5
ATOM      5  C   UNL     1       1.391   8.375  20.329  0.00  0.00    +0.000 A 
ATOM      6  C   UNL     1       1.389   8.416  21.670  0.00  0.00    +0.000 A 
ATOM      7  C   UNL     1       0.639   9.489  22.349  0.00  0.00    +0.000 A 
ATOM      8  O   UNL     1       0.648   9.595  23.570  0.00  0.00    +0.000 OA
ATOM      9  C   UNL     1      -0.120  10.408  21.487  0.00  0.00    +0.000 A 
ATOM     10  C   UNL     1      -0.947  11.396  22.030  0.00  0.00    +0.000 A 
ATOM     11  C   UNL     1      -1.659  12.246  21.179  0.00  0.00    +0.000 A 
ATOM     12  C   UNL     1      -1.533  12.116  19.794  0.00  0.00    +0.000 A 
ATOM     13  C   UNL     1      -0.705  11.130  19.256  0.00  0.00    +0.000 A 
ATOM     14  C   UNL     1      -0.008  10.271  20.106  0.00  0.00    +0.000 A 
ATOM     15  O   UNL     1       0.764   9.307  19.516  0.00  0.00    +0.000 OA
ENDBRANCH   2   5
BRANCH   1  20
ATOM     16  C   UNL     1       2.834   3.789  20.329  0.00  0.00    +0.000 A 
ATOM     17  C   UNL     1       3.875   2.975  19.744  0.00  0.00    +0.000 A 
ATOM     18  C   UNL     1       4.840   3.716  19.097  0.00  0.00    +0.000 A 
ATOM     19  S   UNL     1       4.467   5.381  19.108  0.00  0.00    +0.000 S 
ATOM     20  C   UNL     1       3.122   5.123  20.116  0.00  0.00    +0.000 A 
BRANCH  16  22
ATOM     21  N   UNL     1       0.473   3.444  20.209  0.00  0.00    +0.000 N 
ATOM     22  C   UNL     1       1.612   3.296  20.955  0.00  0.00    +0.000 C 
ATOM     23  O   UNL     1       1.556   2.827  22.086  0.00  0.00    +0.000 OA
ATOM     24  H   UNL     1      -0.357   3.008  20.588  0.00  0.00    +0.000 HD
ATOM     25  H   UNL     1       0.524   3.577  19.211  0.00  0.00    +0.000 HD
ENDBRANCH  16  22
ENDBRANCH   1  20
TORSDOF 3
ENDMDL
MODEL 7
REMARK VINA RESULT:      -7.3      4.001      7.946
REMARK  Name = 
REMARK  3 active torsions:
REMARK  status: ('A' for Active; 'I' for Inactive)
REMARK    1  A    between atoms: C_2  and  C_4
REMARK    2  A    between atoms: C_8  and  N_9
REMARK    3  A    between atoms: C_10  and  C_12
REMARK                            x       y       z     vdW  Elec       q    Type
REMARK                         _______ _______ _______ _____ _____    ______ ____
ROOT
ATOM      1  N   UNL     1       2.604   6.109  20.433  0.00  0.00    +0.000 N 
ATOM      2  C   UNL     1       2.239   7.041  19.480  0.00  0.00    +0.000 C 
ATOM      3  O   UNL     1       2.296   6.901  18.263  0.00  0.00    +0.000 OA
ATOM      4  H   UNL     1       2.165   6.189  21.341  0.00  0.00    +0.000 HD
ENDROOT
BRANCH   2   5
ATOM      5  C   UNL     1       1.612   8.255  20.119  0.00  0.00    +0.000 A 
ATOM      6  C   UNL     1       1.521   8.312  21.456  0.00  0.00    +0.000 A 
ATOM      7  C   UNL     1       0.880   9.486  22.078  0.00  0.00    +0.000 A 
ATOM      8  O   UNL     1       0.817   9.604  23.295  0.00  0.00    +0.000 OA
ATOM      9  C   UNL     1       0.317  10.489  21.161  0.00  0.00    +0.000 A 
ATOM     10  C   UNL     1      -0.402  11.588  21.642  0.00  0.00    +0.000 A 
ATOM     11  C   UNL     1      -0.929  12.517  20.740  0.00  0.00    +0.000 A 
ATOM     12  C   UNL     1      -0.725  12.355  19.368  0.00  0.00    +0.000 A 
ATOM     13  C   UNL     1      -0.004  11.258  18.893  0.00  0.00    +0.000 A 
ATOM     14  C   UNL     1       0.506  10.322  19.792  0.00  0.00    +0.000 A 
ATOM     15  O   UNL     1       1.178   9.254  19.261  0.00  0.00    +0.000 OA
ENDBRANCH   2   5
BRANCH   1  20
ATOM     16  C   UNL     1       4.212   4.424  19.436  0.00  0.00    +0.000 A 
ATOM     17  C   UNL     1       4.111   3.000  19.207  0.00  0.00    +0.000 A 
ATOM     18  C   UNL     1       2.955   2.452  19.719  0.00  0.00    +0.000 A 
ATOM     19  S   UNL     1       2.022   3.615  20.550  0.00  0.00    +0.000 S 
ATOM     20  C   UNL     1       3.073   4.866  20.079  0.00  0.00    +0.000 A 
BRANCH  16  22
ATOM     21  N   UNL     1       5.268   6.023  18.008  0.00  0.00    +0.000 N 
ATOM     22  C   UNL     1       5.372   5.258  19.139  0.00  0.00    +0.000 C 
ATOM     23  O   UNL     1       6.406   5.262  19.798  0.00  0.00    +0.000 OA
ATOM     24  H   UNL     1       6.019   6.683  17.856  0.00  0.00    +0.000 HD
ATOM     25  H   UNL     1       4.366   6.233  17.609  0.00  0.00    +0.000 HD
ENDBRANCH  16  22
ENDBRANCH   1  20
TORSDOF 3
ENDMDL
MODEL 8
REMARK VINA RESULT:      -7.3      4.550      7.230
REMARK  Name = 
REMARK  3 active torsions:
REMARK  status: ('A' for Active; 'I' for Inactive)
REMARK    1  A    between atoms: C_2  and  C_4
REMARK    2  A    between atoms: C_8  and  N_9
REMARK    3  A    between atoms: C_10  and  C_12
REMARK                            x       y       z     vdW  Elec       q    Type
REMARK                         _______ _______ _______ _____ _____    ______ ____
ROOT
ATOM      1  N   UNL     1       0.789   9.498  19.287  0.00  0.00    +0.000 N 
ATOM      2  C   UNL     1       1.771   9.266  18.341  0.00  0.00    +0.000 C 
ATOM      3  O   UNL     1       2.196  10.070  17.519  0.00  0.00    +0.000 OA
ATOM      4  H   UNL     1       0.806   8.916  20.114  0.00  0.00    +0.000 HD
ENDROOT
BRANCH   2   5
ATOM      5  C   UNL     1       2.383   7.900  18.517  0.00  0.00    +0.000 A 
ATOM      6  C   UNL     1       3.294   7.476  17.630  0.00  0.00    +0.000 A 
ATOM      7  C   UNL     1       3.869   6.127  17.786  0.00  0.00    +0.000 A 
ATOM      8  O   UNL     1       4.739   5.716  17.028  0.00  0.00    +0.000 OA
ATOM      9  C   UNL     1       3.335   5.309  18.886  0.00  0.00    +0.000 A 
ATOM     10  C   UNL     1       3.735   3.980  19.061  0.00  0.00    +0.000 A 
ATOM     11  C   UNL     1       3.200   3.231  20.113  0.00  0.00    +0.000 A 
ATOM     12  C   UNL     1       2.282   3.813  20.991  0.00  0.00    +0.000 A 
ATOM     13  C   UNL     1       1.889   5.140  20.814  0.00  0.00    +0.000 A 
ATOM     14  C   UNL     1       2.410   5.881  19.754  0.00  0.00    +0.000 A 
ATOM     15  O   UNL     1       1.961   7.167  19.617  0.00  0.00    +0.000 OA
ENDBRANCH   2   5
BRANCH   1  20
ATOM     16  C   UNL     1      -0.758  11.404  18.657  0.00  0.00    +0.000 A 
ATOM     17  C   UNL     1      -0.922  12.739  19.187  0.00  0.00    +0.000 A 
ATOM     18  C   UNL     1      -0.153  12.974  20.305  0.00  0.00    +0.000 A 
ATOM     19  S   UNL     1       0.707  11.579  20.782  0.00  0.00    +0.000 S 
ATOM     20  C   UNL     1       0.184  10.727  19.406  0.00  0.00    +0.000 A 
BRANCH  16  22
ATOM     21  N   UNL     1      -2.065  11.704  16.679  0.00  0.00    +0.000 N 
ATOM     22  C   UNL     1      -1.534  10.812  17.572  0.00  0.00    +0.000 C 
ATOM     23  O   UNL     1      -1.764   9.613  17.464  0.00  0.00    +0.000 OA
ATOM     24  H   UNL     1      -2.509  11.296  15.867  0.00  0.00    +0.000 HD
ATOM     25  H   UNL     1      -1.688  12.635  16.595  0.00  0.00    +0.000 HD
ENDBRANCH  16  22
ENDBRANCH   1  20
TORSDOF 3
ENDMDL
MODEL 9
REMARK VINA RESULT:      -7.3      4.100      8.309
REMARK  Name = 
REMARK  3 active torsions:
REMARK  status: ('A' for Active; 'I' for Inactive)
REMARK    1  A    between atoms: C_2  and  C_4
REMARK    2  A    between atoms: C_8  and  N_9
REMARK    3  A    between atoms: C_10  and  C_12
REMARK                            x       y       z     vdW  Elec       q    Type
REMARK                         _______ _______ _______ _____ _____    ______ ____
ROOT
ATOM      1  N   UNL     1       2.614   6.458  20.133  0.00  0.00    +0.000 N 
ATOM      2  C   UNL     1       2.164   7.498  19.340  0.00  0.00    +0.000 C 
ATOM      3  O   UNL     1       2.243   7.571  18.119  0.00  0.00    +0.000 OA
ATOM      4  H   UNL     1       2.163   6.340  21.031  0.00  0.00    +0.000 HD
ENDROOT
BRANCH   2   5
ATOM      5  C   UNL     1       1.415   8.519  20.158  0.00  0.00    +0.000 A 
ATOM      6  C   UNL     1       1.495   8.467  21.495  0.00  0.00    +0.000 A 
ATOM      7  C   UNL     1       0.737   9.448  22.294  0.00  0.00    +0.000 A 
ATOM      8  O   UNL     1       0.818   9.469  23.516  0.00  0.00    +0.000 OA
ATOM      9  C   UNL     1      -0.121  10.382  21.548  0.00  0.00    +0.000 A 
ATOM     10  C   UNL     1      -0.960  11.283  22.209  0.00  0.00    +0.000 A 
ATOM     11  C   UNL     1      -1.766  12.150  21.466  0.00  0.00    +0.000 A 
ATOM     12  C   UNL     1      -1.722  12.123  20.070  0.00  0.00    +0.000 A 
ATOM     13  C   UNL     1      -0.881  11.223  19.414  0.00  0.00    +0.000 A 
ATOM     14  C   UNL     1      -0.089  10.347  20.156  0.00  0.00    +0.000 A 
ATOM     15  O   UNL     1       0.691   9.470  19.453  0.00  0.00    +0.000 OA
ENDBRANCH   2   5
BRANCH   1  20
ATOM     16  C   UNL     1       2.735   4.107  19.195  0.00  0.00    +0.000 A 
ATOM     17  C   UNL     1       3.849   3.269  18.811  0.00  0.00    +0.000 A 
ATOM     18  C   UNL     1       5.062   3.918  18.884  0.00  0.00    +0.000 A 
ATOM     19  S   UNL     1       4.875   5.555  19.330  0.00  0.00    +0.000 S 
ATOM     20  C   UNL     1       3.207   5.345  19.586  0.00  0.00    +0.000 A 
BRANCH  16  22
ATOM     21  N   UNL     1       0.659   3.639  20.282  0.00  0.00    +0.000 N 
ATOM     22  C   UNL     1       1.323   3.755  19.090  0.00  0.00    +0.000 C 
ATOM     23  O   UNL     1       0.748   3.517  18.034  0.00  0.00    +0.000 OA
ATOM     24  H   UNL     1      -0.341   3.505  20.214  0.00  0.00    +0.000 HD
ATOM     25  H   UNL     1       1.022   4.071  21.119  0.00  0.00    +0.000 HD
ENDBRANCH  16  22
ENDBRANCH   1  20
TORSDOF 3
ENDMDL
