MODEL 1
REMARK VINA RESULT:      -7.2      0.000      0.000
REMARK  Name = 
REMARK  15 active torsions:
REMARK  status: ('A' for Active; 'I' for Inactive)
REMARK    1  A    between atoms: C_1  and  O_2
REMARK    2  A    between atoms: O_2  and  C_3
REMARK    3  A    between atoms: C_6  and  O_7
REMARK    4  A    between atoms: O_7  and  C_8
REMARK    5  A    between atoms: C_8  and  C_9
REMARK    6  A    between atoms: C_9  and  O_10
REMARK    7  A    between atoms: C_9  and  C_11
REMARK    8  A    between atoms: C_11  and  N_12
REMARK    9  A    between atoms: N_12  and  C_13
REMARK   10  A    between atoms: C_13  and  C_14
REMARK   11  A    between atoms: C_14  and  N_15
REMARK   12  A    between atoms: C_16  and  C_18
REMARK   13  A    between atoms: C_21  and  N_22
REMARK   14  A    between atoms: N_22  and  S_23
REMARK   15  A    between atoms: S_23  and  C_24
REMARK                            x       y       z     vdW  Elec       q    Type
REMARK                         _______ _______ _______ _____ _____    ______ ____
ROOT
ATOM      1  C   UNL     1       1.585   5.318  20.332  0.00  0.00    +0.000 C 
ENDROOT
BRANCH   1   2
ATOM      2  N   UNL     1       2.375   4.326  21.071  0.00  0.00    +0.000 NA
ATOM      3  H   UNL     1       3.372   4.450  20.878  0.00  0.00    +0.000 HD
BRANCH   2   4
ATOM      4  C   UNL     1       2.008   2.951  20.701  0.00  0.00    +0.000 C 
BRANCH   4   5
ATOM      5  C   UNL     1       2.290   2.667  19.215  0.00  0.00    +0.000 C 
BRANCH   5   6
ATOM      6  O   UNL     1       1.791   1.364  18.880  0.00  0.00    +0.000 OA
ATOM      7  H   UNL     1       0.824   1.421  18.814  0.00  0.00    +0.000 HD
ENDBRANCH   5   6
BRANCH   5   8
ATOM      8  C   UNL     1       3.805   2.782  18.968  0.00  0.00    +0.000 C 
BRANCH   8   9
ATOM      9  O   UNL     1       4.050   2.952  17.570  0.00  0.00    +0.000 OA
BRANCH   9  13
ATOM     10  C   UNL     1       6.685   6.087  16.772  0.00  0.00    +0.000 A 
ATOM     11  C   UNL     1       6.572   5.523  18.043  0.00  0.00    +0.000 A 
ATOM     12  C   UNL     1       5.681   4.470  18.272  0.00  0.00    +0.000 A 
ATOM     13  C   UNL     1       4.870   3.996  17.242  0.00  0.00    +0.000 A 
ATOM     14  C   UNL     1       4.976   4.565  15.973  0.00  0.00    +0.000 A 
ATOM     15  C   UNL     1       5.878   5.610  15.740  0.00  0.00    +0.000 A 
BRANCH  10  17
ATOM     16  C   UNL     1       7.949   7.745  17.882  0.00  0.00    +0.000 C 
ATOM     17  O   UNL     1       7.582   7.114  16.659  0.00  0.00    +0.000 OA
ENDBRANCH  10  17
ENDBRANCH   9  13
ENDBRANCH   8   9
ENDBRANCH   5   8
ENDBRANCH   4   5
ENDBRANCH   2   4
ENDBRANCH   1   2
BRANCH   1  18
ATOM     18  C   UNL     1       2.275   6.692  20.274  0.00  0.00    +0.000 C 
BRANCH  18  19
ATOM     19  N   UNL     1       1.586   7.711  21.034  0.00  0.00    +0.000 N 
ATOM     20  C   UNL     1       1.108   8.846  20.423  0.00  0.00    +0.000 C 
ATOM     21  O   UNL     1       1.278   9.095  19.232  0.00  0.00    +0.000 OA
ATOM     22  H   UNL     1       1.538   7.602  22.037  0.00  0.00    +0.000 HD
BRANCH  20  23
ATOM     23  C   UNL     1       0.369   9.809  21.286  0.00  0.00    +0.000 A 
ATOM     24  C   UNL     1       0.352  11.150  20.898  0.00  0.00    +0.000 A 
ATOM     25  C   UNL     1      -0.364  12.086  21.645  0.00  0.00    +0.000 A 
ATOM     26  C   UNL     1      -1.065  11.682  22.780  0.00  0.00    +0.000 A 
ATOM     27  C   UNL     1      -1.047  10.346  23.182  0.00  0.00    +0.000 A 
ATOM     28  C   UNL     1      -0.333   9.403  22.432  0.00  0.00    +0.000 A 
BRANCH  26  29
ATOM     29  N   UNL     1      -1.823  12.664  23.470  0.00  0.00    +0.000 N 
ATOM     30  H   UNL     1      -1.567  12.858  24.440  0.00  0.00    +0.000 HD
BRANCH  29  31
ATOM     31  S   UNL     1      -3.496  12.678  23.254  0.00  0.00    +0.000 S 
ATOM     32  C   UNL     1      -3.842  14.424  23.338  0.00  0.00    +0.000 C 
ATOM     33  O   UNL     1      -3.838  12.188  21.938  0.00  0.00    +0.000 OA
ATOM     34  O   UNL     1      -4.043  12.070  24.448  0.00  0.00    +0.000 OA
ENDBRANCH  29  31
ENDBRANCH  26  29
ENDBRANCH  20  23
ENDBRANCH  18  19
ENDBRANCH   1  18
TORSDOF 13
ENDMDL
MODEL 2
REMARK VINA RESULT:      -7.2      2.817      3.340
REMARK  Name = 
REMARK  15 active torsions:
REMARK  status: ('A' for Active; 'I' for Inactive)
REMARK    1  A    between atoms: C_1  and  O_2
REMARK    2  A    between atoms: O_2  and  C_3
REMARK    3  A    between atoms: C_6  and  O_7
REMARK    4  A    between atoms: O_7  and  C_8
REMARK    5  A    between atoms: C_8  and  C_9
REMARK    6  A    between atoms: C_9  and  O_10
REMARK    7  A    between atoms: C_9  and  C_11
REMARK    8  A    between atoms: C_11  and  N_12
REMARK    9  A    between atoms: N_12  and  C_13
REMARK   10  A    between atoms: C_13  and  C_14
REMARK   11  A    between atoms: C_14  and  N_15
REMARK   12  A    between atoms: C_16  and  C_18
REMARK   13  A    between atoms: C_21  and  N_22
REMARK   14  A    between atoms: N_22  and  S_23
REMARK   15  A    between atoms: S_23  and  C_24
REMARK                            x       y       z     vdW  Elec       q    Type
REMARK                         _______ _______ _______ _____ _____    ______ ____
ROOT
ATOM      1  C   UNL     1       1.237   3.068  20.764  0.00  0.00    +0.000 C 
ENDROOT
BRANCH   1   2
ATOM      2  N   UNL     1       1.716   2.371  19.564  0.00  0.00    +0.000 NA
ATOM      3  H   UNL     1       1.129   1.554  19.370  0.00  0.00    +0.000 HD
BRANCH   2   4
ATOM      4  C   UNL     1       3.103   1.907  19.719  0.00  0.00    +0.000 C 
BRANCH   4   5
ATOM      5  C   UNL     1       4.023   2.492  18.633  0.00  0.00    +0.000 C 
BRANCH   5   6
ATOM      6  O   UNL     1       5.042   3.288  19.254  0.00  0.00    +0.000 OA
ATOM      7  H   UNL     1       5.249   2.891  20.116  0.00  0.00    +0.000 HD
ENDBRANCH   5   6
BRANCH   5   8
ATOM      8  C   UNL     1       3.170   3.316  17.651  0.00  0.00    +0.000 C 
BRANCH   8   9
ATOM      9  O   UNL     1       3.883   3.486  16.424  0.00  0.00    +0.000 OA
BRANCH   9  13
ATOM     10  C   UNL     1       6.782   6.479  16.642  0.00  0.00    +0.000 A 
ATOM     11  C   UNL     1       5.431   6.743  16.864  0.00  0.00    +0.000 A 
ATOM     12  C   UNL     1       4.488   5.713  16.788  0.00  0.00    +0.000 A 
ATOM     13  C   UNL     1       4.883   4.419  16.452  0.00  0.00    +0.000 A 
ATOM     14  C   UNL     1       6.233   4.155  16.220  0.00  0.00    +0.000 A 
ATOM     15  C   UNL     1       7.179   5.184  16.312  0.00  0.00    +0.000 A 
BRANCH  10  17
ATOM     16  C   UNL     1       8.047   7.886  18.055  0.00  0.00    +0.000 C 
ATOM     17  O   UNL     1       7.618   7.557  16.737  0.00  0.00    +0.000 OA
ENDBRANCH  10  17
ENDBRANCH   9  13
ENDBRANCH   8   9
ENDBRANCH   5   8
ENDBRANCH   4   5
ENDBRANCH   2   4
ENDBRANCH   1   2
BRANCH   1  18
ATOM     18  C   UNL     1       2.196   4.182  21.217  0.00  0.00    +0.000 C 
BRANCH  18  19
ATOM     19  N   UNL     1       1.741   5.508  20.863  0.00  0.00    +0.000 N 
ATOM     20  C   UNL     1       2.520   6.342  20.097  0.00  0.00    +0.000 C 
ATOM     21  O   UNL     1       3.652   6.049  19.718  0.00  0.00    +0.000 OA
ATOM     22  H   UNL     1       0.870   5.831  21.263  0.00  0.00    +0.000 HD
BRANCH  20  23
ATOM     23  C   UNL     1       1.937   7.666  19.747  0.00  0.00    +0.000 A 
ATOM     24  C   UNL     1       2.021   8.083  18.417  0.00  0.00    +0.000 A 
ATOM     25  C   UNL     1       1.450   9.295  18.025  0.00  0.00    +0.000 A 
ATOM     26  C   UNL     1       0.792  10.090  18.962  0.00  0.00    +0.000 A 
ATOM     27  C   UNL     1       0.710   9.688  20.296  0.00  0.00    +0.000 A 
ATOM     28  C   UNL     1       1.279   8.470  20.692  0.00  0.00    +0.000 A 
BRANCH  26  29
ATOM     29  N   UNL     1       0.180  11.284  18.499  0.00  0.00    +0.000 N 
ATOM     30  H   UNL     1       0.496  12.163  18.911  0.00  0.00    +0.000 HD
BRANCH  29  31
ATOM     31  S   UNL     1      -1.489  11.280  18.249  0.00  0.00    +0.000 S 
ATOM     32  C   UNL     1      -2.049  12.242  19.641  0.00  0.00    +0.000 C 
ATOM     33  O   UNL     1      -1.816  11.978  17.026  0.00  0.00    +0.000 OA
ATOM     34  O   UNL     1      -1.908   9.913  18.471  0.00  0.00    +0.000 OA
ENDBRANCH  29  31
ENDBRANCH  26  29
ENDBRANCH  20  23
ENDBRANCH  18  19
ENDBRANCH   1  18
TORSDOF 13
ENDMDL
MODEL 3
REMARK VINA RESULT:      -7.0      3.272      5.232
REMARK  Name = 
REMARK  15 active torsions:
REMARK  status: ('A' for Active; 'I' for Inactive)
REMARK    1  A    between atoms: C_1  and  O_2
REMARK    2  A    between atoms: O_2  and  C_3
REMARK    3  A    between atoms: C_6  and  O_7
REMARK    4  A    between atoms: O_7  and  C_8
REMARK    5  A    between atoms: C_8  and  C_9
REMARK    6  A    between atoms: C_9  and  O_10
REMARK    7  A    between atoms: C_9  and  C_11
REMARK    8  A    between atoms: C_11  and  N_12
REMARK    9  A    between atoms: N_12  and  C_13
REMARK   10  A    between atoms: C_13  and  C_14
REMARK   11  A    between atoms: C_14  and  N_15
REMARK   12  A    between atoms: C_16  and  C_18
REMARK   13  A    between atoms: C_21  and  N_22
REMARK   14  A    between atoms: N_22  and  S_23
REMARK   15  A    between atoms: S_23  and  C_24
REMARK                            x       y       z     vdW  Elec       q    Type
REMARK                         _______ _______ _______ _____ _____    ______ ____
ROOT
ATOM      1  C   UNL     1       5.074   3.800  18.064  0.00  0.00    +0.000 C 
ENDROOT
BRANCH   1   2
ATOM      2  N   UNL     1       6.169   4.109  18.991  0.00  0.00    +0.000 NA
ATOM      3  H   UNL     1       5.935   3.792  19.936  0.00  0.00    +0.000 HD
BRANCH   2   4
ATOM      4  C   UNL     1       6.442   5.553  19.050  0.00  0.00    +0.000 C 
BRANCH   4   5
ATOM      5  C   UNL     1       7.375   6.003  17.912  0.00  0.00    +0.000 C 
BRANCH   5   6
ATOM      6  O   UNL     1       7.837   7.335  18.178  0.00  0.00    +0.000 OA
ATOM      7  H   UNL     1       8.393   7.614  17.432  0.00  0.00    +0.000 HD
ENDBRANCH   5   6
BRANCH   5   8
ATOM      8  C   UNL     1       6.607   5.918  16.579  0.00  0.00    +0.000 C 
BRANCH   8   9
ATOM      9  O   UNL     1       7.530   5.708  15.509  0.00  0.00    +0.000 OA
BRANCH   9  13
ATOM     10  C   UNL     1       5.826   3.527  12.386  0.00  0.00    +0.000 A 
ATOM     11  C   UNL     1       5.229   3.604  13.645  0.00  0.00    +0.000 A 
ATOM     12  C   UNL     1       5.827   4.348  14.666  0.00  0.00    +0.000 A 
ATOM     13  C   UNL     1       7.044   4.992  14.449  0.00  0.00    +0.000 A 
ATOM     14  C   UNL     1       7.647   4.909  13.193  0.00  0.00    +0.000 A 
ATOM     15  C   UNL     1       7.040   4.175  12.167  0.00  0.00    +0.000 A 
BRANCH  10  17
ATOM     16  C   UNL     1       3.839   3.200  11.152  0.00  0.00    +0.000 C 
ATOM     17  O   UNL     1       5.161   2.769  11.462  0.00  0.00    +0.000 OA
ENDBRANCH  10  17
ENDBRANCH   9  13
ENDBRANCH   8   9
ENDBRANCH   5   8
ENDBRANCH   4   5
ENDBRANCH   2   4
ENDBRANCH   1   2
BRANCH   1  18
ATOM     18  C   UNL     1       3.690   3.962  18.716  0.00  0.00    +0.000 C 
BRANCH  18  19
ATOM     19  N   UNL     1       3.144   5.293  18.577  0.00  0.00    +0.000 N 
ATOM     20  C   UNL     1       2.627   5.961  19.662  0.00  0.00    +0.000 C 
ATOM     21  O   UNL     1       2.542   5.466  20.783  0.00  0.00    +0.000 OA
ATOM     22  H   UNL     1       3.080   5.684  17.647  0.00  0.00    +0.000 HD
BRANCH  20  23
ATOM     23  C   UNL     1       2.136   7.346  19.421  0.00  0.00    +0.000 A 
ATOM     24  C   UNL     1       2.354   7.903  18.159  0.00  0.00    +0.000 A 
ATOM     25  C   UNL     1       1.874   9.180  17.865  0.00  0.00    +0.000 A 
ATOM     26  C   UNL     1       1.175   9.901  18.831  0.00  0.00    +0.000 A 
ATOM     27  C   UNL     1       0.960   9.358  20.099  0.00  0.00    +0.000 A 
ATOM     28  C   UNL     1       1.437   8.075  20.396  0.00  0.00    +0.000 A 
BRANCH  26  29
ATOM     29  N   UNL     1       0.659  11.171  18.461  0.00  0.00    +0.000 N 
ATOM     30  H   UNL     1       1.152  11.996  18.806  0.00  0.00    +0.000 HD
BRANCH  29  31
ATOM     31  S   UNL     1      -1.014  11.391  18.487  0.00  0.00    +0.000 S 
ATOM     32  C   UNL     1      -1.563   9.986  17.538  0.00  0.00    +0.000 C 
ATOM     33  O   UNL     1      -1.515  11.277  19.838  0.00  0.00    +0.000 OA
ATOM     34  O   UNL     1      -1.259  12.574  17.691  0.00  0.00    +0.000 OA
ENDBRANCH  29  31
ENDBRANCH  26  29
ENDBRANCH  20  23
ENDBRANCH  18  19
ENDBRANCH   1  18
TORSDOF 13
ENDMDL
MODEL 4
REMARK VINA RESULT:      -7.0      3.122      3.827
REMARK  Name = 
REMARK  15 active torsions:
REMARK  status: ('A' for Active; 'I' for Inactive)
REMARK    1  A    between atoms: C_1  and  O_2
REMARK    2  A    between atoms: O_2  and  C_3
REMARK    3  A    between atoms: C_6  and  O_7
REMARK    4  A    between atoms: O_7  and  C_8
REMARK    5  A    between atoms: C_8  and  C_9
REMARK    6  A    between atoms: C_9  and  O_10
REMARK    7  A    between atoms: C_9  and  C_11
REMARK    8  A    between atoms: C_11  and  N_12
REMARK    9  A    between atoms: N_12  and  C_13
REMARK   10  A    between atoms: C_13  and  C_14
REMARK   11  A    between atoms: C_14  and  N_15
REMARK   12  A    between atoms: C_16  and  C_18
REMARK   13  A    between atoms: C_21  and  N_22
REMARK   14  A    between atoms: N_22  and  S_23
REMARK   15  A    between atoms: S_23  and  C_24
REMARK                            x       y       z     vdW  Elec       q    Type
REMARK                         _______ _______ _______ _____ _____    ______ ____
ROOT
ATOM      1  C   UNL     1       2.771   3.376  20.420  0.00  0.00    +0.000 C 
ENDROOT
BRANCH   1   2
ATOM      2  N   UNL     1       1.735   2.443  19.962  0.00  0.00    +0.000 NA
ATOM      3  H   UNL     1       2.085   1.481  19.993  0.00  0.00    +0.000 HD
BRANCH   2   4
ATOM      4  C   UNL     1       1.313   2.729  18.583  0.00  0.00    +0.000 C 
BRANCH   4   5
ATOM      5  C   UNL     1       2.342   2.225  17.556  0.00  0.00    +0.000 C 
BRANCH   5   6
ATOM      6  O   UNL     1       3.168   1.223  18.166  0.00  0.00    +0.000 OA
ATOM      7  H   UNL     1       3.030   1.265  19.127  0.00  0.00    +0.000 HD
ENDBRANCH   5   6
BRANCH   5   8
ATOM      8  C   UNL     1       3.169   3.423  17.054  0.00  0.00    +0.000 C 
BRANCH   8   9
ATOM      9  O   UNL     1       4.548   3.218  17.370  0.00  0.00    +0.000 OA
BRANCH   9  13
ATOM     10  C   UNL     1       6.759   6.743  17.066  0.00  0.00    +0.000 A 
ATOM     11  C   UNL     1       5.493   6.614  16.493  0.00  0.00    +0.000 A 
ATOM     12  C   UNL     1       4.779   5.418  16.620  0.00  0.00    +0.000 A 
ATOM     13  C   UNL     1       5.339   4.331  17.288  0.00  0.00    +0.000 A 
ATOM     14  C   UNL     1       6.608   4.455  17.853  0.00  0.00    +0.000 A 
ATOM     15  C   UNL     1       7.317   5.658  17.739  0.00  0.00    +0.000 A 
BRANCH  10  17
ATOM     16  C   UNL     1       8.127   8.434  17.985  0.00  0.00    +0.000 C 
ATOM     17  O   UNL     1       7.371   7.952  16.879  0.00  0.00    +0.000 OA
ENDBRANCH  10  17
ENDBRANCH   9  13
ENDBRANCH   8   9
ENDBRANCH   5   8
ENDBRANCH   4   5
ENDBRANCH   2   4
ENDBRANCH   1   2
BRANCH   1  18
ATOM     18  C   UNL     1       2.249   4.357  21.484  0.00  0.00    +0.000 C 
BRANCH  18  19
ATOM     19  N   UNL     1       1.836   5.629  20.936  0.00  0.00    +0.000 N 
ATOM     20  C   UNL     1       2.648   6.322  20.069  0.00  0.00    +0.000 C 
ATOM     21  O   UNL     1       3.774   5.948  19.753  0.00  0.00    +0.000 OA
ATOM     22  H   UNL     1       0.971   6.030  21.272  0.00  0.00    +0.000 HD
BRANCH  20  23
ATOM     23  C   UNL     1       2.107   7.598  19.523  0.00  0.00    +0.000 A 
ATOM     24  C   UNL     1       1.244   8.338  20.334  0.00  0.00    +0.000 A 
ATOM     25  C   UNL     1       0.745   9.564  19.890  0.00  0.00    +0.000 A 
ATOM     26  C   UNL     1       1.109  10.051  18.636  0.00  0.00    +0.000 A 
ATOM     27  C   UNL     1       1.964   9.315  17.813  0.00  0.00    +0.000 A 
ATOM     28  C   UNL     1       2.469   8.086  18.258  0.00  0.00    +0.000 A 
BRANCH  26  29
ATOM     29  N   UNL     1       0.619  11.328  18.257  0.00  0.00    +0.000 N 
ATOM     30  H   UNL     1       0.359  11.459  17.278  0.00  0.00    +0.000 HD
BRANCH  29  31
ATOM     31  S   UNL     1       1.384  12.695  18.886  0.00  0.00    +0.000 S 
ATOM     32  C   UNL     1       0.012  13.823  19.030  0.00  0.00    +0.000 C 
ATOM     33  O   UNL     1       1.910  12.415  20.203  0.00  0.00    +0.000 OA
ATOM     34  O   UNL     1       2.236  13.182  17.823  0.00  0.00    +0.000 OA
ENDBRANCH  29  31
ENDBRANCH  26  29
ENDBRANCH  20  23
ENDBRANCH  18  19
ENDBRANCH   1  18
TORSDOF 13
ENDMDL
MODEL 5
REMARK VINA RESULT:      -6.9      3.089      5.267
REMARK  Name = 
REMARK  15 active torsions:
REMARK  status: ('A' for Active; 'I' for Inactive)
REMARK    1  A    between atoms: C_1  and  O_2
REMARK    2  A    between atoms: O_2  and  C_3
REMARK    3  A    between atoms: C_6  and  O_7
REMARK    4  A    between atoms: O_7  and  C_8
REMARK    5  A    between atoms: C_8  and  C_9
REMARK    6  A    between atoms: C_9  and  O_10
REMARK    7  A    between atoms: C_9  and  C_11
REMARK    8  A    between atoms: C_11  and  N_12
REMARK    9  A    between atoms: N_12  and  C_13
REMARK   10  A    between atoms: C_13  and  C_14
REMARK   11  A    between atoms: C_14  and  N_15
REMARK   12  A    between atoms: C_16  and  C_18
REMARK   13  A    between atoms: C_21  and  N_22
REMARK   14  A    between atoms: N_22  and  S_23
REMARK   15  A    between atoms: S_23  and  C_24
REMARK                            x       y       z     vdW  Elec       q    Type
REMARK                         _______ _______ _______ _____ _____    ______ ____
ROOT
ATOM      1  C   UNL     1       5.649   4.634  19.473  0.00  0.00    +0.000 C 
ENDROOT
BRANCH   1   2
ATOM      2  N   UNL     1       6.879   4.714  18.676  0.00  0.00    +0.000 NA
ATOM      3  H   UNL     1       7.516   3.953  18.928  0.00  0.00    +0.000 HD
BRANCH   2   4
ATOM      4  C   UNL     1       7.585   5.986  18.887  0.00  0.00    +0.000 C 
BRANCH   4   5
ATOM      5  C   UNL     1       7.784   6.753  17.568  0.00  0.00    +0.000 C 
BRANCH   5   6
ATOM      6  O   UNL     1       7.536   8.149  17.790  0.00  0.00    +0.000 OA
ATOM      7  H   UNL     1       6.589   8.311  17.648  0.00  0.00    +0.000 HD
ENDBRANCH   5   6
BRANCH   5   8
ATOM      8  C   UNL     1       6.839   6.164  16.504  0.00  0.00    +0.000 C 
BRANCH   8   9
ATOM      9  O   UNL     1       7.594   5.778  15.354  0.00  0.00    +0.000 OA
BRANCH   9  13
ATOM     10  C   UNL     1       5.741   3.449  12.430  0.00  0.00    +0.000 A 
ATOM     11  C   UNL     1       6.976   4.060  12.214  0.00  0.00    +0.000 A 
ATOM     12  C   UNL     1       7.569   4.829  13.219  0.00  0.00    +0.000 A 
ATOM     13  C   UNL     1       6.916   5.025  14.435  0.00  0.00    +0.000 A 
ATOM     14  C   UNL     1       5.677   4.421  14.650  0.00  0.00    +0.000 A 
ATOM     15  C   UNL     1       5.090   3.638  13.648  0.00  0.00    +0.000 A 
BRANCH  10  17
ATOM     16  C   UNL     1       3.885   2.968  11.051  0.00  0.00    +0.000 C 
ATOM     17  O   UNL     1       5.249   2.723  11.380  0.00  0.00    +0.000 OA
ENDBRANCH  10  17
ENDBRANCH   9  13
ENDBRANCH   8   9
ENDBRANCH   5   8
ENDBRANCH   4   5
ENDBRANCH   2   4
ENDBRANCH   1   2
BRANCH   1  18
ATOM     18  C   UNL     1       4.387   4.547  18.598  0.00  0.00    +0.000 C 
BRANCH  18  19
ATOM     19  N   UNL     1       3.662   5.794  18.513  0.00  0.00    +0.000 N 
ATOM     20  C   UNL     1       2.748   6.149  19.477  0.00  0.00    +0.000 C 
ATOM     21  O   UNL     1       2.449   5.424  20.423  0.00  0.00    +0.000 OA
ATOM     22  H   UNL     1       3.788   6.358  17.683  0.00  0.00    +0.000 HD
BRANCH  20  23
ATOM     23  C   UNL     1       2.094   7.477  19.321  0.00  0.00    +0.000 A 
ATOM     24  C   UNL     1       1.537   8.065  20.458  0.00  0.00    +0.000 A 
ATOM     25  C   UNL     1       0.953   9.330  20.378  0.00  0.00    +0.000 A 
ATOM     26  C   UNL     1       0.926  10.009  19.161  0.00  0.00    +0.000 A 
ATOM     27  C   UNL     1       1.472   9.426  18.015  0.00  0.00    +0.000 A 
ATOM     28  C   UNL     1       2.062   8.158  18.094  0.00  0.00    +0.000 A 
BRANCH  26  29
ATOM     29  N   UNL     1       0.371  11.315  19.147  0.00  0.00    +0.000 N 
ATOM     30  H   UNL     1       0.609  11.934  19.924  0.00  0.00    +0.000 HD
BRANCH  29  31
ATOM     31  S   UNL     1      -1.242  11.492  18.684  0.00  0.00    +0.000 S 
ATOM     32  C   UNL     1      -1.957  12.166  20.171  0.00  0.00    +0.000 C 
ATOM     33  O   UNL     1      -1.356  12.463  17.619  0.00  0.00    +0.000 OA
ATOM     34  O   UNL     1      -1.748  10.146  18.531  0.00  0.00    +0.000 OA
ENDBRANCH  29  31
ENDBRANCH  26  29
ENDBRANCH  20  23
ENDBRANCH  18  19
ENDBRANCH   1  18
TORSDOF 13
ENDMDL
MODEL 6
REMARK VINA RESULT:      -6.9      2.289      2.762
REMARK  Name = 
REMARK  15 active torsions:
REMARK  status: ('A' for Active; 'I' for Inactive)
REMARK    1  A    between atoms: C_1  and  O_2
REMARK    2  A    between atoms: O_2  and  C_3
REMARK    3  A    between atoms: C_6  and  O_7
REMARK    4  A    between atoms: O_7  and  C_8
REMARK    5  A    between atoms: C_8  and  C_9
REMARK    6  A    between atoms: C_9  and  O_10
REMARK    7  A    between atoms: C_9  and  C_11
REMARK    8  A    between atoms: C_11  and  N_12
REMARK    9  A    between atoms: N_12  and  C_13
REMARK   10  A    between atoms: C_13  and  C_14
REMARK   11  A    between atoms: C_14  and  N_15
REMARK   12  A    between atoms: C_16  and  C_18
REMARK   13  A    between atoms: C_21  and  N_22
REMARK   14  A    between atoms: N_22  and  S_23
REMARK   15  A    between atoms: S_23  and  C_24
REMARK                            x       y       z     vdW  Elec       q    Type
REMARK                         _______ _______ _______ _____ _____    ______ ____
ROOT
ATOM      1  C   UNL     1       1.009   3.975  20.606  0.00  0.00    +0.000 C 
ENDROOT
BRANCH   1   2
ATOM      2  N   UNL     1       1.162   2.955  19.563  0.00  0.00    +0.000 NA
ATOM      3  H   UNL     1       0.514   2.179  19.726  0.00  0.00    +0.000 HD
BRANCH   2   4
ATOM      4  C   UNL     1       2.527   2.408  19.531  0.00  0.00    +0.000 C 
BRANCH   4   5
ATOM      5  C   UNL     1       2.973   2.072  18.097  0.00  0.00    +0.000 C 
BRANCH   5   6
ATOM      6  O   UNL     1       4.016   1.089  18.143  0.00  0.00    +0.000 OA
ATOM      7  H   UNL     1       4.136   0.822  19.070  0.00  0.00    +0.000 HD
ENDBRANCH   5   6
BRANCH   5   8
ATOM      8  C   UNL     1       3.436   3.368  17.406  0.00  0.00    +0.000 C 
BRANCH   8   9
ATOM      9  O   UNL     1       4.824   3.265  17.078  0.00  0.00    +0.000 OA
BRANCH   9  13
ATOM     10  C   UNL     1       6.758   6.960  17.217  0.00  0.00    +0.000 A 
ATOM     11  C   UNL     1       5.502   6.805  16.629  0.00  0.00    +0.000 A 
ATOM     12  C   UNL     1       4.882   5.553  16.606  0.00  0.00    +0.000 A 
ATOM     13  C   UNL     1       5.527   4.437  17.136  0.00  0.00    +0.000 A 
ATOM     14  C   UNL     1       6.787   4.587  17.716  0.00  0.00    +0.000 A 
ATOM     15  C   UNL     1       7.401   5.845  17.754  0.00  0.00    +0.000 A 
BRANCH  10  17
ATOM     16  C   UNL     1       8.289   8.500  18.144  0.00  0.00    +0.000 C 
ATOM     17  O   UNL     1       7.275   8.225  17.182  0.00  0.00    +0.000 OA
ENDBRANCH  10  17
ENDBRANCH   9  13
ENDBRANCH   8   9
ENDBRANCH   5   8
ENDBRANCH   4   5
ENDBRANCH   2   4
ENDBRANCH   1   2
BRANCH   1  18
ATOM     18  C   UNL     1       2.225   4.912  20.695  0.00  0.00    +0.000 C 
BRANCH  18  19
ATOM     19  N   UNL     1       1.867   6.311  20.758  0.00  0.00    +0.000 N 
ATOM     20  C   UNL     1       2.014   7.129  19.662  0.00  0.00    +0.000 C 
ATOM     21  O   UNL     1       2.502   6.752  18.599  0.00  0.00    +0.000 OA
ATOM     22  H   UNL     1       1.582   6.687  21.652  0.00  0.00    +0.000 HD
BRANCH  20  23
ATOM     23  C   UNL     1       1.569   8.541  19.817  0.00  0.00    +0.000 A 
ATOM     24  C   UNL     1       1.193   8.968  21.093  0.00  0.00    +0.000 A 
ATOM     25  C   UNL     1       0.812  10.293  21.304  0.00  0.00    +0.000 A 
ATOM     26  C   UNL     1       0.806  11.194  20.240  0.00  0.00    +0.000 A 
ATOM     27  C   UNL     1       1.171  10.776  18.959  0.00  0.00    +0.000 A 
ATOM     28  C   UNL     1       1.558   9.447  18.745  0.00  0.00    +0.000 A 
BRANCH  26  29
ATOM     29  N   UNL     1       0.465  12.543  20.521  0.00  0.00    +0.000 N 
ATOM     30  H   UNL     1       0.675  12.895  21.456  0.00  0.00    +0.000 HD
BRANCH  29  31
ATOM     31  S   UNL     1      -1.014  13.126  19.955  0.00  0.00    +0.000 S 
ATOM     32  C   UNL     1      -0.498  14.038  18.513  0.00  0.00    +0.000 C 
ATOM     33  O   UNL     1      -1.863  12.030  19.546  0.00  0.00    +0.000 OA
ATOM     34  O   UNL     1      -1.452  14.089  20.943  0.00  0.00    +0.000 OA
ENDBRANCH  29  31
ENDBRANCH  26  29
ENDBRANCH  20  23
ENDBRANCH  18  19
ENDBRANCH   1  18
TORSDOF 13
ENDMDL
MODEL 7
REMARK VINA RESULT:      -6.8      0.940      1.380
REMARK  Name = 
REMARK  15 active torsions:
REMARK  status: ('A' for Active; 'I' for Inactive)
REMARK    1  A    between atoms: C_1  and  O_2
REMARK    2  A    between atoms: O_2  and  C_3
REMARK    3  A    between atoms: C_6  and  O_7
REMARK    4  A    between atoms: O_7  and  C_8
REMARK    5  A    between atoms: C_8  and  C_9
REMARK    6  A    between atoms: C_9  and  O_10
REMARK    7  A    between atoms: C_9  and  C_11
REMARK    8  A    between atoms: C_11  and  N_12
REMARK    9  A    between atoms: N_12  and  C_13
REMARK   10  A    between atoms: C_13  and  C_14
REMARK   11  A    between atoms: C_14  and  N_15
REMARK   12  A    between atoms: C_16  and  C_18
REMARK   13  A    between atoms: C_21  and  N_22
REMARK   14  A    between atoms: N_22  and  S_23
REMARK   15  A    between atoms: S_23  and  C_24
REMARK                            x       y       z     vdW  Elec       q    Type
REMARK                         _______ _______ _______ _____ _____    ______ ____
ROOT
ATOM      1  C   UNL     1       1.543   5.547  20.534  0.00  0.00    +0.000 C 
ENDROOT
BRANCH   1   2
ATOM      2  N   UNL     1       2.425   4.504  21.071  0.00  0.00    +0.000 NA
ATOM      3  H   UNL     1       3.390   4.666  20.769  0.00  0.00    +0.000 HD
BRANCH   2   4
ATOM      4  C   UNL     1       2.025   3.164  20.617  0.00  0.00    +0.000 C 
BRANCH   4   5
ATOM      5  C   UNL     1       1.432   3.197  19.197  0.00  0.00    +0.000 C 
BRANCH   5   6
ATOM      6  O   UNL     1       0.213   2.440  19.176  0.00  0.00    +0.000 OA
ATOM      7  H   UNL     1      -0.458   2.965  18.711  0.00  0.00    +0.000 HD
ENDBRANCH   5   6
BRANCH   5   8
ATOM      8  C   UNL     1       2.473   2.636  18.212  0.00  0.00    +0.000 C 
BRANCH   8   9
ATOM      9  O   UNL     1       3.786   2.834  18.740  0.00  0.00    +0.000 OA
BRANCH   9  13
ATOM     10  C   UNL     1       6.237   5.722  16.988  0.00  0.00    +0.000 A 
ATOM     11  C   UNL     1       6.483   5.222  18.266  0.00  0.00    +0.000 A 
ATOM     12  C   UNL     1       5.643   4.251  18.820  0.00  0.00    +0.000 A 
ATOM     13  C   UNL     1       4.529   3.798  18.114  0.00  0.00    +0.000 A 
ATOM     14  C   UNL     1       4.276   4.304  16.839  0.00  0.00    +0.000 A 
ATOM     15  C   UNL     1       5.126   5.265  16.279  0.00  0.00    +0.000 A 
BRANCH  10  17
ATOM     16  C   UNL     1       7.615   7.558  17.541  0.00  0.00    +0.000 C 
ATOM     17  O   UNL     1       7.117   6.671  16.545  0.00  0.00    +0.000 OA
ENDBRANCH  10  17
ENDBRANCH   9  13
ENDBRANCH   8   9
ENDBRANCH   5   8
ENDBRANCH   4   5
ENDBRANCH   2   4
ENDBRANCH   1   2
BRANCH   1  18
ATOM     18  C   UNL     1       2.279   6.877  20.302  0.00  0.00    +0.000 C 
BRANCH  18  19
ATOM     19  N   UNL     1       1.639   8.005  20.941  0.00  0.00    +0.000 N 
ATOM     20  C   UNL     1       1.112   9.034  20.197  0.00  0.00    +0.000 C 
ATOM     21  O   UNL     1       1.196   9.094  18.973  0.00  0.00    +0.000 OA
ATOM     22  H   UNL     1       1.664   8.053  21.951  0.00  0.00    +0.000 HD
BRANCH  20  23
ATOM     23  C   UNL     1       0.430  10.122  20.951  0.00  0.00    +0.000 A 
ATOM     24  C   UNL     1      -0.203   9.786  22.149  0.00  0.00    +0.000 A 
ATOM     25  C   UNL     1      -0.818  10.774  22.918  0.00  0.00    +0.000 A 
ATOM     26  C   UNL     1      -0.798  12.101  22.492  0.00  0.00    +0.000 A 
ATOM     27  C   UNL     1      -0.176  12.448  21.291  0.00  0.00    +0.000 A 
ATOM     28  C   UNL     1       0.445  11.457  20.518  0.00  0.00    +0.000 A 
BRANCH  26  29
ATOM     29  N   UNL     1      -1.388  13.075  23.340  0.00  0.00    +0.000 N 
ATOM     30  H   UNL     1      -1.382  12.887  24.344  0.00  0.00    +0.000 HD
BRANCH  29  31
ATOM     31  S   UNL     1      -2.836  13.788  22.849  0.00  0.00    +0.000 S 
ATOM     32  C   UNL     1      -3.561  14.215  24.421  0.00  0.00    +0.000 C 
ATOM     33  O   UNL     1      -2.573  14.998  22.103  0.00  0.00    +0.000 OA
ATOM     34  O   UNL     1      -3.624  12.713  22.287  0.00  0.00    +0.000 OA
ENDBRANCH  29  31
ENDBRANCH  26  29
ENDBRANCH  20  23
ENDBRANCH  18  19
ENDBRANCH   1  18
TORSDOF 13
ENDMDL
MODEL 8
REMARK VINA RESULT:      -6.7      3.672      6.093
REMARK  Name = 
REMARK  15 active torsions:
REMARK  status: ('A' for Active; 'I' for Inactive)
REMARK    1  A    between atoms: C_1  and  O_2
REMARK    2  A    between atoms: O_2  and  C_3
REMARK    3  A    between atoms: C_6  and  O_7
REMARK    4  A    between atoms: O_7  and  C_8
REMARK    5  A    between atoms: C_8  and  C_9
REMARK    6  A    between atoms: C_9  and  O_10
REMARK    7  A    between atoms: C_9  and  C_11
REMARK    8  A    between atoms: C_11  and  N_12
REMARK    9  A    between atoms: N_12  and  C_13
REMARK   10  A    between atoms: C_13  and  C_14
REMARK   11  A    between atoms: C_14  and  N_15
REMARK   12  A    between atoms: C_16  and  C_18
REMARK   13  A    between atoms: C_21  and  N_22
REMARK   14  A    between atoms: N_22  and  S_23
REMARK   15  A    between atoms: S_23  and  C_24
REMARK                            x       y       z     vdW  Elec       q    Type
REMARK                         _______ _______ _______ _____ _____    ______ ____
ROOT
ATOM      1  C   UNL     1       5.988   5.009  19.319  0.00  0.00    +0.000 C 
ENDROOT
BRANCH   1   2
ATOM      2  N   UNL     1       7.272   5.114  18.616  0.00  0.00    +0.000 NA
ATOM      3  H   UNL     1       7.958   4.478  19.032  0.00  0.00    +0.000 HD
BRANCH   2   4
ATOM      4  C   UNL     1       7.819   6.477  18.678  0.00  0.00    +0.000 C 
BRANCH   4   5
ATOM      5  C   UNL     1       7.339   7.338  17.496  0.00  0.00    +0.000 C 
BRANCH   5   6
ATOM      6  O   UNL     1       7.673   6.681  16.265  0.00  0.00    +0.000 OA
ATOM      7  H   UNL     1       8.293   5.962  16.468  0.00  0.00    +0.000 HD
ENDBRANCH   5   6
BRANCH   5   8
ATOM      8  C   UNL     1       7.990   8.729  17.599  0.00  0.00    +0.000 C 
BRANCH   8   9
ATOM      9  O   UNL     1       8.731   8.821  18.818  0.00  0.00    +0.000 OA
BRANCH   9  13
ATOM     10  C   UNL     1      10.077  12.705  19.537  0.00  0.00    +0.000 A 
ATOM     11  C   UNL     1       9.860  12.226  18.245  0.00  0.00    +0.000 A 
ATOM     12  C   UNL     1       9.403  10.920  18.043  0.00  0.00    +0.000 A 
ATOM     13  C   UNL     1       9.195  10.070  19.128  0.00  0.00    +0.000 A 
ATOM     14  C   UNL     1       9.420  10.544  20.420  0.00  0.00    +0.000 A 
ATOM     15  C   UNL     1       9.863  11.857  20.623  0.00  0.00    +0.000 A 
BRANCH  10  17
ATOM     16  C   UNL     1      10.538  14.554  20.932  0.00  0.00    +0.000 C 
ATOM     17  O   UNL     1      10.527  13.994  19.622  0.00  0.00    +0.000 OA
ENDBRANCH  10  17
ENDBRANCH   9  13
ENDBRANCH   8   9
ENDBRANCH   5   8
ENDBRANCH   4   5
ENDBRANCH   2   4
ENDBRANCH   1   2
BRANCH   1  18
ATOM     18  C   UNL     1       4.786   5.113  18.365  0.00  0.00    +0.000 C 
BRANCH  18  19
ATOM     19  N   UNL     1       3.924   6.238  18.650  0.00  0.00    +0.000 N 
ATOM     20  C   UNL     1       2.890   6.126  19.549  0.00  0.00    +0.000 C 
ATOM     21  O   UNL     1       2.597   5.075  20.114  0.00  0.00    +0.000 OA
ATOM     22  H   UNL     1       4.055   7.082  18.111  0.00  0.00    +0.000 HD
BRANCH  20  23
ATOM     23  C   UNL     1       2.094   7.357  19.808  0.00  0.00    +0.000 A 
ATOM     24  C   UNL     1       2.037   8.319  18.798  0.00  0.00    +0.000 A 
ATOM     25  C   UNL     1       1.267   9.471  18.971  0.00  0.00    +0.000 A 
ATOM     26  C   UNL     1       0.554   9.661  20.152  0.00  0.00    +0.000 A 
ATOM     27  C   UNL     1       0.611   8.710  21.173  0.00  0.00    +0.000 A 
ATOM     28  C   UNL     1       1.379   7.551  21.001  0.00  0.00    +0.000 A 
BRANCH  26  29
ATOM     29  N   UNL     1      -0.257  10.822  20.253  0.00  0.00    +0.000 N 
ATOM     30  H   UNL     1      -0.764  10.966  21.128  0.00  0.00    +0.000 HD
BRANCH  29  31
ATOM     31  S   UNL     1      -1.188  11.263  18.916  0.00  0.00    +0.000 S 
ATOM     32  C   UNL     1      -2.495  12.191  19.695  0.00  0.00    +0.000 C 
ATOM     33  O   UNL     1      -0.436  12.139  18.047  0.00  0.00    +0.000 OA
ATOM     34  O   UNL     1      -1.765  10.030  18.425  0.00  0.00    +0.000 OA
ENDBRANCH  29  31
ENDBRANCH  26  29
ENDBRANCH  20  23
ENDBRANCH  18  19
ENDBRANCH   1  18
TORSDOF 13
ENDMDL
MODEL 9
REMARK VINA RESULT:      -6.6      2.963      3.528
REMARK  Name = 
REMARK  15 active torsions:
REMARK  status: ('A' for Active; 'I' for Inactive)
REMARK    1  A    between atoms: C_1  and  O_2
REMARK    2  A    between atoms: O_2  and  C_3
REMARK    3  A    between atoms: C_6  and  O_7
REMARK    4  A    between atoms: O_7  and  C_8
REMARK    5  A    between atoms: C_8  and  C_9
REMARK    6  A    between atoms: C_9  and  O_10
REMARK    7  A    between atoms: C_9  and  C_11
REMARK    8  A    between atoms: C_11  and  N_12
REMARK    9  A    between atoms: N_12  and  C_13
REMARK   10  A    between atoms: C_13  and  C_14
REMARK   11  A    between atoms: C_14  and  N_15
REMARK   12  A    between atoms: C_16  and  C_18
REMARK   13  A    between atoms: C_21  and  N_22
REMARK   14  A    between atoms: N_22  and  S_23
REMARK   15  A    between atoms: S_23  and  C_24
REMARK                            x       y       z     vdW  Elec       q    Type
REMARK                         _______ _______ _______ _____ _____    ______ ____
ROOT
ATOM      1  C   UNL     1       2.025   4.414  20.898  0.00  0.00    +0.000 C 
ENDROOT
BRANCH   1   2
ATOM      2  N   UNL     1       2.505   3.084  21.291  0.00  0.00    +0.000 NA
ATOM      3  H   UNL     1       3.035   3.142  22.166  0.00  0.00    +0.000 HD
BRANCH   2   4
ATOM      4  C   UNL     1       3.381   2.496  20.267  0.00  0.00    +0.000 C 
BRANCH   4   5
ATOM      5  C   UNL     1       2.723   2.514  18.876  0.00  0.00    +0.000 C 
BRANCH   5   6
ATOM      6  O   UNL     1       1.845   1.387  18.754  0.00  0.00    +0.000 OA
ATOM      7  H   UNL     1       1.266   1.371  19.534  0.00  0.00    +0.000 HD
ENDBRANCH   5   6
BRANCH   5   8
ATOM      8  C   UNL     1       3.829   2.499  17.805  0.00  0.00    +0.000 C 
BRANCH   8   9
ATOM      9  O   UNL     1       3.727   3.672  16.996  0.00  0.00    +0.000 OA
BRANCH   9  13
ATOM     10  C   UNL     1       6.959   6.311  16.920  0.00  0.00    +0.000 A 
ATOM     11  C   UNL     1       5.731   6.631  16.342  0.00  0.00    +0.000 A 
ATOM     12  C   UNL     1       4.668   5.724  16.391  0.00  0.00    +0.000 A 
ATOM     13  C   UNL     1       4.836   4.474  16.986  0.00  0.00    +0.000 A 
ATOM     14  C   UNL     1       6.066   4.148  17.557  0.00  0.00    +0.000 A 
ATOM     15  C   UNL     1       7.125   5.063  17.521  0.00  0.00    +0.000 A 
BRANCH  10  17
ATOM     16  C   UNL     1       7.829   8.352  17.730  0.00  0.00    +0.000 C 
ATOM     17  O   UNL     1       7.931   7.267  16.812  0.00  0.00    +0.000 OA
ENDBRANCH  10  17
ENDBRANCH   9  13
ENDBRANCH   8   9
ENDBRANCH   5   8
ENDBRANCH   4   5
ENDBRANCH   2   4
ENDBRANCH   1   2
BRANCH   1  18
ATOM     18  C   UNL     1       3.137   5.284  20.288  0.00  0.00    +0.000 C 
BRANCH  18  19
ATOM     19  N   UNL     1       2.774   6.678  20.168  0.00  0.00    +0.000 N 
ATOM     20  C   UNL     1       2.183   7.159  19.023  0.00  0.00    +0.000 C 
ATOM     21  O   UNL     1       1.981   6.470  18.027  0.00  0.00    +0.000 OA
ATOM     22  H   UNL     1       3.040   7.301  20.918  0.00  0.00    +0.000 HD
BRANCH  20  23
ATOM     23  C   UNL     1       1.803   8.598  19.023  0.00  0.00    +0.000 A 
ATOM     24  C   UNL     1       1.108   9.088  20.130  0.00  0.00    +0.000 A 
ATOM     25  C   UNL     1       0.767  10.440  20.203  0.00  0.00    +0.000 A 
ATOM     26  C   UNL     1       1.123  11.303  19.168  0.00  0.00    +0.000 A 
ATOM     27  C   UNL     1       1.809  10.823  18.052  0.00  0.00    +0.000 A 
ATOM     28  C   UNL     1       2.156   9.467  17.979  0.00  0.00    +0.000 A 
BRANCH  26  29
ATOM     29  N   UNL     1       0.803  12.678  19.318  0.00  0.00    +0.000 N 
ATOM     30  H   UNL     1       0.272  13.121  18.566  0.00  0.00    +0.000 HD
BRANCH  29  31
ATOM     31  S   UNL     1       1.987  13.710  19.934  0.00  0.00    +0.000 S 
ATOM     32  C   UNL     1       1.029  15.176  20.267  0.00  0.00    +0.000 C 
ATOM     33  O   UNL     1       2.509  13.191  21.178  0.00  0.00    +0.000 OA
ATOM     34  O   UNL     1       2.858  14.007  18.817  0.00  0.00    +0.000 OA
ENDBRANCH  29  31
ENDBRANCH  26  29
ENDBRANCH  20  23
ENDBRANCH  18  19
ENDBRANCH   1  18
TORSDOF 13
ENDMDL
