MODEL 1
REMARK VINA RESULT:      -8.3      0.000      0.000
REMARK  Name = 
REMARK  10 active torsions:
REMARK  status: ('A' for Active; 'I' for Inactive)
REMARK    1  A    between atoms: C_1  and  C_2
REMARK    2  A    between atoms: C_2  and  C_3
REMARK    3  A    between atoms: C_3  and  C_4
REMARK    4  A    between atoms: C_3  and  N_5
REMARK    5  A    between atoms: C_6  and  C_8
REMARK    6  A    between atoms: C_8  and  O_9
REMARK    7  A    between atoms: O_9  and  C_10
REMARK    8  A    between atoms: C_10  and  C_12
REMARK    9  A    between atoms: C_17  and  N_18
REMARK   10  A    between atoms: N_18  and  C_19
REMARK                            x       y       z     vdW  Elec       q    Type
REMARK                         _______ _______ _______ _____ _____    ______ ____
ROOT
ATOM      1  C   UNL     1       6.169   5.842  17.344  0.00  0.00    +0.000 A 
ATOM      2  C   UNL     1       7.366   6.569  17.464  0.00  0.00    +0.000 A 
ATOM      3  C   UNL     1       8.064   6.575  18.663  0.00  0.00    +0.000 A 
ATOM      4  C   UNL     1       7.540   5.854  19.711  0.00  0.00    +0.000 A 
ATOM      5  N   UNL     1       6.415   5.121  19.613  0.00  0.00    +0.000 NA
ATOM      6  C   UNL     1       5.728   5.087  18.437  0.00  0.00    +0.000 A 
ENDROOT
BRANCH   1   7
ATOM      7  C   UNL     1       5.382   5.921  16.094  0.00  0.00    +0.000 C 
ATOM      8  O   UNL     1       4.960   6.957  15.611  0.00  0.00    +0.000 OA
BRANCH   7   9
ATOM      9  O   UNL     1       5.272   4.688  15.540  0.00  0.00    +0.000 OA
BRANCH   9  10
ATOM     10  C   UNL     1       6.480   4.133  15.020  0.00  0.00    +0.000 C 
BRANCH  10  12
ATOM     11  N   UNL     1       5.474   3.213  12.998  0.00  0.00    +0.000 N 
ATOM     12  C   UNL     1       6.466   4.026  13.499  0.00  0.00    +0.000 C 
ATOM     13  O   UNL     1       7.285   4.613  12.797  0.00  0.00    +0.000 OA
ATOM     14  H   UNL     1       4.877   2.714  13.655  0.00  0.00    +0.000 HD
BRANCH  11  15
ATOM     15  C   UNL     1       5.311   2.983  11.571  0.00  0.00    +0.000 C 
ATOM     16  C   UNL     1       3.852   3.213  11.177  0.00  0.00    +0.000 C 
BRANCH  15  18
ATOM     17  C   UNL     1       7.272   1.432  11.053  0.00  0.00    +0.000 C 
ATOM     18  C   UNL     1       5.759   1.569  11.175  0.00  0.00    +0.000 C 
ENDBRANCH  15  18
ENDBRANCH  11  15
ENDBRANCH  10  12
ENDBRANCH   9  10
ENDBRANCH   7   9
ENDBRANCH   1   7
BRANCH   6  19
ATOM     19  N   UNL     1       4.630   4.200  18.349  0.00  0.00    +0.000 N 
ATOM     20  H   UNL     1       4.207   4.202  17.421  0.00  0.00    +0.000 HD
BRANCH  19  21
ATOM     21  C   UNL     1       3.701   4.004  19.402  0.00  0.00    +0.000 A 
ATOM     22  C   UNL     1       2.741   4.990  19.690  0.00  0.00    +0.000 A 
ATOM     23  C   UNL     1       1.714   4.762  20.607  0.00  0.00    +0.000 A 
ATOM     24  C   UNL     1       1.648   3.548  21.283  0.00  0.00    +0.000 A 
ATOM     25  C   UNL     1       2.637   2.584  21.068  0.00  0.00    +0.000 A 
ATOM     26  C   UNL     1       3.650   2.818  20.141  0.00  0.00    +0.000 A 
ATOM     27  F   UNL     1       4.571   1.863  19.935  0.00  0.00    +0.000 F 
ENDBRANCH  19  21
ENDBRANCH   6  19
TORSDOF 8
ENDMDL
MODEL 2
REMARK VINA RESULT:      -8.1      1.026      1.425
REMARK  Name = 
REMARK  10 active torsions:
REMARK  status: ('A' for Active; 'I' for Inactive)
REMARK    1  A    between atoms: C_1  and  C_2
REMARK    2  A    between atoms: C_2  and  C_3
REMARK    3  A    between atoms: C_3  and  C_4
REMARK    4  A    between atoms: C_3  and  N_5
REMARK    5  A    between atoms: C_6  and  C_8
REMARK    6  A    between atoms: C_8  and  O_9
REMARK    7  A    between atoms: O_9  and  C_10
REMARK    8  A    between atoms: C_10  and  C_12
REMARK    9  A    between atoms: C_17  and  N_18
REMARK   10  A    between atoms: N_18  and  C_19
REMARK                            x       y       z     vdW  Elec       q    Type
REMARK                         _______ _______ _______ _____ _____    ______ ____
ROOT
ATOM      1  C   UNL     1       6.179   5.842  17.576  0.00  0.00    +0.000 A 
ATOM      2  C   UNL     1       7.276   6.711  17.707  0.00  0.00    +0.000 A 
ATOM      3  C   UNL     1       8.063   6.678  18.850  0.00  0.00    +0.000 A 
ATOM      4  C   UNL     1       7.725   5.776  19.832  0.00  0.00    +0.000 A 
ATOM      5  N   UNL     1       6.702   4.908  19.716  0.00  0.00    +0.000 NA
ATOM      6  C   UNL     1       5.932   4.914  18.593  0.00  0.00    +0.000 A 
ENDROOT
BRANCH   1   7
ATOM      7  C   UNL     1       5.290   5.953  16.399  0.00  0.00    +0.000 C 
ATOM      8  O   UNL     1       4.582   6.916  16.159  0.00  0.00    +0.000 OA
BRANCH   7   9
ATOM      9  O   UNL     1       5.442   4.866  15.603  0.00  0.00    +0.000 OA
BRANCH   9  10
ATOM     10  C   UNL     1       6.772   4.609  15.151  0.00  0.00    +0.000 C 
BRANCH  10  12
ATOM     11  N   UNL     1       6.098   3.430  13.126  0.00  0.00    +0.000 N 
ATOM     12  C   UNL     1       6.856   4.461  13.637  0.00  0.00    +0.000 C 
ATOM     13  O   UNL     1       7.554   5.199  12.947  0.00  0.00    +0.000 OA
ATOM     14  H   UNL     1       5.598   2.827  13.776  0.00  0.00    +0.000 HD
BRANCH  11  15
ATOM     15  C   UNL     1       6.061   3.131  11.704  0.00  0.00    +0.000 C 
ATOM     16  C   UNL     1       4.617   2.872  11.271  0.00  0.00    +0.000 C 
BRANCH  15  18
ATOM     17  C   UNL     1       6.154   0.658  11.074  0.00  0.00    +0.000 C 
ATOM     18  C   UNL     1       6.949   1.926  11.359  0.00  0.00    +0.000 C 
ENDBRANCH  15  18
ENDBRANCH  11  15
ENDBRANCH  10  12
ENDBRANCH   9  10
ENDBRANCH   7   9
ENDBRANCH   1   7
BRANCH   6  19
ATOM     19  N   UNL     1       4.956   3.898  18.467  0.00  0.00    +0.000 N 
ATOM     20  H   UNL     1       4.744   3.686  17.492  0.00  0.00    +0.000 HD
BRANCH  19  21
ATOM     21  C   UNL     1       3.841   3.777  19.334  0.00  0.00    +0.000 A 
ATOM     22  C   UNL     1       3.800   2.749  20.293  0.00  0.00    +0.000 A 
ATOM     23  C   UNL     1       2.801   2.699  21.266  0.00  0.00    +0.000 A 
ATOM     24  C   UNL     1       1.796   3.662  21.275  0.00  0.00    +0.000 A 
ATOM     25  C   UNL     1       1.774   4.647  20.283  0.00  0.00    +0.000 A 
ATOM     26  C   UNL     1       2.785   4.694  19.325  0.00  0.00    +0.000 A 
ATOM     27  F   UNL     1       2.755   5.668  18.401  0.00  0.00    +0.000 F 
ENDBRANCH  19  21
ENDBRANCH   6  19
TORSDOF 8
ENDMDL
MODEL 3
REMARK VINA RESULT:      -8.0      2.819      4.500
REMARK  Name = 
REMARK  10 active torsions:
REMARK  status: ('A' for Active; 'I' for Inactive)
REMARK    1  A    between atoms: C_1  and  C_2
REMARK    2  A    between atoms: C_2  and  C_3
REMARK    3  A    between atoms: C_3  and  C_4
REMARK    4  A    between atoms: C_3  and  N_5
REMARK    5  A    between atoms: C_6  and  C_8
REMARK    6  A    between atoms: C_8  and  O_9
REMARK    7  A    between atoms: O_9  and  C_10
REMARK    8  A    between atoms: C_10  and  C_12
REMARK    9  A    between atoms: C_17  and  N_18
REMARK   10  A    between atoms: N_18  and  C_19
REMARK                            x       y       z     vdW  Elec       q    Type
REMARK                         _______ _______ _______ _____ _____    ______ ____
ROOT
ATOM      1  C   UNL     1       3.077   3.838  18.646  0.00  0.00    +0.000 A 
ATOM      2  C   UNL     1       2.406   2.693  18.183  0.00  0.00    +0.000 A 
ATOM      3  C   UNL     1       1.172   2.342  18.715  0.00  0.00    +0.000 A 
ATOM      4  C   UNL     1       0.649   3.148  19.700  0.00  0.00    +0.000 A 
ATOM      5  N   UNL     1       1.254   4.269  20.135  0.00  0.00    +0.000 NA
ATOM      6  C   UNL     1       2.455   4.639  19.610  0.00  0.00    +0.000 A 
ENDROOT
BRANCH   1   7
ATOM      7  C   UNL     1       4.434   4.148  18.143  0.00  0.00    +0.000 C 
ATOM      8  O   UNL     1       5.449   4.073  18.812  0.00  0.00    +0.000 OA
BRANCH   7   9
ATOM      9  O   UNL     1       4.377   4.449  16.822  0.00  0.00    +0.000 OA
BRANCH   9  10
ATOM     10  C   UNL     1       5.362   5.370  16.353  0.00  0.00    +0.000 C 
BRANCH  10  12
ATOM     11  N   UNL     1       5.669   4.347  14.161  0.00  0.00    +0.000 N 
ATOM     12  C   UNL     1       6.296   4.752  15.319  0.00  0.00    +0.000 C 
ATOM     13  O   UNL     1       7.499   4.623  15.523  0.00  0.00    +0.000 OA
ATOM     14  H   UNL     1       4.657   4.434  14.101  0.00  0.00    +0.000 HD
BRANCH  11  15
ATOM     15  C   UNL     1       6.398   3.727  13.066  0.00  0.00    +0.000 C 
ATOM     16  C   UNL     1       7.257   4.778  12.362  0.00  0.00    +0.000 C 
BRANCH  15  18
ATOM     17  C   UNL     1       6.049   1.825  11.398  0.00  0.00    +0.000 C 
ATOM     18  C   UNL     1       5.445   3.054  12.067  0.00  0.00    +0.000 C 
ENDBRANCH  15  18
ENDBRANCH  11  15
ENDBRANCH  10  12
ENDBRANCH   9  10
ENDBRANCH   7   9
ENDBRANCH   1   7
BRANCH   6  19
ATOM     19  N   UNL     1       2.983   5.890  20.007  0.00  0.00    +0.000 N 
ATOM     20  H   UNL     1       3.242   5.902  20.994  0.00  0.00    +0.000 HD
BRANCH  19  21
ATOM     21  C   UNL     1       2.493   7.130  19.528  0.00  0.00    +0.000 A 
ATOM     22  C   UNL     1       2.746   7.525  18.202  0.00  0.00    +0.000 A 
ATOM     23  C   UNL     1       2.143   8.657  17.651  0.00  0.00    +0.000 A 
ATOM     24  C   UNL     1       1.300   9.441  18.433  0.00  0.00    +0.000 A 
ATOM     25  C   UNL     1       1.097   9.110  19.775  0.00  0.00    +0.000 A 
ATOM     26  C   UNL     1       1.693   7.970  20.310  0.00  0.00    +0.000 A 
ATOM     27  F   UNL     1       1.458   7.660  21.595  0.00  0.00    +0.000 F 
ENDBRANCH  19  21
ENDBRANCH   6  19
TORSDOF 8
ENDMDL
MODEL 4
REMARK VINA RESULT:      -7.9      2.890      4.704
REMARK  Name = 
REMARK  10 active torsions:
REMARK  status: ('A' for Active; 'I' for Inactive)
REMARK    1  A    between atoms: C_1  and  C_2
REMARK    2  A    between atoms: C_2  and  C_3
REMARK    3  A    between atoms: C_3  and  C_4
REMARK    4  A    between atoms: C_3  and  N_5
REMARK    5  A    between atoms: C_6  and  C_8
REMARK    6  A    between atoms: C_8  and  O_9
REMARK    7  A    between atoms: O_9  and  C_10
REMARK    8  A    between atoms: C_10  and  C_12
REMARK    9  A    between atoms: C_17  and  N_18
REMARK   10  A    between atoms: N_18  and  C_19
REMARK                            x       y       z     vdW  Elec       q    Type
REMARK                         _______ _______ _______ _____ _____    ______ ____
ROOT
ATOM      1  C   UNL     1       3.236   3.826  19.268  0.00  0.00    +0.000 A 
ATOM      2  C   UNL     1       2.604   2.595  19.018  0.00  0.00    +0.000 A 
ATOM      3  C   UNL     1       1.315   2.364  19.478  0.00  0.00    +0.000 A 
ATOM      4  C   UNL     1       0.697   3.372  20.181  0.00  0.00    +0.000 A 
ATOM      5  N   UNL     1       1.266   4.572  20.403  0.00  0.00    +0.000 NA
ATOM      6  C   UNL     1       2.522   4.823  19.940  0.00  0.00    +0.000 A 
ENDROOT
BRANCH   1   7
ATOM      7  C   UNL     1       4.643   4.027  18.858  0.00  0.00    +0.000 C 
ATOM      8  O   UNL     1       5.605   3.588  19.464  0.00  0.00    +0.000 OA
BRANCH   7   9
ATOM      9  O   UNL     1       4.689   4.699  17.681  0.00  0.00    +0.000 OA
BRANCH   9  10
ATOM     10  C   UNL     1       5.880   5.447  17.441  0.00  0.00    +0.000 C 
BRANCH  10  12
ATOM     11  N   UNL     1       6.100   4.735  15.119  0.00  0.00    +0.000 N 
ATOM     12  C   UNL     1       6.738   4.842  16.336  0.00  0.00    +0.000 C 
ATOM     13  O   UNL     1       7.892   4.475  16.534  0.00  0.00    +0.000 OA
ATOM     14  H   UNL     1       5.121   5.007  15.059  0.00  0.00    +0.000 HD
BRANCH  11  15
ATOM     15  C   UNL     1       6.758   4.174  13.950  0.00  0.00    +0.000 C 
ATOM     16  C   UNL     1       7.541   5.269  13.226  0.00  0.00    +0.000 C 
BRANCH  15  18
ATOM     17  C   UNL     1       6.403   2.852  11.794  0.00  0.00    +0.000 C 
ATOM     18  C   UNL     1       5.747   3.516  12.999  0.00  0.00    +0.000 C 
ENDBRANCH  15  18
ENDBRANCH  11  15
ENDBRANCH  10  12
ENDBRANCH   9  10
ENDBRANCH   7   9
ENDBRANCH   1   7
BRANCH   6  19
ATOM     19  N   UNL     1       3.019   6.140  20.087  0.00  0.00    +0.000 N 
ATOM     20  H   UNL     1       3.548   6.258  20.951  0.00  0.00    +0.000 HD
BRANCH  19  21
ATOM     21  C   UNL     1       2.295   7.294  19.696  0.00  0.00    +0.000 A 
ATOM     22  C   UNL     1       1.531   8.002  20.640  0.00  0.00    +0.000 A 
ATOM     23  C   UNL     1       0.940   9.228  20.329  0.00  0.00    +0.000 A 
ATOM     24  C   UNL     1       1.073   9.754  19.047  0.00  0.00    +0.000 A 
ATOM     25  C   UNL     1       1.762   9.028  18.072  0.00  0.00    +0.000 A 
ATOM     26  C   UNL     1       2.359   7.812  18.398  0.00  0.00    +0.000 A 
ATOM     27  F   UNL     1       3.039   7.150  17.448  0.00  0.00    +0.000 F 
ENDBRANCH  19  21
ENDBRANCH   6  19
TORSDOF 8
ENDMDL
MODEL 5
REMARK VINA RESULT:      -7.9      2.422      3.509
REMARK  Name = 
REMARK  10 active torsions:
REMARK  status: ('A' for Active; 'I' for Inactive)
REMARK    1  A    between atoms: C_1  and  C_2
REMARK    2  A    between atoms: C_2  and  C_3
REMARK    3  A    between atoms: C_3  and  C_4
REMARK    4  A    between atoms: C_3  and  N_5
REMARK    5  A    between atoms: C_6  and  C_8
REMARK    6  A    between atoms: C_8  and  O_9
REMARK    7  A    between atoms: O_9  and  C_10
REMARK    8  A    between atoms: C_10  and  C_12
REMARK    9  A    between atoms: C_17  and  N_18
REMARK   10  A    between atoms: N_18  and  C_19
REMARK                            x       y       z     vdW  Elec       q    Type
REMARK                         _______ _______ _______ _____ _____    ______ ____
ROOT
ATOM      1  C   UNL     1       3.453   7.083  18.118  0.00  0.00    +0.000 A 
ATOM      2  C   UNL     1       3.152   8.270  17.429  0.00  0.00    +0.000 A 
ATOM      3  C   UNL     1       2.190   9.141  17.922  0.00  0.00    +0.000 A 
ATOM      4  C   UNL     1       1.554   8.794  19.091  0.00  0.00    +0.000 A 
ATOM      5  N   UNL     1       1.849   7.681  19.789  0.00  0.00    +0.000 NA
ATOM      6  C   UNL     1       2.804   6.826  19.331  0.00  0.00    +0.000 A 
ENDROOT
BRANCH   1   7
ATOM      7  C   UNL     1       4.407   6.115  17.534  0.00  0.00    +0.000 C 
ATOM      8  O   UNL     1       4.150   5.369  16.605  0.00  0.00    +0.000 OA
BRANCH   7   9
ATOM      9  O   UNL     1       5.617   6.242  18.134  0.00  0.00    +0.000 OA
BRANCH   9  10
ATOM     10  C   UNL     1       6.691   6.645  17.285  0.00  0.00    +0.000 C 
BRANCH  10  12
ATOM     11  N   UNL     1       6.819   5.644  15.065  0.00  0.00    +0.000 N 
ATOM     12  C   UNL     1       7.183   5.515  16.388  0.00  0.00    +0.000 C 
ATOM     13  O   UNL     1       7.836   4.572  16.826  0.00  0.00    +0.000 OA
ATOM     14  H   UNL     1       6.224   6.425  14.799  0.00  0.00    +0.000 HD
BRANCH  11  15
ATOM     15  C   UNL     1       7.191   4.657  14.064  0.00  0.00    +0.000 C 
ATOM     16  C   UNL     1       7.802   5.361  12.851  0.00  0.00    +0.000 C 
BRANCH  15  18
ATOM     17  C   UNL     1       6.080   3.306  12.203  0.00  0.00    +0.000 C 
ATOM     18  C   UNL     1       5.986   3.805  13.640  0.00  0.00    +0.000 C 
ENDBRANCH  15  18
ENDBRANCH  11  15
ENDBRANCH  10  12
ENDBRANCH   9  10
ENDBRANCH   7   9
ENDBRANCH   1   7
BRANCH   6  19
ATOM     19  N   UNL     1       3.165   5.743  20.167  0.00  0.00    +0.000 N 
ATOM     20  H   UNL     1       4.145   5.785  20.449  0.00  0.00    +0.000 HD
BRANCH  19  21
ATOM     21  C   UNL     1       2.676   4.425  19.989  0.00  0.00    +0.000 A 
ATOM     22  C   UNL     1       1.299   4.161  20.095  0.00  0.00    +0.000 A 
ATOM     23  C   UNL     1       0.768   2.913  19.766  0.00  0.00    +0.000 A 
ATOM     24  C   UNL     1       1.615   1.887  19.358  0.00  0.00    +0.000 A 
ATOM     25  C   UNL     1       2.995   2.105  19.320  0.00  0.00    +0.000 A 
ATOM     26  C   UNL     1       3.512   3.360  19.637  0.00  0.00    +0.000 A 
ATOM     27  F   UNL     1       4.840   3.548  19.566  0.00  0.00    +0.000 F 
ENDBRANCH  19  21
ENDBRANCH   6  19
TORSDOF 8
ENDMDL
MODEL 6
REMARK VINA RESULT:      -7.8      3.260      5.927
REMARK  Name = 
REMARK  10 active torsions:
REMARK  status: ('A' for Active; 'I' for Inactive)
REMARK    1  A    between atoms: C_1  and  C_2
REMARK    2  A    between atoms: C_2  and  C_3
REMARK    3  A    between atoms: C_3  and  C_4
REMARK    4  A    between atoms: C_3  and  N_5
REMARK    5  A    between atoms: C_6  and  C_8
REMARK    6  A    between atoms: C_8  and  O_9
REMARK    7  A    between atoms: O_9  and  C_10
REMARK    8  A    between atoms: C_10  and  C_12
REMARK    9  A    between atoms: C_17  and  N_18
REMARK   10  A    between atoms: N_18  and  C_19
REMARK                            x       y       z     vdW  Elec       q    Type
REMARK                         _______ _______ _______ _____ _____    ______ ____
ROOT
ATOM      1  C   UNL     1       2.914   3.671  18.893  0.00  0.00    +0.000 A 
ATOM      2  C   UNL     1       2.168   2.546  18.501  0.00  0.00    +0.000 A 
ATOM      3  C   UNL     1       0.896   2.337  19.015  0.00  0.00    +0.000 A 
ATOM      4  C   UNL     1       0.409   3.260  19.911  0.00  0.00    +0.000 A 
ATOM      5  N   UNL     1       1.088   4.364  20.275  0.00  0.00    +0.000 NA
ATOM      6  C   UNL     1       2.329   4.596  19.765  0.00  0.00    +0.000 A 
ENDROOT
BRANCH   1   7
ATOM      7  C   UNL     1       4.305   3.834  18.416  0.00  0.00    +0.000 C 
ATOM      8  O   UNL     1       5.287   3.412  19.001  0.00  0.00    +0.000 OA
BRANCH   7   9
ATOM      9  O   UNL     1       4.308   4.449  17.207  0.00  0.00    +0.000 OA
BRANCH   9  10
ATOM     10  C   UNL     1       5.323   4.023  16.297  0.00  0.00    +0.000 C 
BRANCH  10  12
ATOM     11  N   UNL     1       6.610   5.736  17.461  0.00  0.00    +0.000 N 
ATOM     12  C   UNL     1       6.581   4.879  16.382  0.00  0.00    +0.000 C 
ATOM     13  O   UNL     1       7.476   4.808  15.546  0.00  0.00    +0.000 OA
ATOM     14  H   UNL     1       5.796   5.776  18.071  0.00  0.00    +0.000 HD
BRANCH  11  15
ATOM     15  C   UNL     1       7.726   6.636  17.701  0.00  0.00    +0.000 C 
ATOM     16  C   UNL     1       8.222   6.468  19.138  0.00  0.00    +0.000 C 
BRANCH  15  18
ATOM     17  C   UNL     1       8.289   9.098  18.077  0.00  0.00    +0.000 C 
ATOM     18  C   UNL     1       7.337   8.098  17.434  0.00  0.00    +0.000 C 
ENDBRANCH  15  18
ENDBRANCH  11  15
ENDBRANCH  10  12
ENDBRANCH   9  10
ENDBRANCH   7   9
ENDBRANCH   1   7
BRANCH   6  19
ATOM     19  N   UNL     1       2.942   5.832  20.078  0.00  0.00    +0.000 N 
ATOM     20  H   UNL     1       3.242   5.877  21.052  0.00  0.00    +0.000 HD
BRANCH  19  21
ATOM     21  C   UNL     1       2.501   7.074  19.556  0.00  0.00    +0.000 A 
ATOM     22  C   UNL     1       2.833   7.446  18.242  0.00  0.00    +0.000 A 
ATOM     23  C   UNL     1       2.283   8.581  17.644  0.00  0.00    +0.000 A 
ATOM     24  C   UNL     1       1.412   9.391  18.368  0.00  0.00    +0.000 A 
ATOM     25  C   UNL     1       1.130   9.081  19.702  0.00  0.00    +0.000 A 
ATOM     26  C   UNL     1       1.675   7.938  20.283  0.00  0.00    +0.000 A 
ATOM     27  F   UNL     1       1.365   7.650  21.557  0.00  0.00    +0.000 F 
ENDBRANCH  19  21
ENDBRANCH   6  19
TORSDOF 8
ENDMDL
MODEL 7
REMARK VINA RESULT:      -7.8      3.349      5.943
REMARK  Name = 
REMARK  10 active torsions:
REMARK  status: ('A' for Active; 'I' for Inactive)
REMARK    1  A    between atoms: C_1  and  C_2
REMARK    2  A    between atoms: C_2  and  C_3
REMARK    3  A    between atoms: C_3  and  C_4
REMARK    4  A    between atoms: C_3  and  N_5
REMARK    5  A    between atoms: C_6  and  C_8
REMARK    6  A    between atoms: C_8  and  O_9
REMARK    7  A    between atoms: O_9  and  C_10
REMARK    8  A    between atoms: C_10  and  C_12
REMARK    9  A    between atoms: C_17  and  N_18
REMARK   10  A    between atoms: N_18  and  C_19
REMARK                            x       y       z     vdW  Elec       q    Type
REMARK                         _______ _______ _______ _____ _____    ______ ____
ROOT
ATOM      1  C   UNL     1       3.143   3.950  18.905  0.00  0.00    +0.000 A 
ATOM      2  C   UNL     1       2.574   2.756  18.429  0.00  0.00    +0.000 A 
ATOM      3  C   UNL     1       1.312   2.364  18.853  0.00  0.00    +0.000 A 
ATOM      4  C   UNL     1       0.657   3.178  19.747  0.00  0.00    +0.000 A 
ATOM      5  N   UNL     1       1.163   4.344  20.191  0.00  0.00    +0.000 NA
ATOM      6  C   UNL     1       2.391   4.754  19.769  0.00  0.00    +0.000 A 
ENDROOT
BRANCH   1   7
ATOM      7  C   UNL     1       4.526   4.310  18.524  0.00  0.00    +0.000 C 
ATOM      8  O   UNL     1       5.314   4.884  19.254  0.00  0.00    +0.000 OA
BRANCH   7   9
ATOM      9  O   UNL     1       4.798   3.838  17.281  0.00  0.00    +0.000 OA
BRANCH   9  10
ATOM     10  C   UNL     1       5.104   4.826  16.297  0.00  0.00    +0.000 C 
BRANCH  10  12
ATOM     11  N   UNL     1       6.523   6.535  17.303  0.00  0.00    +0.000 N 
ATOM     12  C   UNL     1       6.492   5.428  16.484  0.00  0.00    +0.000 C 
ATOM     13  O   UNL     1       7.485   4.960  15.934  0.00  0.00    +0.000 OA
ATOM     14  H   UNL     1       5.643   6.893  17.668  0.00  0.00    +0.000 HD
BRANCH  11  15
ATOM     15  C   UNL     1       7.757   7.247  17.591  0.00  0.00    +0.000 C 
ATOM     16  C   UNL     1       8.299   6.806  18.951  0.00  0.00    +0.000 C 
BRANCH  15  18
ATOM     17  C   UNL     1       8.617   9.535  18.331  0.00  0.00    +0.000 C 
ATOM     18  C   UNL     1       7.547   8.768  17.562  0.00  0.00    +0.000 C 
ENDBRANCH  15  18
ENDBRANCH  11  15
ENDBRANCH  10  12
ENDBRANCH   9  10
ENDBRANCH   7   9
ENDBRANCH   1   7
BRANCH   6  19
ATOM     19  N   UNL     1       2.818   6.045  20.163  0.00  0.00    +0.000 N 
ATOM     20  H   UNL     1       3.129   6.067  21.134  0.00  0.00    +0.000 HD
BRANCH  19  21
ATOM     21  C   UNL     1       2.185   7.238  19.735  0.00  0.00    +0.000 A 
ATOM     22  C   UNL     1       1.447   8.013  20.647  0.00  0.00    +0.000 A 
ATOM     23  C   UNL     1       0.951   9.271  20.301  0.00  0.00    +0.000 A 
ATOM     24  C   UNL     1       1.153   9.764  19.016  0.00  0.00    +0.000 A 
ATOM     25  C   UNL     1       1.816   8.977  18.071  0.00  0.00    +0.000 A 
ATOM     26  C   UNL     1       2.319   7.729  18.432  0.00  0.00    +0.000 A 
ATOM     27  F   UNL     1       2.977   7.005  17.511  0.00  0.00    +0.000 F 
ENDBRANCH  19  21
ENDBRANCH   6  19
TORSDOF 8
ENDMDL
MODEL 8
REMARK VINA RESULT:      -7.8      3.004      4.421
REMARK  Name = 
REMARK  10 active torsions:
REMARK  status: ('A' for Active; 'I' for Inactive)
REMARK    1  A    between atoms: C_1  and  C_2
REMARK    2  A    between atoms: C_2  and  C_3
REMARK    3  A    between atoms: C_3  and  C_4
REMARK    4  A    between atoms: C_3  and  N_5
REMARK    5  A    between atoms: C_6  and  C_8
REMARK    6  A    between atoms: C_8  and  O_9
REMARK    7  A    between atoms: O_9  and  C_10
REMARK    8  A    between atoms: C_10  and  C_12
REMARK    9  A    between atoms: C_17  and  N_18
REMARK   10  A    between atoms: N_18  and  C_19
REMARK                            x       y       z     vdW  Elec       q    Type
REMARK                         _______ _______ _______ _____ _____    ______ ____
ROOT
ATOM      1  C   UNL     1       2.833   4.478  18.344  0.00  0.00    +0.000 A 
ATOM      2  C   UNL     1       2.153   3.291  18.023  0.00  0.00    +0.000 A 
ATOM      3  C   UNL     1       1.099   2.852  18.813  0.00  0.00    +0.000 A 
ATOM      4  C   UNL     1       0.760   3.615  19.906  0.00  0.00    +0.000 A 
ATOM      5  N   UNL     1       1.371   4.775  20.215  0.00  0.00    +0.000 NA
ATOM      6  C   UNL     1       2.393   5.230  19.439  0.00  0.00    +0.000 A 
ENDROOT
BRANCH   1   7
ATOM      7  C   UNL     1       4.016   4.885  17.554  0.00  0.00    +0.000 C 
ATOM      8  O   UNL     1       4.639   5.918  17.729  0.00  0.00    +0.000 OA
BRANCH   7   9
ATOM      9  O   UNL     1       4.338   3.907  16.671  0.00  0.00    +0.000 OA
BRANCH   9  10
ATOM     10  C   UNL     1       5.684   3.922  16.194  0.00  0.00    +0.000 C 
BRANCH  10  12
ATOM     11  N   UNL     1       5.875   3.334  13.835  0.00  0.00    +0.000 N 
ATOM     12  C   UNL     1       5.782   4.369  14.740  0.00  0.00    +0.000 C 
ATOM     13  O   UNL     1       5.789   5.555  14.421  0.00  0.00    +0.000 OA
ATOM     14  H   UNL     1       5.926   2.382  14.190  0.00  0.00    +0.000 HD
BRANCH  11  15
ATOM     15  C   UNL     1       5.986   3.568  12.404  0.00  0.00    +0.000 C 
ATOM     16  C   UNL     1       4.614   3.405  11.750  0.00  0.00    +0.000 C 
BRANCH  15  18
ATOM     17  C   UNL     1       6.364   1.399  11.111  0.00  0.00    +0.000 C 
ATOM     18  C   UNL     1       7.007   2.620  11.757  0.00  0.00    +0.000 C 
ENDBRANCH  15  18
ENDBRANCH  11  15
ENDBRANCH  10  12
ENDBRANCH   9  10
ENDBRANCH   7   9
ENDBRANCH   1   7
BRANCH   6  19
ATOM     19  N   UNL     1       2.912   6.514  19.732  0.00  0.00    +0.000 N 
ATOM     20  H   UNL     1       3.429   6.528  20.611  0.00  0.00    +0.000 HD
BRANCH  19  21
ATOM     21  C   UNL     1       2.214   7.716  19.457  0.00  0.00    +0.000 A 
ATOM     22  C   UNL     1       2.189   8.236  18.151  0.00  0.00    +0.000 A 
ATOM     23  C   UNL     1       1.382   9.324  17.814  0.00  0.00    +0.000 A 
ATOM     24  C   UNL     1       0.606   9.939  18.792  0.00  0.00    +0.000 A 
ATOM     25  C   UNL     1       0.676   9.486  20.113  0.00  0.00    +0.000 A 
ATOM     26  C   UNL     1       1.476   8.392  20.435  0.00  0.00    +0.000 A 
ATOM     27  F   UNL     1       1.502   7.961  21.706  0.00  0.00    +0.000 F 
ENDBRANCH  19  21
ENDBRANCH   6  19
TORSDOF 8
ENDMDL
MODEL 9
REMARK VINA RESULT:      -7.7      3.119      4.887
REMARK  Name = 
REMARK  10 active torsions:
REMARK  status: ('A' for Active; 'I' for Inactive)
REMARK    1  A    between atoms: C_1  and  C_2
REMARK    2  A    between atoms: C_2  and  C_3
REMARK    3  A    between atoms: C_3  and  C_4
REMARK    4  A    between atoms: C_3  and  N_5
REMARK    5  A    between atoms: C_6  and  C_8
REMARK    6  A    between atoms: C_8  and  O_9
REMARK    7  A    between atoms: O_9  and  C_10
REMARK    8  A    between atoms: C_10  and  C_12
REMARK    9  A    between atoms: C_17  and  N_18
REMARK   10  A    between atoms: N_18  and  C_19
REMARK                            x       y       z     vdW  Elec       q    Type
REMARK                         _______ _______ _______ _____ _____    ______ ____
ROOT
ATOM      1  C   UNL     1       2.766   4.381  18.721  0.00  0.00    +0.000 A 
ATOM      2  C   UNL     1       2.089   3.181  18.443  0.00  0.00    +0.000 A 
ATOM      3  C   UNL     1       1.065   2.746  19.273  0.00  0.00    +0.000 A 
ATOM      4  C   UNL     1       0.751   3.526  20.362  0.00  0.00    +0.000 A 
ATOM      5  N   UNL     1       1.360   4.697  20.631  0.00  0.00    +0.000 NA
ATOM      6  C   UNL     1       2.352   5.148  19.815  0.00  0.00    +0.000 A 
ENDROOT
BRANCH   1   7
ATOM      7  C   UNL     1       3.919   4.785  17.887  0.00  0.00    +0.000 C 
ATOM      8  O   UNL     1       3.827   5.367  16.821  0.00  0.00    +0.000 OA
BRANCH   7   9
ATOM      9  O   UNL     1       5.077   4.478  18.523  0.00  0.00    +0.000 OA
BRANCH   9  10
ATOM     10  C   UNL     1       6.206   5.280  18.175  0.00  0.00    +0.000 C 
BRANCH  10  12
ATOM     11  N   UNL     1       6.363   4.810  15.787  0.00  0.00    +0.000 N 
ATOM     12  C   UNL     1       6.995   4.700  17.006  0.00  0.00    +0.000 C 
ATOM     13  O   UNL     1       8.094   4.174  17.158  0.00  0.00    +0.000 OA
ATOM     14  H   UNL     1       5.425   5.204  15.761  0.00  0.00    +0.000 HD
BRANCH  11  15
ATOM     15  C   UNL     1       6.959   4.306  14.561  0.00  0.00    +0.000 C 
ATOM     16  C   UNL     1       7.665   5.447  13.827  0.00  0.00    +0.000 C 
BRANCH  15  18
ATOM     17  C   UNL     1       6.372   3.504  12.209  0.00  0.00    +0.000 C 
ATOM     18  C   UNL     1       5.908   3.651  13.653  0.00  0.00    +0.000 C 
ENDBRANCH  15  18
ENDBRANCH  11  15
ENDBRANCH  10  12
ENDBRANCH   9  10
ENDBRANCH   7   9
ENDBRANCH   1   7
BRANCH   6  19
ATOM     19  N   UNL     1       2.866   6.442  20.068  0.00  0.00    +0.000 N 
ATOM     20  H   UNL     1       3.308   6.508  20.985  0.00  0.00    +0.000 HD
BRANCH  19  21
ATOM     21  C   UNL     1       2.214   7.632  19.659  0.00  0.00    +0.000 A 
ATOM     22  C   UNL     1       2.315   8.071  18.327  0.00  0.00    +0.000 A 
ATOM     23  C   UNL     1       1.558   9.143  17.853  0.00  0.00    +0.000 A 
ATOM     24  C   UNL     1       0.707   9.825  18.718  0.00  0.00    +0.000 A 
ATOM     25  C   UNL     1       0.650   9.454  20.064  0.00  0.00    +0.000 A 
ATOM     26  C   UNL     1       1.401   8.373  20.523  0.00  0.00    +0.000 A 
ATOM     27  F   UNL     1       1.306   8.022  21.815  0.00  0.00    +0.000 F 
ENDBRANCH  19  21
ENDBRANCH   6  19
TORSDOF 8
ENDMDL
