MODEL 1
REMARK VINA RESULT:      -7.8      0.000      0.000
REMARK  Name = 
REMARK  10 active torsions:
REMARK  status: ('A' for Active; 'I' for Inactive)
REMARK    1  A    between atoms: C_1  and  C_2
REMARK    2  A    between atoms: C_5  and  O_6
REMARK    3  A    between atoms: O_6  and  C_7
REMARK    4  A    between atoms: C_7  and  C_8
REMARK    5  A    between atoms: C_8  and  N_9
REMARK    6  A    between atoms: C_10  and  C_12
REMARK    7  A    between atoms: C_12  and  N_13
REMARK    8  A    between atoms: C_14  and  C_16
REMARK    9  A    between atoms: C_19  and  C_20
REMARK   10  A    between atoms: C_21  and  C_22
REMARK                            x       y       z     vdW  Elec       q    Type
REMARK                         _______ _______ _______ _____ _____    ______ ____
ROOT
ATOM      1  N   UNL     1       7.897   7.196  18.229  0.00  0.00    +0.000 N 
ATOM      2  C   UNL     1       7.620   6.190  17.328  0.00  0.00    +0.000 C 
ATOM      3  O   UNL     1       7.416   6.386  16.133  0.00  0.00    +0.000 OA
ATOM      4  H   UNL     1       8.391   6.914  19.076  0.00  0.00    +0.000 HD
ENDROOT
BRANCH   1   5
ATOM      5  C   UNL     1       7.985   8.578  17.789  0.00  0.00    +0.000 C 
BRANCH   5   6
ATOM      6  C   UNL     1       9.018   9.388  18.570  0.00  0.00    +0.000 C 
BRANCH   6   7
ATOM      7  O   UNL     1       8.507  10.706  18.784  0.00  0.00    +0.000 OA
BRANCH   7  12
ATOM      8  C   UNL     1      11.458  15.210  16.977  0.00  0.00    +0.000 C 
ATOM      9  C   UNL     1      10.690  14.009  17.441  0.00  0.00    +0.000 A 
ATOM     10  C   UNL     1       9.352  14.111  17.832  0.00  0.00    +0.000 A 
ATOM     11  C   UNL     1       8.657  12.982  18.274  0.00  0.00    +0.000 A 
ATOM     12  C   UNL     1       9.280  11.733  18.315  0.00  0.00    +0.000 A 
ATOM     13  C   UNL     1      10.619  11.628  17.937  0.00  0.00    +0.000 A 
ATOM     14  C   UNL     1      11.319  12.758  17.502  0.00  0.00    +0.000 A 
ENDBRANCH   7  12
ENDBRANCH   6   7
ENDBRANCH   5   6
ENDBRANCH   1   5
BRANCH   2  15
ATOM     15  C   UNL     1       7.691   4.783  17.918  0.00  0.00    +0.000 C 
BRANCH  15  16
ATOM     16  N   UNL     1       6.370   4.193  17.969  0.00  0.00    +0.000 N 
ATOM     17  C   UNL     1       5.458   4.576  18.932  0.00  0.00    +0.000 C 
ATOM     18  O   UNL     1       5.721   5.408  19.795  0.00  0.00    +0.000 OA
ATOM     19  H   UNL     1       6.246   3.298  17.512  0.00  0.00    +0.000 HD
BRANCH  17  20
ATOM     20  C   UNL     1       4.132   3.893  18.893  0.00  0.00    +0.000 A 
ATOM     21  C   UNL     1       3.550   3.487  17.695  0.00  0.00    +0.000 A 
ATOM     22  C   UNL     1       2.288   2.881  17.698  0.00  0.00    +0.000 A 
ATOM     23  C   UNL     1       1.588   2.675  18.899  0.00  0.00    +0.000 A 
ATOM     24  C   UNL     1       0.225   2.039  18.844  0.00  0.00    +0.000 C 
ATOM     25  C   UNL     1       2.176   3.081  20.112  0.00  0.00    +0.000 A 
ATOM     26  C   UNL     1       1.526   2.865  21.453  0.00  0.00    +0.000 C 
ATOM     27  C   UNL     1       3.440   3.702  20.093  0.00  0.00    +0.000 A 
ENDBRANCH  17  20
ENDBRANCH  15  16
ENDBRANCH   2  15
TORSDOF 7
ENDMDL
MODEL 2
REMARK VINA RESULT:      -7.7      3.622      4.070
REMARK  Name = 
REMARK  10 active torsions:
REMARK  status: ('A' for Active; 'I' for Inactive)
REMARK    1  A    between atoms: C_1  and  C_2
REMARK    2  A    between atoms: C_5  and  O_6
REMARK    3  A    between atoms: O_6  and  C_7
REMARK    4  A    between atoms: C_7  and  C_8
REMARK    5  A    between atoms: C_8  and  N_9
REMARK    6  A    between atoms: C_10  and  C_12
REMARK    7  A    between atoms: C_12  and  N_13
REMARK    8  A    between atoms: C_14  and  C_16
REMARK    9  A    between atoms: C_19  and  C_20
REMARK   10  A    between atoms: C_21  and  C_22
REMARK                            x       y       z     vdW  Elec       q    Type
REMARK                         _______ _______ _______ _____ _____    ______ ____
ROOT
ATOM      1  N   UNL     1       6.724   7.495  17.558  0.00  0.00    +0.000 N 
ATOM      2  C   UNL     1       6.487   6.554  16.578  0.00  0.00    +0.000 C 
ATOM      3  O   UNL     1       7.377   5.974  15.963  0.00  0.00    +0.000 OA
ATOM      4  H   UNL     1       5.971   7.638  18.231  0.00  0.00    +0.000 HD
ENDROOT
BRANCH   1   5
ATOM      5  C   UNL     1       8.084   7.839  17.936  0.00  0.00    +0.000 C 
BRANCH   5   6
ATOM      6  C   UNL     1       8.320   9.347  18.005  0.00  0.00    +0.000 C 
BRANCH   6   7
ATOM      7  O   UNL     1       8.980   9.656  19.235  0.00  0.00    +0.000 OA
BRANCH   7  12
ATOM      8  C   UNL     1      12.246  14.284  18.814  0.00  0.00    +0.000 C 
ATOM      9  C   UNL     1      11.394  13.057  18.943  0.00  0.00    +0.000 A 
ATOM     10  C   UNL     1      10.932  12.375  17.814  0.00  0.00    +0.000 A 
ATOM     11  C   UNL     1      10.127  11.240  17.955  0.00  0.00    +0.000 A 
ATOM     12  C   UNL     1       9.788  10.760  19.221  0.00  0.00    +0.000 A 
ATOM     13  C   UNL     1      10.238  11.445  20.351  0.00  0.00    +0.000 A 
ATOM     14  C   UNL     1      11.036  12.585  20.212  0.00  0.00    +0.000 A 
ENDBRANCH   7  12
ENDBRANCH   6   7
ENDBRANCH   5   6
ENDBRANCH   1   5
BRANCH   2  15
ATOM     15  C   UNL     1       5.012   6.207  16.387  0.00  0.00    +0.000 C 
BRANCH  15  16
ATOM     16  N   UNL     1       4.190   6.994  17.283  0.00  0.00    +0.000 N 
ATOM     17  C   UNL     1       3.174   6.409  18.012  0.00  0.00    +0.000 C 
ATOM     18  O   UNL     1       2.903   5.215  17.925  0.00  0.00    +0.000 OA
ATOM     19  H   UNL     1       4.161   7.993  17.125  0.00  0.00    +0.000 HD
BRANCH  17  20
ATOM     20  C   UNL     1       2.389   7.320  18.895  0.00  0.00    +0.000 A 
ATOM     21  C   UNL     1       2.028   6.957  20.190  0.00  0.00    +0.000 A 
ATOM     22  C   UNL     1       1.260   7.826  20.974  0.00  0.00    +0.000 A 
ATOM     23  C   UNL     1       0.840   9.070  20.474  0.00  0.00    +0.000 A 
ATOM     24  C   UNL     1      -0.003   9.957  21.352  0.00  0.00    +0.000 C 
ATOM     25  C   UNL     1       1.207   9.442  19.167  0.00  0.00    +0.000 A 
ATOM     26  C   UNL     1       0.843  10.770  18.557  0.00  0.00    +0.000 C 
ATOM     27  C   UNL     1       1.967   8.552  18.384  0.00  0.00    +0.000 A 
ENDBRANCH  17  20
ENDBRANCH  15  16
ENDBRANCH   2  15
TORSDOF 7
ENDMDL
MODEL 3
REMARK VINA RESULT:      -7.6      3.523      3.866
REMARK  Name = 
REMARK  10 active torsions:
REMARK  status: ('A' for Active; 'I' for Inactive)
REMARK    1  A    between atoms: C_1  and  C_2
REMARK    2  A    between atoms: C_5  and  O_6
REMARK    3  A    between atoms: O_6  and  C_7
REMARK    4  A    between atoms: C_7  and  C_8
REMARK    5  A    between atoms: C_8  and  N_9
REMARK    6  A    between atoms: C_10  and  C_12
REMARK    7  A    between atoms: C_12  and  N_13
REMARK    8  A    between atoms: C_14  and  C_16
REMARK    9  A    between atoms: C_19  and  C_20
REMARK   10  A    between atoms: C_21  and  C_22
REMARK                            x       y       z     vdW  Elec       q    Type
REMARK                         _______ _______ _______ _____ _____    ______ ____
ROOT
ATOM      1  N   UNL     1       6.691   6.631  18.089  0.00  0.00    +0.000 N 
ATOM      2  C   UNL     1       6.759   5.307  18.468  0.00  0.00    +0.000 C 
ATOM      3  O   UNL     1       7.760   4.611  18.325  0.00  0.00    +0.000 OA
ATOM      4  H   UNL     1       5.984   7.195  18.562  0.00  0.00    +0.000 HD
ENDROOT
BRANCH   1   5
ATOM      5  C   UNL     1       7.846   7.293  17.507  0.00  0.00    +0.000 C 
BRANCH   5   6
ATOM      6  C   UNL     1       7.895   8.788  17.816  0.00  0.00    +0.000 C 
BRANCH   6   7
ATOM      7  O   UNL     1       8.701   8.993  18.979  0.00  0.00    +0.000 OA
BRANCH   7  12
ATOM      8  C   UNL     1      11.304  13.981  19.757  0.00  0.00    +0.000 C 
ATOM      9  C   UNL     1      10.609  12.672  19.533  0.00  0.00    +0.000 A 
ATOM     10  C   UNL     1      10.184  11.886  20.608  0.00  0.00    +0.000 A 
ATOM     11  C   UNL     1       9.548  10.661  20.380  0.00  0.00    +0.000 A 
ATOM     12  C   UNL     1       9.312  10.213  19.078  0.00  0.00    +0.000 A 
ATOM     13  C   UNL     1       9.745  10.990  18.002  0.00  0.00    +0.000 A 
ATOM     14  C   UNL     1      10.388  12.211  18.229  0.00  0.00    +0.000 A 
ENDBRANCH   7  12
ENDBRANCH   6   7
ENDBRANCH   5   6
ENDBRANCH   1   5
BRANCH   2  15
ATOM     15  C   UNL     1       5.510   4.795  19.183  0.00  0.00    +0.000 C 
BRANCH  15  16
ATOM     16  N   UNL     1       4.553   5.867  19.352  0.00  0.00    +0.000 N 
ATOM     17  C   UNL     1       3.614   6.141  18.378  0.00  0.00    +0.000 C 
ATOM     18  O   UNL     1       3.556   5.514  17.324  0.00  0.00    +0.000 OA
ATOM     19  H   UNL     1       4.784   6.592  20.020  0.00  0.00    +0.000 HD
BRANCH  17  20
ATOM     20  C   UNL     1       2.685   7.275  18.658  0.00  0.00    +0.000 A 
ATOM     21  C   UNL     1       2.344   8.204  17.679  0.00  0.00    +0.000 A 
ATOM     22  C   UNL     1       1.497   9.274  17.991  0.00  0.00    +0.000 A 
ATOM     23  C   UNL     1       0.980   9.431  19.288  0.00  0.00    +0.000 A 
ATOM     24  C   UNL     1       0.090  10.611  19.576  0.00  0.00    +0.000 C 
ATOM     25  C   UNL     1       1.319   8.490  20.279  0.00  0.00    +0.000 A 
ATOM     26  C   UNL     1       0.782   8.548  21.685  0.00  0.00    +0.000 C 
ATOM     27  C   UNL     1       2.184   7.427  19.954  0.00  0.00    +0.000 A 
ENDBRANCH  17  20
ENDBRANCH  15  16
ENDBRANCH   2  15
TORSDOF 7
ENDMDL
MODEL 4
REMARK VINA RESULT:      -7.5      4.113      6.946
REMARK  Name = 
REMARK  10 active torsions:
REMARK  status: ('A' for Active; 'I' for Inactive)
REMARK    1  A    between atoms: C_1  and  C_2
REMARK    2  A    between atoms: C_5  and  O_6
REMARK    3  A    between atoms: O_6  and  C_7
REMARK    4  A    between atoms: C_7  and  C_8
REMARK    5  A    between atoms: C_8  and  N_9
REMARK    6  A    between atoms: C_10  and  C_12
REMARK    7  A    between atoms: C_12  and  N_13
REMARK    8  A    between atoms: C_14  and  C_16
REMARK    9  A    between atoms: C_19  and  C_20
REMARK   10  A    between atoms: C_21  and  C_22
REMARK                            x       y       z     vdW  Elec       q    Type
REMARK                         _______ _______ _______ _____ _____    ______ ____
ROOT
ATOM      1  N   UNL     1       2.357   3.793  18.466  0.00  0.00    +0.000 N 
ATOM      2  C   UNL     1       2.023   3.072  19.594  0.00  0.00    +0.000 C 
ATOM      3  O   UNL     1       1.986   1.846  19.630  0.00  0.00    +0.000 OA
ATOM      4  H   UNL     1       2.703   4.739  18.627  0.00  0.00    +0.000 HD
ENDROOT
BRANCH   1   5
ATOM      5  C   UNL     1       2.716   3.110  17.234  0.00  0.00    +0.000 C 
BRANCH   5   6
ATOM      6  C   UNL     1       4.010   3.638  16.616  0.00  0.00    +0.000 C 
BRANCH   6   7
ATOM      7  O   UNL     1       5.029   3.649  17.618  0.00  0.00    +0.000 OA
BRANCH   7  12
ATOM      8  C   UNL     1       7.959   8.514  17.702  0.00  0.00    +0.000 C 
ATOM      9  C   UNL     1       7.204   7.220  17.682  0.00  0.00    +0.000 A 
ATOM     10  C   UNL     1       6.008   7.091  16.970  0.00  0.00    +0.000 A 
ATOM     11  C   UNL     1       5.311   5.878  16.973  0.00  0.00    +0.000 A 
ATOM     12  C   UNL     1       5.806   4.775  17.670  0.00  0.00    +0.000 A 
ATOM     13  C   UNL     1       6.994   4.902  18.392  0.00  0.00    +0.000 A 
ATOM     14  C   UNL     1       7.688   6.116  18.396  0.00  0.00    +0.000 A 
ENDBRANCH   7  12
ENDBRANCH   6   7
ENDBRANCH   5   6
ENDBRANCH   1   5
BRANCH   2  15
ATOM     15  C   UNL     1       1.800   3.927  20.839  0.00  0.00    +0.000 C 
BRANCH  15  16
ATOM     16  N   UNL     1       1.461   5.284  20.464  0.00  0.00    +0.000 N 
ATOM     17  C   UNL     1       2.435   6.168  20.043  0.00  0.00    +0.000 C 
ATOM     18  O   UNL     1       3.623   5.863  19.987  0.00  0.00    +0.000 OA
ATOM     19  H   UNL     1       0.587   5.656  20.813  0.00  0.00    +0.000 HD
BRANCH  17  20
ATOM     20  C   UNL     1       1.970   7.541  19.690  0.00  0.00    +0.000 A 
ATOM     21  C   UNL     1       2.223   8.104  18.443  0.00  0.00    +0.000 A 
ATOM     22  C   UNL     1       1.801   9.409  18.163  0.00  0.00    +0.000 A 
ATOM     23  C   UNL     1       1.122  10.171  19.129  0.00  0.00    +0.000 A 
ATOM     24  C   UNL     1       0.709  11.578  18.783  0.00  0.00    +0.000 C 
ATOM     25  C   UNL     1       0.861   9.604  20.390  0.00  0.00    +0.000 A 
ATOM     26  C   UNL     1       0.104  10.323  21.475  0.00  0.00    +0.000 C 
ATOM     27  C   UNL     1       1.304   8.295  20.662  0.00  0.00    +0.000 A 
ENDBRANCH  17  20
ENDBRANCH  15  16
ENDBRANCH   2  15
TORSDOF 7
ENDMDL
MODEL 5
REMARK VINA RESULT:      -7.5      1.782      2.173
REMARK  Name = 
REMARK  10 active torsions:
REMARK  status: ('A' for Active; 'I' for Inactive)
REMARK    1  A    between atoms: C_1  and  C_2
REMARK    2  A    between atoms: C_5  and  O_6
REMARK    3  A    between atoms: O_6  and  C_7
REMARK    4  A    between atoms: C_7  and  C_8
REMARK    5  A    between atoms: C_8  and  N_9
REMARK    6  A    between atoms: C_10  and  C_12
REMARK    7  A    between atoms: C_12  and  N_13
REMARK    8  A    between atoms: C_14  and  C_16
REMARK    9  A    between atoms: C_19  and  C_20
REMARK   10  A    between atoms: C_21  and  C_22
REMARK                            x       y       z     vdW  Elec       q    Type
REMARK                         _______ _______ _______ _____ _____    ______ ____
ROOT
ATOM      1  N   UNL     1       6.700   7.379  17.245  0.00  0.00    +0.000 N 
ATOM      2  C   UNL     1       6.670   6.529  16.159  0.00  0.00    +0.000 C 
ATOM      3  O   UNL     1       7.675   6.036  15.655  0.00  0.00    +0.000 OA
ATOM      4  H   UNL     1       5.840   7.435  17.791  0.00  0.00    +0.000 HD
ENDROOT
BRANCH   1   5
ATOM      5  C   UNL     1       7.962   7.723  17.878  0.00  0.00    +0.000 C 
BRANCH   5   6
ATOM      6  C   UNL     1       8.246   9.225  17.861  0.00  0.00    +0.000 C 
BRANCH   6   7
ATOM      7  O   UNL     1       8.793   9.605  19.126  0.00  0.00    +0.000 OA
BRANCH   7  12
ATOM      8  C   UNL     1      12.217  14.123  19.479  0.00  0.00    +0.000 C 
ATOM      9  C   UNL     1      11.308  12.937  19.367  0.00  0.00    +0.000 A 
ATOM     10  C   UNL     1      10.713  12.372  20.498  0.00  0.00    +0.000 A 
ATOM     11  C   UNL     1       9.877  11.257  20.374  0.00  0.00    +0.000 A 
ATOM     12  C   UNL     1       9.609  10.704  19.121  0.00  0.00    +0.000 A 
ATOM     13  C   UNL     1      10.209  11.258  17.990  0.00  0.00    +0.000 A 
ATOM     14  C   UNL     1      11.052  12.368  18.112  0.00  0.00    +0.000 A 
ENDBRANCH   7  12
ENDBRANCH   6   7
ENDBRANCH   5   6
ENDBRANCH   1   5
BRANCH   2  15
ATOM     15  C   UNL     1       5.264   6.161  15.690  0.00  0.00    +0.000 C 
BRANCH  15  16
ATOM     16  N   UNL     1       4.491   5.628  16.792  0.00  0.00    +0.000 N 
ATOM     17  C   UNL     1       4.450   4.270  17.039  0.00  0.00    +0.000 C 
ATOM     18  O   UNL     1       5.039   3.454  16.337  0.00  0.00    +0.000 OA
ATOM     19  H   UNL     1       3.751   6.210  17.162  0.00  0.00    +0.000 HD
BRANCH  17  20
ATOM     20  C   UNL     1       3.613   3.836  18.196  0.00  0.00    +0.000 A 
ATOM     21  C   UNL     1       2.288   4.237  18.336  0.00  0.00    +0.000 A 
ATOM     22  C   UNL     1       1.547   3.836  19.455  0.00  0.00    +0.000 A 
ATOM     23  C   UNL     1       2.123   3.030  20.451  0.00  0.00    +0.000 A 
ATOM     24  C   UNL     1       1.289   2.645  21.644  0.00  0.00    +0.000 C 
ATOM     25  C   UNL     1       3.462   2.619  20.311  0.00  0.00    +0.000 A 
ATOM     26  C   UNL     1       4.155   1.720  21.301  0.00  0.00    +0.000 C 
ATOM     27  C   UNL     1       4.199   3.041  19.187  0.00  0.00    +0.000 A 
ENDBRANCH  17  20
ENDBRANCH  15  16
ENDBRANCH   2  15
TORSDOF 7
ENDMDL
MODEL 6
REMARK VINA RESULT:      -7.5      1.379      1.488
REMARK  Name = 
REMARK  10 active torsions:
REMARK  status: ('A' for Active; 'I' for Inactive)
REMARK    1  A    between atoms: C_1  and  C_2
REMARK    2  A    between atoms: C_5  and  O_6
REMARK    3  A    between atoms: O_6  and  C_7
REMARK    4  A    between atoms: C_7  and  C_8
REMARK    5  A    between atoms: C_8  and  N_9
REMARK    6  A    between atoms: C_10  and  C_12
REMARK    7  A    between atoms: C_12  and  N_13
REMARK    8  A    between atoms: C_14  and  C_16
REMARK    9  A    between atoms: C_19  and  C_20
REMARK   10  A    between atoms: C_21  and  C_22
REMARK                            x       y       z     vdW  Elec       q    Type
REMARK                         _______ _______ _______ _____ _____    ______ ____
ROOT
ATOM      1  N   UNL     1       8.205   8.008  18.192  0.00  0.00    +0.000 N 
ATOM      2  C   UNL     1       7.356   7.225  17.437  0.00  0.00    +0.000 C 
ATOM      3  O   UNL     1       6.564   7.679  16.616  0.00  0.00    +0.000 OA
ATOM      4  H   UNL     1       9.037   7.542  18.554  0.00  0.00    +0.000 HD
ENDROOT
BRANCH   1   5
ATOM      5  C   UNL     1       8.219   9.451  18.028  0.00  0.00    +0.000 C 
BRANCH   5   6
ATOM      6  C   UNL     1       9.313  10.134  18.848  0.00  0.00    +0.000 C 
BRANCH   6   7
ATOM      7  O   UNL     1      10.060  10.999  17.990  0.00  0.00    +0.000 OA
BRANCH   7  12
ATOM      8  C   UNL     1      11.582  15.830  20.562  0.00  0.00    +0.000 C 
ATOM      9  C   UNL     1      11.176  14.565  19.866  0.00  0.00    +0.000 A 
ATOM     10  C   UNL     1      10.605  13.503  20.571  0.00  0.00    +0.000 A 
ATOM     11  C   UNL     1      10.244  12.326  19.906  0.00  0.00    +0.000 A 
ATOM     12  C   UNL     1      10.432  12.202  18.528  0.00  0.00    +0.000 A 
ATOM     13  C   UNL     1      11.013  13.256  17.822  0.00  0.00    +0.000 A 
ATOM     14  C   UNL     1      11.381  14.430  18.487  0.00  0.00    +0.000 A 
ENDBRANCH   7  12
ENDBRANCH   6   7
ENDBRANCH   5   6
ENDBRANCH   1   5
BRANCH   2  15
ATOM     15  C   UNL     1       7.552   5.723  17.629  0.00  0.00    +0.000 C 
BRANCH  15  16
ATOM     16  N   UNL     1       6.270   5.053  17.691  0.00  0.00    +0.000 N 
ATOM     17  C   UNL     1       5.704   4.714  18.904  0.00  0.00    +0.000 C 
ATOM     18  O   UNL     1       6.259   4.939  19.976  0.00  0.00    +0.000 OA
ATOM     19  H   UNL     1       5.963   4.564  16.860  0.00  0.00    +0.000 HD
BRANCH  17  20
ATOM     20  C   UNL     1       4.385   4.019  18.845  0.00  0.00    +0.000 A 
ATOM     21  C   UNL     1       3.867   3.527  17.651  0.00  0.00    +0.000 A 
ATOM     22  C   UNL     1       2.609   2.912  17.631  0.00  0.00    +0.000 A 
ATOM     23  C   UNL     1       1.851   2.782  18.807  0.00  0.00    +0.000 A 
ATOM     24  C   UNL     1       0.495   2.132  18.727  0.00  0.00    +0.000 C 
ATOM     25  C   UNL     1       2.374   3.274  20.018  0.00  0.00    +0.000 A 
ATOM     26  C   UNL     1       1.658   3.144  21.336  0.00  0.00    +0.000 C 
ATOM     27  C   UNL     1       3.634   3.903  20.020  0.00  0.00    +0.000 A 
ENDBRANCH  17  20
ENDBRANCH  15  16
ENDBRANCH   2  15
TORSDOF 7
ENDMDL
MODEL 7
REMARK VINA RESULT:      -7.4      5.416      8.020
REMARK  Name = 
REMARK  10 active torsions:
REMARK  status: ('A' for Active; 'I' for Inactive)
REMARK    1  A    between atoms: C_1  and  C_2
REMARK    2  A    between atoms: C_5  and  O_6
REMARK    3  A    between atoms: O_6  and  C_7
REMARK    4  A    between atoms: C_7  and  C_8
REMARK    5  A    between atoms: C_8  and  N_9
REMARK    6  A    between atoms: C_10  and  C_12
REMARK    7  A    between atoms: C_12  and  N_13
REMARK    8  A    between atoms: C_14  and  C_16
REMARK    9  A    between atoms: C_19  and  C_20
REMARK   10  A    between atoms: C_21  and  C_22
REMARK                            x       y       z     vdW  Elec       q    Type
REMARK                         _______ _______ _______ _____ _____    ______ ____
ROOT
ATOM      1  N   UNL     1       5.991   6.614  17.551  0.00  0.00    +0.000 N 
ATOM      2  C   UNL     1       4.664   6.284  17.730  0.00  0.00    +0.000 C 
ATOM      3  O   UNL     1       4.288   5.230  18.235  0.00  0.00    +0.000 OA
ATOM      4  H   UNL     1       6.196   7.610  17.471  0.00  0.00    +0.000 HD
ENDROOT
BRANCH   1   5
ATOM      5  C   UNL     1       7.041   5.709  17.986  0.00  0.00    +0.000 C 
BRANCH   5   6
ATOM      6  C   UNL     1       7.503   4.758  16.884  0.00  0.00    +0.000 C 
BRANCH   6   7
ATOM      7  O   UNL     1       7.543   5.471  15.645  0.00  0.00    +0.000 OA
BRANCH   7  12
ATOM      8  C   UNL     1       4.969   2.798  11.345  0.00  0.00    +0.000 C 
ATOM      9  C   UNL     1       5.667   3.499  12.472  0.00  0.00    +0.000 A 
ATOM     10  C   UNL     1       5.091   3.575  13.743  0.00  0.00    +0.000 A 
ATOM     11  C   UNL     1       5.752   4.244  14.779  0.00  0.00    +0.000 A 
ATOM     12  C   UNL     1       7.002   4.828  14.565  0.00  0.00    +0.000 A 
ATOM     13  C   UNL     1       7.576   4.763  13.294  0.00  0.00    +0.000 A 
ATOM     14  C   UNL     1       6.912   4.102  12.255  0.00  0.00    +0.000 A 
ENDBRANCH   7  12
ENDBRANCH   6   7
ENDBRANCH   5   6
ENDBRANCH   1   5
BRANCH   2  15
ATOM     15  C   UNL     1       3.685   7.391  17.342  0.00  0.00    +0.000 C 
BRANCH  15  16
ATOM     16  N   UNL     1       2.941   7.833  18.503  0.00  0.00    +0.000 N 
ATOM     17  C   UNL     1       1.915   8.749  18.382  0.00  0.00    +0.000 C 
ATOM     18  O   UNL     1       1.599   9.246  17.305  0.00  0.00    +0.000 OA
ATOM     19  H   UNL     1       3.381   7.714  19.407  0.00  0.00    +0.000 HD
BRANCH  17  20
ATOM     20  C   UNL     1       1.225   9.137  19.646  0.00  0.00    +0.000 A 
ATOM     21  C   UNL     1       1.281   8.342  20.788  0.00  0.00    +0.000 A 
ATOM     22  C   UNL     1       0.591   8.724  21.944  0.00  0.00    +0.000 A 
ATOM     23  C   UNL     1      -0.168   9.906  21.975  0.00  0.00    +0.000 A 
ATOM     24  C   UNL     1      -0.909  10.259  23.237  0.00  0.00    +0.000 C 
ATOM     25  C   UNL     1      -0.224  10.715  20.824  0.00  0.00    +0.000 A 
ATOM     26  C   UNL     1      -0.974  12.019  20.771  0.00  0.00    +0.000 C 
ATOM     27  C   UNL     1       0.464  10.310  19.663  0.00  0.00    +0.000 A 
ENDBRANCH  17  20
ENDBRANCH  15  16
ENDBRANCH   2  15
TORSDOF 7
ENDMDL
MODEL 8
REMARK VINA RESULT:      -7.3      5.526      8.224
REMARK  Name = 
REMARK  10 active torsions:
REMARK  status: ('A' for Active; 'I' for Inactive)
REMARK    1  A    between atoms: C_1  and  C_2
REMARK    2  A    between atoms: C_5  and  O_6
REMARK    3  A    between atoms: O_6  and  C_7
REMARK    4  A    between atoms: C_7  and  C_8
REMARK    5  A    between atoms: C_8  and  N_9
REMARK    6  A    between atoms: C_10  and  C_12
REMARK    7  A    between atoms: C_12  and  N_13
REMARK    8  A    between atoms: C_14  and  C_16
REMARK    9  A    between atoms: C_19  and  C_20
REMARK   10  A    between atoms: C_21  and  C_22
REMARK                            x       y       z     vdW  Elec       q    Type
REMARK                         _______ _______ _______ _____ _____    ______ ____
ROOT
ATOM      1  N   UNL     1       3.323   5.693  19.681  0.00  0.00    +0.000 N 
ATOM      2  C   UNL     1       2.631   6.044  18.541  0.00  0.00    +0.000 C 
ATOM      3  O   UNL     1       1.964   5.253  17.880  0.00  0.00    +0.000 OA
ATOM      4  H   UNL     1       3.529   6.453  20.330  0.00  0.00    +0.000 HD
ENDROOT
BRANCH   1   5
ATOM      5  C   UNL     1       3.274   4.330  20.183  0.00  0.00    +0.000 C 
BRANCH   5   6
ATOM      6  C   UNL     1       4.228   3.390  19.449  0.00  0.00    +0.000 C 
BRANCH   6   7
ATOM      7  O   UNL     1       5.489   4.043  19.291  0.00  0.00    +0.000 OA
BRANCH   7  12
ATOM      8  C   UNL     1       6.924   4.697  13.834  0.00  0.00    +0.000 C 
ATOM      9  C   UNL     1       6.566   4.521  15.279  0.00  0.00    +0.000 A 
ATOM     10  C   UNL     1       5.324   4.004  15.658  0.00  0.00    +0.000 A 
ATOM     11  C   UNL     1       5.003   3.859  17.012  0.00  0.00    +0.000 A 
ATOM     12  C   UNL     1       5.922   4.210  18.003  0.00  0.00    +0.000 A 
ATOM     13  C   UNL     1       7.159   4.737  17.629  0.00  0.00    +0.000 A 
ATOM     14  C   UNL     1       7.478   4.891  16.276  0.00  0.00    +0.000 A 
ENDBRANCH   7  12
ENDBRANCH   6   7
ENDBRANCH   5   6
ENDBRANCH   1   5
BRANCH   2  15
ATOM     15  C   UNL     1       2.675   7.536  18.217  0.00  0.00    +0.000 C 
BRANCH  15  16
ATOM     16  N   UNL     1       1.848   8.276  19.146  0.00  0.00    +0.000 N 
ATOM     17  C   UNL     1       1.360   9.527  18.822  0.00  0.00    +0.000 C 
ATOM     18  O   UNL     1       1.616  10.078  17.756  0.00  0.00    +0.000 OA
ATOM     19  H   UNL     1       1.902   8.016  20.123  0.00  0.00    +0.000 HD
BRANCH  17  20
ATOM     20  C   UNL     1       0.526  10.199  19.861  0.00  0.00    +0.000 A 
ATOM     21  C   UNL     1      -0.177  11.370  19.594  0.00  0.00    +0.000 A 
ATOM     22  C   UNL     1      -0.920  11.989  20.606  0.00  0.00    +0.000 A 
ATOM     23  C   UNL     1      -0.968  11.447  21.902  0.00  0.00    +0.000 A 
ATOM     24  C   UNL     1      -1.764  12.165  22.959  0.00  0.00    +0.000 C 
ATOM     25  C   UNL     1      -0.261  10.261  22.174  0.00  0.00    +0.000 A 
ATOM     26  C   UNL     1      -0.284   9.579  23.517  0.00  0.00    +0.000 C 
ATOM     27  C   UNL     1       0.494   9.656  21.150  0.00  0.00    +0.000 A 
ENDBRANCH  17  20
ENDBRANCH  15  16
ENDBRANCH   2  15
TORSDOF 7
ENDMDL
MODEL 9
REMARK VINA RESULT:      -7.3      6.356      8.735
REMARK  Name = 
REMARK  10 active torsions:
REMARK  status: ('A' for Active; 'I' for Inactive)
REMARK    1  A    between atoms: C_1  and  C_2
REMARK    2  A    between atoms: C_5  and  O_6
REMARK    3  A    between atoms: O_6  and  C_7
REMARK    4  A    between atoms: C_7  and  C_8
REMARK    5  A    between atoms: C_8  and  N_9
REMARK    6  A    between atoms: C_10  and  C_12
REMARK    7  A    between atoms: C_12  and  N_13
REMARK    8  A    between atoms: C_14  and  C_16
REMARK    9  A    between atoms: C_19  and  C_20
REMARK   10  A    between atoms: C_21  and  C_22
REMARK                            x       y       z     vdW  Elec       q    Type
REMARK                         _______ _______ _______ _____ _____    ______ ____
ROOT
ATOM      1  N   UNL     1       2.520   7.003  19.767  0.00  0.00    +0.000 N 
ATOM      2  C   UNL     1       2.231   7.308  18.453  0.00  0.00    +0.000 C 
ATOM      3  O   UNL     1       1.834   6.483  17.636  0.00  0.00    +0.000 OA
ATOM      4  H   UNL     1       2.486   7.782  20.424  0.00  0.00    +0.000 HD
ENDROOT
BRANCH   1   5
ATOM      5  C   UNL     1       2.340   5.650  20.267  0.00  0.00    +0.000 C 
BRANCH   5   6
ATOM      6  C   UNL     1       3.512   4.730  19.931  0.00  0.00    +0.000 C 
BRANCH   6   7
ATOM      7  O   UNL     1       4.610   5.527  19.481  0.00  0.00    +0.000 OA
BRANCH   7  12
ATOM      8  C   UNL     1       6.159   4.241  14.170  0.00  0.00    +0.000 C 
ATOM      9  C   UNL     1       5.768   4.591  15.574  0.00  0.00    +0.000 A 
ATOM     10  C   UNL     1       4.973   3.733  16.339  0.00  0.00    +0.000 A 
ATOM     11  C   UNL     1       4.608   4.083  17.643  0.00  0.00    +0.000 A 
ATOM     12  C   UNL     1       5.046   5.283  18.207  0.00  0.00    +0.000 A 
ATOM     13  C   UNL     1       5.831   6.148  17.443  0.00  0.00    +0.000 A 
ATOM     14  C   UNL     1       6.190   5.803  16.136  0.00  0.00    +0.000 A 
ENDBRANCH   7  12
ENDBRANCH   6   7
ENDBRANCH   5   6
ENDBRANCH   1   5
BRANCH   2  15
ATOM     15  C   UNL     1       2.345   8.794  18.116  0.00  0.00    +0.000 C 
BRANCH  15  16
ATOM     16  N   UNL     1       1.043   9.335  17.785  0.00  0.00    +0.000 N 
ATOM     17  C   UNL     1       0.265   9.949  18.746  0.00  0.00    +0.000 C 
ATOM     18  O   UNL     1       0.619  10.048  19.917  0.00  0.00    +0.000 OA
ATOM     19  H   UNL     1       0.593   8.980  16.951  0.00  0.00    +0.000 HD
BRANCH  17  20
ATOM     20  C   UNL     1      -1.061  10.461  18.292  0.00  0.00    +0.000 A 
ATOM     21  C   UNL     1      -1.821  11.326  19.073  0.00  0.00    +0.000 A 
ATOM     22  C   UNL     1      -3.077  11.756  18.627  0.00  0.00    +0.000 A 
ATOM     23  C   UNL     1      -3.590  11.324  17.392  0.00  0.00    +0.000 A 
ATOM     24  C   UNL     1      -4.955  11.800  16.969  0.00  0.00    +0.000 C 
ATOM     25  C   UNL     1      -2.822  10.453  16.597  0.00  0.00    +0.000 A 
ATOM     26  C   UNL     1      -3.266   9.970  15.242  0.00  0.00    +0.000 C 
ATOM     27  C   UNL     1      -1.567  10.018  17.066  0.00  0.00    +0.000 A 
ENDBRANCH  17  20
ENDBRANCH  15  16
ENDBRANCH   2  15
TORSDOF 7
ENDMDL
