MODEL 1
REMARK VINA RESULT:      -8.3      0.000      0.000
REMARK  Name = 
REMARK  4 active torsions:
REMARK  status: ('A' for Active; 'I' for Inactive)
REMARK    1  A    between atoms: N_1  and  C_2
REMARK    2  A    between atoms: C_4  and  C_5
REMARK    3  A    between atoms: C_14  and  C_15
REMARK    4  A    between atoms: C_15  and  N_16
REMARK                            x       y       z     vdW  Elec       q    Type
REMARK                         _______ _______ _______ _____ _____    ______ ____
ROOT
ATOM      1  C   UNL     1       6.669   4.860  17.900  0.00  0.00    +0.000 A 
ATOM      2  N   UNL     1       7.016   4.593  16.628  0.00  0.00    +0.000 NA
ATOM      3  C   UNL     1       6.050   4.520  15.696  0.00  0.00    +0.000 A 
ATOM      4  N   UNL     1       4.733   4.637  15.894  0.00  0.00    +0.000 NA
ATOM      5  C   UNL     1       4.427   4.912  17.163  0.00  0.00    +0.000 A 
ATOM      6  S   UNL     1       2.802   5.103  17.636  0.00  0.00    +0.000 S 
ATOM      7  C   UNL     1       3.242   5.562  19.227  0.00  0.00    +0.000 A 
ATOM      8  C   UNL     1       4.609   5.440  19.418  0.00  0.00    +0.000 A 
ATOM      9  C   UNL     1       5.313   5.069  18.216  0.00  0.00    +0.000 A 
ENDROOT
BRANCH   3  10
ATOM     10  C   UNL     1       6.436   4.287  14.307  0.00  0.00    +0.000 A 
ATOM     11  C   UNL     1       7.307   4.941  13.455  0.00  0.00    +0.000 A 
ATOM     12  C   UNL     1       7.259   4.259  12.217  0.00  0.00    +0.000 A 
ATOM     13  C   UNL     1       6.368   3.220  12.382  0.00  0.00    +0.000 A 
ATOM     14 CL   UNL     1       5.919   2.064  11.193  0.00  0.00    +0.000 Cl
ATOM     15  O   UNL     1       5.866   3.230  13.650  0.00  0.00    +0.000 OA
ENDBRANCH   3  10
BRANCH   1  16
ATOM     16  N   UNL     1       7.692   4.902  18.837  0.00  0.00    +0.000 N 
ATOM     17  H   UNL     1       8.209   5.774  18.752  0.00  0.00    +0.000 HD
ATOM     18  H   UNL     1       8.253   4.065  18.907  0.00  0.00    +0.000 HD
ENDBRANCH   1  16
BRANCH   7  19
ATOM     19  C   UNL     1       2.153   5.995  20.178  0.00  0.00    +0.000 C 
BRANCH  19  20
ATOM     20  N   UNL     1       1.507   4.875  20.877  0.00  0.00    +0.000 NA
ATOM     21  C   UNL     1       0.855   3.895  19.992  0.00  0.00    +0.000 C 
ATOM     22  C   UNL     1       1.688   2.626  19.974  0.00  0.00    +0.000 C 
ATOM     23  C   UNL     1       2.411   2.649  21.293  0.00  0.00    +0.000 C 
ATOM     24  F   UNL     1       3.641   2.102  21.173  0.00  0.00    +0.000 F 
ATOM     25  F   UNL     1       1.735   1.928  22.216  0.00  0.00    +0.000 F 
ATOM     26  C   UNL     1       2.483   4.116  21.699  0.00  0.00    +0.000 C 
ENDBRANCH  19  20
ENDBRANCH   7  19
TORSDOF 4
ENDMDL
MODEL 2
REMARK VINA RESULT:      -8.1      4.839      5.825
REMARK  Name = 
REMARK  4 active torsions:
REMARK  status: ('A' for Active; 'I' for Inactive)
REMARK    1  A    between atoms: N_1  and  C_2
REMARK    2  A    between atoms: C_4  and  C_5
REMARK    3  A    between atoms: C_14  and  C_15
REMARK    4  A    between atoms: C_15  and  N_16
REMARK                            x       y       z     vdW  Elec       q    Type
REMARK                         _______ _______ _______ _____ _____    ______ ____
ROOT
ATOM      1  C   UNL     1       7.995   6.078  19.126  0.00  0.00    +0.000 A 
ATOM      2  N   UNL     1       8.509   7.321  19.143  0.00  0.00    +0.000 NA
ATOM      3  C   UNL     1       8.064   8.217  18.245  0.00  0.00    +0.000 A 
ATOM      4  N   UNL     1       7.177   8.001  17.269  0.00  0.00    +0.000 NA
ATOM      5  C   UNL     1       6.681   6.763  17.288  0.00  0.00    +0.000 A 
ATOM      6  S   UNL     1       5.531   6.276  16.131  0.00  0.00    +0.000 S 
ATOM      7  C   UNL     1       5.305   4.755  16.886  0.00  0.00    +0.000 A 
ATOM      8  C   UNL     1       6.199   4.584  17.931  0.00  0.00    +0.000 A 
ATOM      9  C   UNL     1       7.001   5.755  18.182  0.00  0.00    +0.000 A 
ENDROOT
BRANCH   3  10
ATOM     10  C   UNL     1       8.582   9.580  18.304  0.00  0.00    +0.000 A 
ATOM     11  C   UNL     1       8.359  10.701  17.524  0.00  0.00    +0.000 A 
ATOM     12  C   UNL     1       9.153  11.739  18.062  0.00  0.00    +0.000 A 
ATOM     13  C   UNL     1       9.812  11.201  19.147  0.00  0.00    +0.000 A 
ATOM     14 CL   UNL     1      10.917  12.018  20.177  0.00  0.00    +0.000 Cl
ATOM     15  O   UNL     1       9.467   9.890  19.301  0.00  0.00    +0.000 OA
ENDBRANCH   3  10
BRANCH   1  16
ATOM     16  N   UNL     1       8.497   5.175  20.053  0.00  0.00    +0.000 N 
ATOM     17  H   UNL     1       7.780   4.934  20.732  0.00  0.00    +0.000 HD
ATOM     18  H   UNL     1       9.404   5.403  20.435  0.00  0.00    +0.000 HD
ENDBRANCH   1  16
BRANCH   7  19
ATOM     19  C   UNL     1       4.244   3.831  16.341  0.00  0.00    +0.000 C 
BRANCH  19  20
ATOM     20  N   UNL     1       3.045   3.753  17.188  0.00  0.00    +0.000 NA
ATOM     21  C   UNL     1       3.040   2.633  18.143  0.00  0.00    +0.000 C 
ATOM     22  C   UNL     1       3.266   3.184  19.540  0.00  0.00    +0.000 C 
ATOM     23  C   UNL     1       2.759   4.598  19.457  0.00  0.00    +0.000 C 
ATOM     24  F   UNL     1       3.488   5.413  20.251  0.00  0.00    +0.000 F 
ATOM     25  F   UNL     1       1.475   4.665  19.877  0.00  0.00    +0.000 F 
ATOM     26  C   UNL     1       2.869   4.990  17.989  0.00  0.00    +0.000 C 
ENDBRANCH  19  20
ENDBRANCH   7  19
TORSDOF 4
ENDMDL
MODEL 3
REMARK VINA RESULT:      -7.9      4.577      5.609
REMARK  Name = 
REMARK  4 active torsions:
REMARK  status: ('A' for Active; 'I' for Inactive)
REMARK    1  A    between atoms: N_1  and  C_2
REMARK    2  A    between atoms: C_4  and  C_5
REMARK    3  A    between atoms: C_14  and  C_15
REMARK    4  A    between atoms: C_15  and  N_16
REMARK                            x       y       z     vdW  Elec       q    Type
REMARK                         _______ _______ _______ _____ _____    ______ ____
ROOT
ATOM      1  C   UNL     1       7.990   6.080  19.104  0.00  0.00    +0.000 A 
ATOM      2  N   UNL     1       8.484   7.331  19.105  0.00  0.00    +0.000 NA
ATOM      3  C   UNL     1       8.024   8.208  18.195  0.00  0.00    +0.000 A 
ATOM      4  N   UNL     1       7.140   7.965  17.222  0.00  0.00    +0.000 NA
ATOM      5  C   UNL     1       6.665   6.720  17.258  0.00  0.00    +0.000 A 
ATOM      6  S   UNL     1       5.522   6.199  16.107  0.00  0.00    +0.000 S 
ATOM      7  C   UNL     1       5.322   4.685  16.883  0.00  0.00    +0.000 A 
ATOM      8  C   UNL     1       6.218   4.542  17.930  0.00  0.00    +0.000 A 
ATOM      9  C   UNL     1       7.001   5.728  18.165  0.00  0.00    +0.000 A 
ENDROOT
BRANCH   3  10
ATOM     10  C   UNL     1       8.520   9.580  18.236  0.00  0.00    +0.000 A 
ATOM     11  C   UNL     1       9.621  10.161  18.840  0.00  0.00    +0.000 A 
ATOM     12  C   UNL     1       9.575  11.541  18.536  0.00  0.00    +0.000 A 
ATOM     13  C   UNL     1       8.455  11.728  17.755  0.00  0.00    +0.000 A 
ATOM     14 CL   UNL     1       7.907  13.219  17.099  0.00  0.00    +0.000 Cl
ATOM     15  O   UNL     1       7.811  10.541  17.567  0.00  0.00    +0.000 OA
ENDBRANCH   3  10
BRANCH   1  16
ATOM     16  N   UNL     1       8.507   5.198  20.042  0.00  0.00    +0.000 N 
ATOM     17  H   UNL     1       8.827   4.348  19.585  0.00  0.00    +0.000 HD
ATOM     18  H   UNL     1       7.944   5.064  20.871  0.00  0.00    +0.000 HD
ENDBRANCH   1  16
BRANCH   7  19
ATOM     19  C   UNL     1       4.275   3.736  16.351  0.00  0.00    +0.000 C 
BRANCH  19  20
ATOM     20  N   UNL     1       3.068   3.667  17.187  0.00  0.00    +0.000 NA
ATOM     21  C   UNL     1       3.072   2.581  18.180  0.00  0.00    +0.000 C 
ATOM     22  C   UNL     1       3.272   3.183  19.559  0.00  0.00    +0.000 C 
ATOM     23  C   UNL     1       2.743   4.585  19.422  0.00  0.00    +0.000 C 
ATOM     24  F   UNL     1       3.449   5.439  20.194  0.00  0.00    +0.000 F 
ATOM     25  F   UNL     1       1.454   4.645  19.826  0.00  0.00    +0.000 F 
ATOM     26  C   UNL     1       2.863   4.928  17.943  0.00  0.00    +0.000 C 
ENDBRANCH  19  20
ENDBRANCH   7  19
TORSDOF 4
ENDMDL
MODEL 4
REMARK VINA RESULT:      -7.8      5.094      8.153
REMARK  Name = 
REMARK  4 active torsions:
REMARK  status: ('A' for Active; 'I' for Inactive)
REMARK    1  A    between atoms: N_1  and  C_2
REMARK    2  A    between atoms: C_4  and  C_5
REMARK    3  A    between atoms: C_14  and  C_15
REMARK    4  A    between atoms: C_15  and  N_16
REMARK                            x       y       z     vdW  Elec       q    Type
REMARK                         _______ _______ _______ _____ _____    ______ ____
ROOT
ATOM      1  C   UNL     1       3.294   4.623  19.430  0.00  0.00    +0.000 A 
ATOM      2  N   UNL     1       2.557   5.643  19.906  0.00  0.00    +0.000 NA
ATOM      3  C   UNL     1       2.634   6.837  19.293  0.00  0.00    +0.000 A 
ATOM      4  N   UNL     1       3.421   7.160  18.262  0.00  0.00    +0.000 NA
ATOM      5  C   UNL     1       4.128   6.123  17.810  0.00  0.00    +0.000 A 
ATOM      6  S   UNL     1       5.195   6.314  16.497  0.00  0.00    +0.000 S 
ATOM      7  C   UNL     1       5.545   4.637  16.442  0.00  0.00    +0.000 A 
ATOM      8  C   UNL     1       4.949   3.972  17.502  0.00  0.00    +0.000 A 
ATOM      9  C   UNL     1       4.111   4.828  18.302  0.00  0.00    +0.000 A 
ENDROOT
BRANCH   3  10
ATOM     10  C   UNL     1       1.790   7.925  19.776  0.00  0.00    +0.000 A 
ATOM     11  C   UNL     1       1.330   9.088  19.183  0.00  0.00    +0.000 A 
ATOM     12  C   UNL     1       0.553   9.762  20.153  0.00  0.00    +0.000 A 
ATOM     13  C   UNL     1       0.572   8.973  21.282  0.00  0.00    +0.000 A 
ATOM     14 CL   UNL     1      -0.208   9.311  22.775  0.00  0.00    +0.000 Cl
ATOM     15  O   UNL     1       1.320   7.855  21.060  0.00  0.00    +0.000 OA
ENDBRANCH   3  10
BRANCH   1  16
ATOM     16  N   UNL     1       3.205   3.413  20.105  0.00  0.00    +0.000 N 
ATOM     17  H   UNL     1       2.999   2.661  19.451  0.00  0.00    +0.000 HD
ATOM     18  H   UNL     1       2.649   3.424  20.948  0.00  0.00    +0.000 HD
ENDBRANCH   1  16
BRANCH   7  19
ATOM     19  C   UNL     1       6.425   4.121  15.330  0.00  0.00    +0.000 C 
BRANCH  19  20
ATOM     20  N   UNL     1       6.005   4.568  13.995  0.00  0.00    +0.000 NA
ATOM     21  C   UNL     1       7.101   4.713  13.023  0.00  0.00    +0.000 C 
ATOM     22  C   UNL     1       7.014   3.577  12.019  0.00  0.00    +0.000 C 
ATOM     23  C   UNL     1       5.559   3.196  12.029  0.00  0.00    +0.000 C 
ATOM     24  F   UNL     1       5.412   1.867  11.830  0.00  0.00    +0.000 F 
ATOM     25  F   UNL     1       4.896   3.830  11.036  0.00  0.00    +0.000 F 
ATOM     26  C   UNL     1       5.030   3.625  13.392  0.00  0.00    +0.000 C 
ENDBRANCH  19  20
ENDBRANCH   7  19
TORSDOF 4
ENDMDL
MODEL 5
REMARK VINA RESULT:      -7.8      1.204      1.310
REMARK  Name = 
REMARK  4 active torsions:
REMARK  status: ('A' for Active; 'I' for Inactive)
REMARK    1  A    between atoms: N_1  and  C_2
REMARK    2  A    between atoms: C_4  and  C_5
REMARK    3  A    between atoms: C_14  and  C_15
REMARK    4  A    between atoms: C_15  and  N_16
REMARK                            x       y       z     vdW  Elec       q    Type
REMARK                         _______ _______ _______ _____ _____    ______ ____
ROOT
ATOM      1  C   UNL     1       6.601   4.936  18.070  0.00  0.00    +0.000 A 
ATOM      2  N   UNL     1       6.992   4.761  16.795  0.00  0.00    +0.000 NA
ATOM      3  C   UNL     1       6.059   4.756  15.827  0.00  0.00    +0.000 A 
ATOM      4  N   UNL     1       4.735   4.858  15.988  0.00  0.00    +0.000 NA
ATOM      5  C   UNL     1       4.386   5.041  17.262  0.00  0.00    +0.000 A 
ATOM      6  S   UNL     1       2.745   5.199  17.691  0.00  0.00    +0.000 S 
ATOM      7  C   UNL     1       3.129   5.543  19.325  0.00  0.00    +0.000 A 
ATOM      8  C   UNL     1       4.489   5.407  19.554  0.00  0.00    +0.000 A 
ATOM      9  C   UNL     1       5.235   5.123  18.353  0.00  0.00    +0.000 A 
ENDROOT
BRANCH   3  10
ATOM     10  C   UNL     1       6.492   4.622  14.440  0.00  0.00    +0.000 A 
ATOM     11  C   UNL     1       6.268   3.654  13.477  0.00  0.00    +0.000 A 
ATOM     12  C   UNL     1       6.958   4.065  12.314  0.00  0.00    +0.000 A 
ATOM     13  C   UNL     1       7.559   5.266  12.624  0.00  0.00    +0.000 A 
ATOM     14 CL   UNL     1       8.533   6.218  11.577  0.00  0.00    +0.000 Cl
ATOM     15  O   UNL     1       7.278   5.611  13.913  0.00  0.00    +0.000 OA
ENDBRANCH   3  10
BRANCH   1  16
ATOM     16  N   UNL     1       7.591   4.911  19.042  0.00  0.00    +0.000 N 
ATOM     17  H   UNL     1       7.720   3.964  19.387  0.00  0.00    +0.000 HD
ATOM     18  H   UNL     1       7.525   5.630  19.749  0.00  0.00    +0.000 HD
ENDBRANCH   1  16
BRANCH   7  19
ATOM     19  C   UNL     1       2.007   5.907  20.267  0.00  0.00    +0.000 C 
BRANCH  19  20
ATOM     20  N   UNL     1       1.396   4.744  20.927  0.00  0.00    +0.000 NA
ATOM     21  C   UNL     1       0.829   3.745  20.006  0.00  0.00    +0.000 C 
ATOM     22  C   UNL     1       1.729   2.521  20.002  0.00  0.00    +0.000 C 
ATOM     23  C   UNL     1       2.401   2.563  21.347  0.00  0.00    +0.000 C 
ATOM     24  F   UNL     1       3.662   2.082  21.266  0.00  0.00    +0.000 F 
ATOM     25  F   UNL     1       1.731   1.794  22.235  0.00  0.00    +0.000 F 
ATOM     26  C   UNL     1       2.380   4.025  21.774  0.00  0.00    +0.000 C 
ENDBRANCH  19  20
ENDBRANCH   7  19
TORSDOF 4
ENDMDL
MODEL 6
REMARK VINA RESULT:      -7.8      3.947      4.952
REMARK  Name = 
REMARK  4 active torsions:
REMARK  status: ('A' for Active; 'I' for Inactive)
REMARK    1  A    between atoms: N_1  and  C_2
REMARK    2  A    between atoms: C_4  and  C_5
REMARK    3  A    between atoms: C_14  and  C_15
REMARK    4  A    between atoms: C_15  and  N_16
REMARK                            x       y       z     vdW  Elec       q    Type
REMARK                         _______ _______ _______ _____ _____    ______ ____
ROOT
ATOM      1  C   UNL     1       6.946   5.458  15.952  0.00  0.00    +0.000 A 
ATOM      2  N   UNL     1       7.629   6.524  16.407  0.00  0.00    +0.000 NA
ATOM      3  C   UNL     1       7.063   7.302  17.346  0.00  0.00    +0.000 A 
ATOM      4  N   UNL     1       5.838   7.169  17.866  0.00  0.00    +0.000 NA
ATOM      5  C   UNL     1       5.195   6.097  17.401  0.00  0.00    +0.000 A 
ATOM      6  S   UNL     1       3.618   5.739  17.934  0.00  0.00    +0.000 S 
ATOM      7  C   UNL     1       3.584   4.258  17.073  0.00  0.00    +0.000 A 
ATOM      8  C   UNL     1       4.717   4.115  16.288  0.00  0.00    +0.000 A 
ATOM      9  C   UNL     1       5.670   5.179  16.479  0.00  0.00    +0.000 A 
ENDROOT
BRANCH   3  10
ATOM     10  C   UNL     1       7.829   8.424  17.879  0.00  0.00    +0.000 A 
ATOM     11  C   UNL     1       8.769   8.520  18.890  0.00  0.00    +0.000 A 
ATOM     12  C   UNL     1       9.160   9.877  18.958  0.00  0.00    +0.000 A 
ATOM     13  C   UNL     1       8.447  10.535  17.980  0.00  0.00    +0.000 A 
ATOM     14 CL   UNL     1       8.525  12.212  17.615  0.00  0.00    +0.000 Cl
ATOM     15  O   UNL     1       7.638   9.658  17.319  0.00  0.00    +0.000 OA
ENDBRANCH   3  10
BRANCH   1  16
ATOM     16  N   UNL     1       7.554   4.694  14.966  0.00  0.00    +0.000 N 
ATOM     17  H   UNL     1       7.395   3.705  15.140  0.00  0.00    +0.000 HD
ATOM     18  H   UNL     1       8.505   4.952  14.740  0.00  0.00    +0.000 HD
ENDBRANCH   1  16
BRANCH   7  19
ATOM     19  C   UNL     1       2.387   3.354  17.242  0.00  0.00    +0.000 C 
BRANCH  19  20
ATOM     20  N   UNL     1       2.467   2.494  18.431  0.00  0.00    +0.000 NA
ATOM     21  C   UNL     1       3.621   2.761  19.305  0.00  0.00    +0.000 C 
ATOM     22  C   UNL     1       3.127   3.449  20.566  0.00  0.00    +0.000 C 
ATOM     23  C   UNL     1       1.699   2.993  20.691  0.00  0.00    +0.000 C 
ATOM     24  F   UNL     1       0.932   3.969  21.224  0.00  0.00    +0.000 F 
ATOM     25  F   UNL     1       1.615   1.919  21.509  0.00  0.00    +0.000 F 
ATOM     26  C   UNL     1       1.256   2.633  19.279  0.00  0.00    +0.000 C 
ENDBRANCH  19  20
ENDBRANCH   7  19
TORSDOF 4
ENDMDL
MODEL 7
REMARK VINA RESULT:      -7.7      4.834      8.032
REMARK  Name = 
REMARK  4 active torsions:
REMARK  status: ('A' for Active; 'I' for Inactive)
REMARK    1  A    between atoms: N_1  and  C_2
REMARK    2  A    between atoms: C_4  and  C_5
REMARK    3  A    between atoms: C_14  and  C_15
REMARK    4  A    between atoms: C_15  and  N_16
REMARK                            x       y       z     vdW  Elec       q    Type
REMARK                         _______ _______ _______ _____ _____    ______ ____
ROOT
ATOM      1  C   UNL     1       3.168   4.503  19.553  0.00  0.00    +0.000 A 
ATOM      2  N   UNL     1       2.470   5.542  20.045  0.00  0.00    +0.000 NA
ATOM      3  C   UNL     1       2.577   6.738  19.440  0.00  0.00    +0.000 A 
ATOM      4  N   UNL     1       3.361   7.043  18.400  0.00  0.00    +0.000 NA
ATOM      5  C   UNL     1       4.029   5.988  17.933  0.00  0.00    +0.000 A 
ATOM      6  S   UNL     1       5.085   6.154  16.607  0.00  0.00    +0.000 S 
ATOM      7  C   UNL     1       5.381   4.468  16.536  0.00  0.00    +0.000 A 
ATOM      8  C   UNL     1       4.778   3.814  17.599  0.00  0.00    +0.000 A 
ATOM      9  C   UNL     1       3.977   4.691  18.416  0.00  0.00    +0.000 A 
ENDROOT
BRANCH   3  10
ATOM     10  C   UNL     1       1.774   7.849  19.941  0.00  0.00    +0.000 A 
ATOM     11  C   UNL     1       1.178   8.096  21.165  0.00  0.00    +0.000 A 
ATOM     12  C   UNL     1       0.518   9.342  21.054  0.00  0.00    +0.000 A 
ATOM     13  C   UNL     1       0.753   9.793  19.773  0.00  0.00    +0.000 A 
ATOM     14 CL   UNL     1       0.182  11.262  19.089  0.00  0.00    +0.000 Cl
ATOM     15  O   UNL     1       1.518   8.892  19.093  0.00  0.00    +0.000 OA
ENDBRANCH   3  10
BRANCH   1  16
ATOM     16  N   UNL     1       3.050   3.292  20.221  0.00  0.00    +0.000 N 
ATOM     17  H   UNL     1       3.853   3.145  20.827  0.00  0.00    +0.000 HD
ATOM     18  H   UNL     1       2.783   2.503  19.647  0.00  0.00    +0.000 HD
ENDBRANCH   1  16
BRANCH   7  19
ATOM     19  C   UNL     1       6.230   3.933  15.410  0.00  0.00    +0.000 C 
BRANCH  19  20
ATOM     20  N   UNL     1       5.842   4.446  14.088  0.00  0.00    +0.000 NA
ATOM     21  C   UNL     1       6.967   4.700  13.174  0.00  0.00    +0.000 C 
ATOM     22  C   UNL     1       6.972   3.628  12.098  0.00  0.00    +0.000 C 
ATOM     23  C   UNL     1       5.536   3.184  12.024  0.00  0.00    +0.000 C 
ATOM     24  F   UNL     1       5.459   1.866  11.737  0.00  0.00    +0.000 F 
ATOM     25  F   UNL     1       4.884   3.851  11.046  0.00  0.00    +0.000 F 
ATOM     26  C   UNL     1       4.936   3.501  13.388  0.00  0.00    +0.000 C 
ENDBRANCH  19  20
ENDBRANCH   7  19
TORSDOF 4
ENDMDL
MODEL 8
REMARK VINA RESULT:      -7.7      4.979      6.141
REMARK  Name = 
REMARK  4 active torsions:
REMARK  status: ('A' for Active; 'I' for Inactive)
REMARK    1  A    between atoms: N_1  and  C_2
REMARK    2  A    between atoms: C_4  and  C_5
REMARK    3  A    between atoms: C_14  and  C_15
REMARK    4  A    between atoms: C_15  and  N_16
REMARK                            x       y       z     vdW  Elec       q    Type
REMARK                         _______ _______ _______ _____ _____    ______ ____
ROOT
ATOM      1  C   UNL     1       2.869   5.888  19.851  0.00  0.00    +0.000 A 
ATOM      2  N   UNL     1       3.779   5.273  19.073  0.00  0.00    +0.000 NA
ATOM      3  C   UNL     1       4.195   5.890  17.954  0.00  0.00    +0.000 A 
ATOM      4  N   UNL     1       3.762   7.062  17.475  0.00  0.00    +0.000 NA
ATOM      5  C   UNL     1       2.870   7.646  18.276  0.00  0.00    +0.000 A 
ATOM      6  S   UNL     1       2.190   9.150  17.856  0.00  0.00    +0.000 S 
ATOM      7  C   UNL     1       1.356   9.273  19.348  0.00  0.00    +0.000 A 
ATOM      8  C   UNL     1       1.500   8.113  20.093  0.00  0.00    +0.000 A 
ATOM      9  C   UNL     1       2.391   7.159  19.480  0.00  0.00    +0.000 A 
ENDROOT
BRANCH   3  10
ATOM     10  C   UNL     1       5.224   5.247  17.143  0.00  0.00    +0.000 A 
ATOM     11  C   UNL     1       6.526   4.864  17.413  0.00  0.00    +0.000 A 
ATOM     12  C   UNL     1       7.040   4.294  16.226  0.00  0.00    +0.000 A 
ATOM     13  C   UNL     1       6.024   4.350  15.298  0.00  0.00    +0.000 A 
ATOM     14 CL   UNL     1       6.096   3.797  13.672  0.00  0.00    +0.000 Cl
ATOM     15  O   UNL     1       4.917   4.926  15.849  0.00  0.00    +0.000 OA
ENDBRANCH   3  10
BRANCH   1  16
ATOM     16  N   UNL     1       2.447   5.207  20.984  0.00  0.00    +0.000 N 
ATOM     17  H   UNL     1       2.188   5.868  21.713  0.00  0.00    +0.000 HD
ATOM     18  H   UNL     1       3.036   4.440  21.277  0.00  0.00    +0.000 HD
ENDBRANCH   1  16
BRANCH   7  19
ATOM     19  C   UNL     1       0.593  10.540  19.644  0.00  0.00    +0.000 C 
BRANCH  19  20
ATOM     20  N   UNL     1      -0.867  10.364  19.621  0.00  0.00    +0.000 NA
ATOM     21  C   UNL     1      -1.632  11.524  20.108  0.00  0.00    +0.000 C 
ATOM     22  C   UNL     1      -2.291  12.204  18.921  0.00  0.00    +0.000 C 
ATOM     23  C   UNL     1      -2.435  11.103  17.906  0.00  0.00    +0.000 C 
ATOM     24  F   UNL     1      -2.291  11.588  16.653  0.00  0.00    +0.000 F 
ATOM     25  F   UNL     1      -3.664  10.544  17.986  0.00  0.00    +0.000 F 
ATOM     26  C   UNL     1      -1.354  10.085  18.246  0.00  0.00    +0.000 C 
ENDBRANCH  19  20
ENDBRANCH   7  19
TORSDOF 4
ENDMDL
MODEL 9
REMARK VINA RESULT:      -7.6      5.663      8.655
REMARK  Name = 
REMARK  4 active torsions:
REMARK  status: ('A' for Active; 'I' for Inactive)
REMARK    1  A    between atoms: N_1  and  C_2
REMARK    2  A    between atoms: C_4  and  C_5
REMARK    3  A    between atoms: C_14  and  C_15
REMARK    4  A    between atoms: C_15  and  N_16
REMARK                            x       y       z     vdW  Elec       q    Type
REMARK                         _______ _______ _______ _____ _____    ______ ____
ROOT
ATOM      1  C   UNL     1       2.015   8.683  18.396  0.00  0.00    +0.000 A 
ATOM      2  N   UNL     1       1.289   9.319  19.333  0.00  0.00    +0.000 NA
ATOM      3  C   UNL     1       1.064   8.701  20.506  0.00  0.00    +0.000 A 
ATOM      4  N   UNL     1       1.445   7.466  20.848  0.00  0.00    +0.000 NA
ATOM      5  C   UNL     1       2.171   6.871  19.900  0.00  0.00    +0.000 A 
ATOM      6  S   UNL     1       2.762   5.291  20.132  0.00  0.00    +0.000 S 
ATOM      7  C   UNL     1       3.648   5.328  18.666  0.00  0.00    +0.000 A 
ATOM      8  C   UNL     1       3.382   6.488  17.956  0.00  0.00    +0.000 A 
ATOM      9  C   UNL     1       2.528   7.401  18.672  0.00  0.00    +0.000 A 
ENDROOT
BRANCH   3  10
ATOM     10  C   UNL     1       0.325   9.416  21.542  0.00  0.00    +0.000 A 
ATOM     11  C   UNL     1      -0.291   9.001  22.709  0.00  0.00    +0.000 A 
ATOM     12  C   UNL     1      -0.859  10.151  23.304  0.00  0.00    +0.000 A 
ATOM     13  C   UNL     1      -0.552  11.208  22.475  0.00  0.00    +0.000 A 
ATOM     14 CL   UNL     1      -0.997  12.851  22.710  0.00  0.00    +0.000 Cl
ATOM     15  O   UNL     1       0.169  10.769  21.403  0.00  0.00    +0.000 OA
ENDBRANCH   3  10
BRANCH   1  16
ATOM     16  N   UNL     1       2.204   9.344  17.190  0.00  0.00    +0.000 N 
ATOM     17  H   UNL     1       3.001   9.971  17.256  0.00  0.00    +0.000 HD
ATOM     18  H   UNL     1       1.371   9.736  16.773  0.00  0.00    +0.000 HD
ENDBRANCH   1  16
BRANCH   7  19
ATOM     19  C   UNL     1       4.538   4.156  18.332  0.00  0.00    +0.000 C 
BRANCH  19  20
ATOM     20  N   UNL     1       5.971   4.449  18.474  0.00  0.00    +0.000 NA
ATOM     21  C   UNL     1       6.752   4.307  17.234  0.00  0.00    +0.000 C 
ATOM     22  C   UNL     1       7.125   5.691  16.733  0.00  0.00    +0.000 C 
ATOM     23  C   UNL     1       7.127   6.538  17.976  0.00  0.00    +0.000 C 
ATOM     24  F   UNL     1       6.711   7.793  17.698  0.00  0.00    +0.000 F 
ATOM     25  F   UNL     1       8.376   6.627  18.485  0.00  0.00    +0.000 F 
ATOM     26  C   UNL     1       6.193   5.836  18.954  0.00  0.00    +0.000 C 
ENDBRANCH  19  20
ENDBRANCH   7  19
TORSDOF 4
ENDMDL
