MODEL 1
REMARK VINA RESULT:      -6.9      0.000      0.000
REMARK  Name = 
REMARK  4 active torsions:
REMARK  status: ('A' for Active; 'I' for Inactive)
REMARK    1  A    between atoms: C_1  and  O_2
REMARK    2  A    between atoms: O_2  and  C_3
REMARK    3  A    between atoms: C_3  and  C_4
REMARK    4  A    between atoms: N_9  and  C_10
REMARK                            x       y       z     vdW  Elec       q    Type
REMARK                         _______ _______ _______ _____ _____    ______ ____
ROOT
ATOM      1  C   UNL     1      -0.239   9.348  21.047  0.00  0.00    +0.000 C 
ATOM      2  C   UNL     1       1.244   9.105  20.698  0.00  0.00    +0.000 C 
ATOM      3  N   UNL     1       1.441   9.198  19.244  0.00  0.00    +0.000 N 
ATOM      4  C   UNL     1       2.070   8.310  18.394  0.00  0.00    +0.000 C 
ATOM      5  O   UNL     1       2.181   8.573  17.195  0.00  0.00    +0.000 OA
ATOM      6  N   UNL     1       2.528   7.141  18.957  0.00  0.00    +0.000 N 
ATOM      7  C   UNL     1       0.921  10.447  18.675  0.00  0.00    +0.000 C 
ATOM      8  C   UNL     1      -0.539  10.646  19.083  0.00  0.00    +0.000 C 
ATOM      9  O   UNL     1      -0.662  10.624  20.512  0.00  0.00    +0.000 OA
ATOM     10  H   UNL     1       2.149   6.890  19.853  0.00  0.00    +0.000 HD
ENDROOT
BRANCH   6  11
ATOM     11  C   UNL     1       3.205   6.107  18.268  0.00  0.00    +0.000 A 
ATOM     12  C   UNL     1       4.387   6.306  17.546  0.00  0.00    +0.000 A 
ATOM     13  C   UNL     1       4.948   5.266  16.809  0.00  0.00    +0.000 A 
ATOM     14 CL   UNL     1       6.378   5.549  15.890  0.00  0.00    +0.000 Cl
ATOM     15  C   UNL     1       4.360   4.007  16.791  0.00  0.00    +0.000 A 
ATOM     16  C   UNL     1       3.211   3.793  17.548  0.00  0.00    +0.000 A 
ATOM     17 CL   UNL     1       2.468   2.239  17.537  0.00  0.00    +0.000 Cl
ATOM     18  C   UNL     1       2.642   4.826  18.295  0.00  0.00    +0.000 A 
ENDBRANCH   6  11
BRANCH   1  19
ATOM     19  C   UNL     1      -0.442   9.355  22.567  0.00  0.00    +0.000 C 
BRANCH  19  21
ATOM     20  C   UNL     1      -1.529  11.320  23.299  0.00  0.00    +0.000 C 
ATOM     21  O   UNL     1      -0.280  10.686  23.066  0.00  0.00    +0.000 OA
ENDBRANCH  19  21
ENDBRANCH   1  19
TORSDOF 3
ENDMDL
MODEL 2
REMARK VINA RESULT:      -6.9      3.984      7.912
REMARK  Name = 
REMARK  4 active torsions:
REMARK  status: ('A' for Active; 'I' for Inactive)
REMARK    1  A    between atoms: C_1  and  O_2
REMARK    2  A    between atoms: O_2  and  C_3
REMARK    3  A    between atoms: C_3  and  C_4
REMARK    4  A    between atoms: N_9  and  C_10
REMARK                            x       y       z     vdW  Elec       q    Type
REMARK                         _______ _______ _______ _____ _____    ______ ____
ROOT
ATOM      1  C   UNL     1       4.526   4.197  17.604  0.00  0.00    +0.000 C 
ATOM      2  C   UNL     1       4.467   5.043  18.893  0.00  0.00    +0.000 C 
ATOM      3  N   UNL     1       3.213   4.777  19.614  0.00  0.00    +0.000 N 
ATOM      4  C   UNL     1       2.285   5.675  20.104  0.00  0.00    +0.000 C 
ATOM      5  O   UNL     1       1.301   5.271  20.726  0.00  0.00    +0.000 OA
ATOM      6  N   UNL     1       2.517   7.004  19.836  0.00  0.00    +0.000 N 
ATOM      7  C   UNL     1       2.987   3.349  19.861  0.00  0.00    +0.000 C 
ATOM      8  C   UNL     1       3.092   2.562  18.554  0.00  0.00    +0.000 C 
ATOM      9  O   UNL     1       4.363   2.797  17.933  0.00  0.00    +0.000 OA
ATOM     10  H   UNL     1       3.166   7.212  19.098  0.00  0.00    +0.000 HD
ENDROOT
BRANCH   6  11
ATOM     11  C   UNL     1       1.699   8.081  20.252  0.00  0.00    +0.000 A 
ATOM     12  C   UNL     1       1.320   8.294  21.583  0.00  0.00    +0.000 A 
ATOM     13  C   UNL     1       0.432   9.315  21.910  0.00  0.00    +0.000 A 
ATOM     14 CL   UNL     1      -0.056   9.526  23.548  0.00  0.00    +0.000 Cl
ATOM     15  C   UNL     1      -0.078  10.157  20.929  0.00  0.00    +0.000 A 
ATOM     16  C   UNL     1       0.335   9.980  19.611  0.00  0.00    +0.000 A 
ATOM     17 CL   UNL     1      -0.288  11.013  18.382  0.00  0.00    +0.000 Cl
ATOM     18  C   UNL     1       1.229   8.962  19.271  0.00  0.00    +0.000 A 
ENDBRANCH   6  11
BRANCH   1  19
ATOM     19  C   UNL     1       5.871   4.387  16.894  0.00  0.00    +0.000 C 
BRANCH  19  21
ATOM     20  C   UNL     1       6.721   4.468  14.692  0.00  0.00    +0.000 C 
ATOM     21  O   UNL     1       5.796   3.845  15.572  0.00  0.00    +0.000 OA
ENDBRANCH  19  21
ENDBRANCH   1  19
TORSDOF 3
ENDMDL
MODEL 3
REMARK VINA RESULT:      -6.9      3.928      7.601
REMARK  Name = 
REMARK  4 active torsions:
REMARK  status: ('A' for Active; 'I' for Inactive)
REMARK    1  A    between atoms: C_1  and  O_2
REMARK    2  A    between atoms: O_2  and  C_3
REMARK    3  A    between atoms: C_3  and  C_4
REMARK    4  A    between atoms: N_9  and  C_10
REMARK                            x       y       z     vdW  Elec       q    Type
REMARK                         _______ _______ _______ _____ _____    ______ ____
ROOT
ATOM      1  C   UNL     1       5.034   4.614  18.017  0.00  0.00    +0.000 C 
ATOM      2  C   UNL     1       4.687   5.335  19.336  0.00  0.00    +0.000 C 
ATOM      3  N   UNL     1       3.316   4.999  19.748  0.00  0.00    +0.000 N 
ATOM      4  C   UNL     1       2.286   5.844  20.111  0.00  0.00    +0.000 C 
ATOM      5  O   UNL     1       1.202   5.380  20.471  0.00  0.00    +0.000 OA
ATOM      6  N   UNL     1       2.538   7.193  20.021  0.00  0.00    +0.000 N 
ATOM      7  C   UNL     1       3.076   3.553  19.811  0.00  0.00    +0.000 C 
ATOM      8  C   UNL     1       3.471   2.894  18.489  0.00  0.00    +0.000 C 
ATOM      9  O   UNL     1       4.839   3.190  18.175  0.00  0.00    +0.000 OA
ATOM     10  H   UNL     1       3.323   7.472  19.459  0.00  0.00    +0.000 HD
ENDROOT
BRANCH   6  11
ATOM     11  C   UNL     1       1.627   8.224  20.352  0.00  0.00    +0.000 A 
ATOM     12  C   UNL     1       1.190   8.479  21.656  0.00  0.00    +0.000 A 
ATOM     13  C   UNL     1       0.216   9.444  21.900  0.00  0.00    +0.000 A 
ATOM     14 CL   UNL     1      -0.340   9.705  23.509  0.00  0.00    +0.000 Cl
ATOM     15  C   UNL     1      -0.326  10.187  20.858  0.00  0.00    +0.000 A 
ATOM     16  C   UNL     1       0.142   9.971  19.565  0.00  0.00    +0.000 A 
ATOM     17 CL   UNL     1      -0.519  10.882  18.262  0.00  0.00    +0.000 Cl
ATOM     18  C   UNL     1       1.122   9.009  19.309  0.00  0.00    +0.000 A 
ENDBRANCH   6  11
BRANCH   1  19
ATOM     19  C   UNL     1       6.495   4.875  17.628  0.00  0.00    +0.000 C 
BRANCH  19  21
ATOM     20  C   UNL     1       7.430   7.041  17.512  0.00  0.00    +0.000 C 
ATOM     21  O   UNL     1       6.582   6.092  16.881  0.00  0.00    +0.000 OA
ENDBRANCH  19  21
ENDBRANCH   1  19
TORSDOF 3
ENDMDL
MODEL 4
REMARK VINA RESULT:      -6.8      0.180      2.016
REMARK  Name = 
REMARK  4 active torsions:
REMARK  status: ('A' for Active; 'I' for Inactive)
REMARK    1  A    between atoms: C_1  and  O_2
REMARK    2  A    between atoms: O_2  and  C_3
REMARK    3  A    between atoms: C_3  and  C_4
REMARK    4  A    between atoms: N_9  and  C_10
REMARK                            x       y       z     vdW  Elec       q    Type
REMARK                         _______ _______ _______ _____ _____    ______ ____
ROOT
ATOM      1  C   UNL     1      -0.243   9.491  20.987  0.00  0.00    +0.000 C 
ATOM      2  C   UNL     1       1.230   9.164  20.668  0.00  0.00    +0.000 C 
ATOM      3  N   UNL     1       1.473   9.287  19.223  0.00  0.00    +0.000 N 
ATOM      4  C   UNL     1       2.068   8.386  18.361  0.00  0.00    +0.000 C 
ATOM      5  O   UNL     1       2.227   8.676  17.175  0.00  0.00    +0.000 OA
ATOM      6  N   UNL     1       2.435   7.174  18.899  0.00  0.00    +0.000 N 
ATOM      7  C   UNL     1       1.048  10.582  18.680  0.00  0.00    +0.000 C 
ATOM      8  C   UNL     1      -0.407  10.863  19.057  0.00  0.00    +0.000 C 
ATOM      9  O   UNL     1      -0.570  10.807  20.482  0.00  0.00    +0.000 OA
ATOM     10  H   UNL     1       2.017   6.922  19.777  0.00  0.00    +0.000 HD
ENDROOT
BRANCH   6  11
ATOM     11  C   UNL     1       3.064   6.120  18.196  0.00  0.00    +0.000 A 
ATOM     12  C   UNL     1       2.537   4.826  18.111  0.00  0.00    +0.000 A 
ATOM     13  C   UNL     1       3.257   3.810  17.487  0.00  0.00    +0.000 A 
ATOM     14 CL   UNL     1       2.608   2.215  17.437  0.00  0.00    +0.000 Cl
ATOM     15  C   UNL     1       4.500   4.063  16.919  0.00  0.00    +0.000 A 
ATOM     16  C   UNL     1       5.005   5.359  16.959  0.00  0.00    +0.000 A 
ATOM     17 CL   UNL     1       6.544   5.690  16.261  0.00  0.00    +0.000 Cl
ATOM     18  C   UNL     1       4.291   6.388  17.577  0.00  0.00    +0.000 A 
ENDBRANCH   6  11
BRANCH   1  19
ATOM     19  C   UNL     1      -0.486   9.466  22.500  0.00  0.00    +0.000 C 
BRANCH  19  21
ATOM     20  C   UNL     1      -1.635  11.385  23.261  0.00  0.00    +0.000 C 
ATOM     21  O   UNL     1      -0.366  10.791  23.027  0.00  0.00    +0.000 OA
ENDBRANCH  19  21
ENDBRANCH   1  19
TORSDOF 3
ENDMDL
MODEL 5
REMARK VINA RESULT:      -6.8      4.458      6.200
REMARK  Name = 
REMARK  4 active torsions:
REMARK  status: ('A' for Active; 'I' for Inactive)
REMARK    1  A    between atoms: C_1  and  O_2
REMARK    2  A    between atoms: O_2  and  C_3
REMARK    3  A    between atoms: C_3  and  C_4
REMARK    4  A    between atoms: N_9  and  C_10
REMARK                            x       y       z     vdW  Elec       q    Type
REMARK                         _______ _______ _______ _____ _____    ______ ____
ROOT
ATOM      1  C   UNL     1       3.250   3.800  19.561  0.00  0.00    +0.000 C 
ATOM      2  C   UNL     1       4.615   4.111  18.913  0.00  0.00    +0.000 C 
ATOM      3  N   UNL     1       4.505   5.295  18.049  0.00  0.00    +0.000 N 
ATOM      4  C   UNL     1       4.905   5.454  16.737  0.00  0.00    +0.000 C 
ATOM      5  O   UNL     1       4.771   6.543  16.176  0.00  0.00    +0.000 OA
ATOM      6  N   UNL     1       5.423   4.342  16.115  0.00  0.00    +0.000 N 
ATOM      7  C   UNL     1       3.927   6.454  18.738  0.00  0.00    +0.000 C 
ATOM      8  C   UNL     1       2.595   6.074  19.386  0.00  0.00    +0.000 C 
ATOM      9  O   UNL     1       2.775   4.964  20.277  0.00  0.00    +0.000 OA
ATOM     10  H   UNL     1       5.233   3.452  16.541  0.00  0.00    +0.000 HD
ENDROOT
BRANCH   6  11
ATOM     11  C   UNL     1       5.899   4.291  14.783  0.00  0.00    +0.000 A 
ATOM     12  C   UNL     1       5.346   3.467  13.796  0.00  0.00    +0.000 A 
ATOM     13  C   UNL     1       5.925   3.393  12.532  0.00  0.00    +0.000 A 
ATOM     14 CL   UNL     1       5.253   2.335  11.350  0.00  0.00    +0.000 Cl
ATOM     15  C   UNL     1       7.048   4.148  12.217  0.00  0.00    +0.000 A 
ATOM     16  C   UNL     1       7.571   5.006  13.181  0.00  0.00    +0.000 A 
ATOM     17 CL   UNL     1       8.963   5.949  12.808  0.00  0.00    +0.000 Cl
ATOM     18  C   UNL     1       6.997   5.093  14.451  0.00  0.00    +0.000 A 
ENDBRANCH   6  11
BRANCH   1  19
ATOM     19  C   UNL     1       3.372   2.629  20.543  0.00  0.00    +0.000 C 
BRANCH  19  21
ATOM     20  C   UNL     1       1.402   2.504  21.841  0.00  0.00    +0.000 C 
ATOM     21  O   UNL     1       2.741   2.974  21.781  0.00  0.00    +0.000 OA
ENDBRANCH  19  21
ENDBRANCH   1  19
TORSDOF 3
ENDMDL
MODEL 6
REMARK VINA RESULT:      -6.8      3.974      7.755
REMARK  Name = 
REMARK  4 active torsions:
REMARK  status: ('A' for Active; 'I' for Inactive)
REMARK    1  A    between atoms: C_1  and  O_2
REMARK    2  A    between atoms: O_2  and  C_3
REMARK    3  A    between atoms: C_3  and  C_4
REMARK    4  A    between atoms: N_9  and  C_10
REMARK                            x       y       z     vdW  Elec       q    Type
REMARK                         _______ _______ _______ _____ _____    ______ ____
ROOT
ATOM      1  C   UNL     1       5.445   5.020  17.760  0.00  0.00    +0.000 C 
ATOM      2  C   UNL     1       4.992   5.653  19.092  0.00  0.00    +0.000 C 
ATOM      3  N   UNL     1       3.643   5.183  19.440  0.00  0.00    +0.000 N 
ATOM      4  C   UNL     1       2.531   5.920  19.796  0.00  0.00    +0.000 C 
ATOM      5  O   UNL     1       1.481   5.350  20.099  0.00  0.00    +0.000 OA
ATOM      6  N   UNL     1       2.667   7.289  19.767  0.00  0.00    +0.000 N 
ATOM      7  C   UNL     1       3.529   3.720  19.438  0.00  0.00    +0.000 C 
ATOM      8  C   UNL     1       4.023   3.152  18.108  0.00  0.00    +0.000 C 
ATOM      9  O   UNL     1       5.370   3.578  17.856  0.00  0.00    +0.000 OA
ATOM     10  H   UNL     1       3.442   7.657  19.245  0.00  0.00    +0.000 HD
ENDROOT
BRANCH   6  11
ATOM     11  C   UNL     1       1.658   8.222  20.103  0.00  0.00    +0.000 A 
ATOM     12  C   UNL     1       1.038   9.059  19.169  0.00  0.00    +0.000 A 
ATOM     13  C   UNL     1       0.124  10.025  19.582  0.00  0.00    +0.000 A 
ATOM     14 CL   UNL     1      -0.590  11.075  18.417  0.00  0.00    +0.000 Cl
ATOM     15  C   UNL     1      -0.207  10.164  20.925  0.00  0.00    +0.000 A 
ATOM     16  C   UNL     1       0.370   9.300  21.851  0.00  0.00    +0.000 A 
ATOM     17 CL   UNL     1      -0.027   9.459  23.519  0.00  0.00    +0.000 Cl
ATOM     18  C   UNL     1       1.285   8.325  21.448  0.00  0.00    +0.000 A 
ENDBRANCH   6  11
BRANCH   1  19
ATOM     19  C   UNL     1       6.889   5.421  17.435  0.00  0.00    +0.000 C 
BRANCH  19  21
ATOM     20  C   UNL     1       7.042   4.881  15.141  0.00  0.00    +0.000 C 
ATOM     21  O   UNL     1       7.428   4.523  16.460  0.00  0.00    +0.000 OA
ENDBRANCH  19  21
ENDBRANCH   1  19
TORSDOF 3
ENDMDL
MODEL 7
REMARK VINA RESULT:      -6.7      4.152      5.865
REMARK  Name = 
REMARK  4 active torsions:
REMARK  status: ('A' for Active; 'I' for Inactive)
REMARK    1  A    between atoms: C_1  and  O_2
REMARK    2  A    between atoms: O_2  and  C_3
REMARK    3  A    between atoms: C_3  and  C_4
REMARK    4  A    between atoms: N_9  and  C_10
REMARK                            x       y       z     vdW  Elec       q    Type
REMARK                         _______ _______ _______ _____ _____    ______ ____
ROOT
ATOM      1  C   UNL     1       2.730   4.507  19.105  0.00  0.00    +0.000 C 
ATOM      2  C   UNL     1       4.194   4.646  18.639  0.00  0.00    +0.000 C 
ATOM      3  N   UNL     1       4.325   5.785  17.720  0.00  0.00    +0.000 N 
ATOM      4  C   UNL     1       4.910   5.831  16.469  0.00  0.00    +0.000 C 
ATOM      5  O   UNL     1       4.966   6.895  15.850  0.00  0.00    +0.000 OA
ATOM      6  N   UNL     1       5.388   4.640  15.972  0.00  0.00    +0.000 N 
ATOM      7  C   UNL     1       3.784   7.032  18.273  0.00  0.00    +0.000 C 
ATOM      8  C   UNL     1       2.346   6.821  18.747  0.00  0.00    +0.000 C 
ATOM      9  O   UNL     1       2.288   5.750  19.700  0.00  0.00    +0.000 OA
ATOM     10  H   UNL     1       5.050   3.799  16.405  0.00  0.00    +0.000 HD
ENDROOT
BRANCH   6  11
ATOM     11  C   UNL     1       6.028   4.470  14.722  0.00  0.00    +0.000 A 
ATOM     12  C   UNL     1       7.156   5.197  14.326  0.00  0.00    +0.000 A 
ATOM     13  C   UNL     1       7.677   5.051  13.043  0.00  0.00    +0.000 A 
ATOM     14 CL   UNL     1       9.038   5.993  12.565  0.00  0.00    +0.000 Cl
ATOM     15  C   UNL     1       7.102   4.167  12.138  0.00  0.00    +0.000 A 
ATOM     16  C   UNL     1       6.010   3.406  12.544  0.00  0.00    +0.000 A 
ATOM     17 CL   UNL     1       5.284   2.307  11.434  0.00  0.00    +0.000 Cl
ATOM     18  C   UNL     1       5.481   3.540  13.829  0.00  0.00    +0.000 A 
ENDBRANCH   6  11
BRANCH   1  19
ATOM     19  C   UNL     1       2.598   3.386  20.143  0.00  0.00    +0.000 C 
BRANCH  19  21
ATOM     20  C   UNL     1       0.894   2.367  18.862  0.00  0.00    +0.000 C 
ATOM     21  O   UNL     1       2.150   2.188  19.500  0.00  0.00    +0.000 OA
ENDBRANCH  19  21
ENDBRANCH   1  19
TORSDOF 3
ENDMDL
MODEL 8
REMARK VINA RESULT:      -6.7      3.910      7.469
REMARK  Name = 
REMARK  4 active torsions:
REMARK  status: ('A' for Active; 'I' for Inactive)
REMARK    1  A    between atoms: C_1  and  O_2
REMARK    2  A    between atoms: O_2  and  C_3
REMARK    3  A    between atoms: C_3  and  C_4
REMARK    4  A    between atoms: N_9  and  C_10
REMARK                            x       y       z     vdW  Elec       q    Type
REMARK                         _______ _______ _______ _____ _____    ______ ____
ROOT
ATOM      1  C   UNL     1       5.080   5.047  17.585  0.00  0.00    +0.000 C 
ATOM      2  C   UNL     1       4.769   5.761  18.916  0.00  0.00    +0.000 C 
ATOM      3  N   UNL     1       3.484   5.292  19.453  0.00  0.00    +0.000 N 
ATOM      4  C   UNL     1       2.402   6.030  19.889  0.00  0.00    +0.000 C 
ATOM      5  O   UNL     1       1.410   5.463  20.352  0.00  0.00    +0.000 OA
ATOM      6  N   UNL     1       2.497   7.396  19.754  0.00  0.00    +0.000 N 
ATOM      7  C   UNL     1       3.409   3.830  19.562  0.00  0.00    +0.000 C 
ATOM      8  C   UNL     1       3.760   3.181  18.222  0.00  0.00    +0.000 C 
ATOM      9  O   UNL     1       5.056   3.614  17.784  0.00  0.00    +0.000 OA
ATOM     10  H   UNL     1       3.196   7.742  19.121  0.00  0.00    +0.000 HD
ENDROOT
BRANCH   6  11
ATOM     11  C   UNL     1       1.510   8.331  20.145  0.00  0.00    +0.000 A 
ATOM     12  C   UNL     1       0.871   9.199  19.252  0.00  0.00    +0.000 A 
ATOM     13  C   UNL     1      -0.019  10.164  19.718  0.00  0.00    +0.000 A 
ATOM     14 CL   UNL     1      -0.756  11.251  18.604  0.00  0.00    +0.000 Cl
ATOM     15  C   UNL     1      -0.306  10.271  21.074  0.00  0.00    +0.000 A 
ATOM     16  C   UNL     1       0.289   9.377  21.959  0.00  0.00    +0.000 A 
ATOM     17 CL   UNL     1      -0.055   9.497  23.643  0.00  0.00    +0.000 Cl
ATOM     18  C   UNL     1       1.180   8.403  21.504  0.00  0.00    +0.000 A 
ENDBRANCH   6  11
BRANCH   1  19
ATOM     19  C   UNL     1       6.465   5.452  17.065  0.00  0.00    +0.000 C 
BRANCH  19  21
ATOM     20  C   UNL     1       7.566   7.505  17.451  0.00  0.00    +0.000 C 
ATOM     21  O   UNL     1       6.484   6.858  16.798  0.00  0.00    +0.000 OA
ENDBRANCH  19  21
ENDBRANCH   1  19
TORSDOF 3
ENDMDL
MODEL 9
REMARK VINA RESULT:      -6.6      3.898      7.595
REMARK  Name = 
REMARK  4 active torsions:
REMARK  status: ('A' for Active; 'I' for Inactive)
REMARK    1  A    between atoms: C_1  and  O_2
REMARK    2  A    between atoms: O_2  and  C_3
REMARK    3  A    between atoms: C_3  and  C_4
REMARK    4  A    between atoms: N_9  and  C_10
REMARK                            x       y       z     vdW  Elec       q    Type
REMARK                         _______ _______ _______ _____ _____    ______ ____
ROOT
ATOM      1  C   UNL     1       4.075   3.984  17.437  0.00  0.00    +0.000 C 
ATOM      2  C   UNL     1       4.178   4.943  18.641  0.00  0.00    +0.000 C 
ATOM      3  N   UNL     1       3.008   4.781  19.516  0.00  0.00    +0.000 N 
ATOM      4  C   UNL     1       2.158   5.746  20.020  0.00  0.00    +0.000 C 
ATOM      5  O   UNL     1       1.242   5.430  20.780  0.00  0.00    +0.000 OA
ATOM      6  N   UNL     1       2.386   7.039  19.607  0.00  0.00    +0.000 N 
ATOM      7  C   UNL     1       2.782   3.388  19.917  0.00  0.00    +0.000 C 
ATOM      8  C   UNL     1       2.724   2.485  18.684  0.00  0.00    +0.000 C 
ATOM      9  O   UNL     1       3.923   2.625  17.909  0.00  0.00    +0.000 OA
ATOM     10  H   UNL     1       2.953   7.161  18.786  0.00  0.00    +0.000 HD
ENDROOT
BRANCH   6  11
ATOM     11  C   UNL     1       1.641   8.173  20.009  0.00  0.00    +0.000 A 
ATOM     12  C   UNL     1       1.338   9.241  19.157  0.00  0.00    +0.000 A 
ATOM     13  C   UNL     1       0.688  10.372  19.644  0.00  0.00    +0.000 A 
ATOM     14 CL   UNL     1       0.369  11.692  18.585  0.00  0.00    +0.000 Cl
ATOM     15  C   UNL     1       0.308  10.455  20.978  0.00  0.00    +0.000 A 
ATOM     16  C   UNL     1       0.564   9.375  21.818  0.00  0.00    +0.000 A 
ATOM     17 CL   UNL     1       0.102   9.462  23.474  0.00  0.00    +0.000 Cl
ATOM     18  C   UNL     1       1.211   8.233  21.340  0.00  0.00    +0.000 A 
ENDBRANCH   6  11
BRANCH   1  19
ATOM     19  C   UNL     1       5.337   4.070  16.569  0.00  0.00    +0.000 C 
BRANCH  19  21
ATOM     20  C   UNL     1       7.558   4.551  17.212  0.00  0.00    +0.000 C 
ATOM     21  O   UNL     1       6.230   5.045  17.118  0.00  0.00    +0.000 OA
ENDBRANCH  19  21
ENDBRANCH   1  19
TORSDOF 3
ENDMDL
