MODEL 1
REMARK VINA RESULT:      -9.0      0.000      0.000
REMARK  Name = 
REMARK  9 active torsions:
REMARK  status: ('A' for Active; 'I' for Inactive)
REMARK    1  A    between atoms: C_1  and  C_2
REMARK    2  A    between atoms: C_4  and  C_5
REMARK    3  A    between atoms: C_6  and  C_7
REMARK    4  A    between atoms: N_9  and  C_10
REMARK    5  A    between atoms: C_11  and  C_12
REMARK    6  A    between atoms: C_15  and  C_16
REMARK    7  A    between atoms: N_20  and  C_21
REMARK    8  A    between atoms: N_20  and  C_22
REMARK    9  A    between atoms: C_22  and  C_23
REMARK                            x       y       z     vdW  Elec       q    Type
REMARK                         _______ _______ _______ _____ _____    ______ ____
ROOT
ATOM      1  C   UNL     1       1.197  10.250  18.770  0.00  0.00    +0.000 A 
ATOM      2  N   UNL     1       1.743  11.444  18.649  0.00  0.00    +0.000 NA
ATOM      3  N   UNL     1       0.705  12.352  18.699  0.00  0.00    +0.000 NA
ATOM      4  C   UNL     1      -0.409  11.655  18.772  0.00  0.00    +0.000 A 
ATOM      5  N   UNL     1      -1.684  12.070  18.940  0.00  0.00    +0.000 N 
ATOM      6  C   UNL     1      -2.792  11.304  18.411  0.00  0.00    +0.000 C 
ATOM      7  O   UNL     1      -0.175  10.306  18.806  0.00  0.00    +0.000 OA
ENDROOT
BRANCH   1  14
ATOM      8  C   UNL     1       0.905   8.581  21.253  0.00  0.00    +0.000 C 
ATOM      9  C   UNL     1       1.684   8.138  20.048  0.00  0.00    +0.000 A 
ATOM     10  C   UNL     1       2.301   6.872  20.046  0.00  0.00    +0.000 A 
ATOM     11  C   UNL     1       2.957   6.386  18.911  0.00  0.00    +0.000 A 
ATOM     12  C   UNL     1       2.997   7.249  17.823  0.00  0.00    +0.000 A 
ATOM     13  N   UNL     1       2.479   8.504  17.801  0.00  0.00    +0.000 NA
ATOM     14  C   UNL     1       1.816   8.933  18.906  0.00  0.00    +0.000 A 
BRANCH  11  15
ATOM     15  C   UNL     1       3.535   5.041  18.878  0.00  0.00    +0.000 A 
ATOM     16  C   UNL     1       4.892   4.609  19.038  0.00  0.00    +0.000 A 
ATOM     17  C   UNL     1       6.130   5.378  19.329  0.00  0.00    +0.000 C 
ATOM     18  N   UNL     1       5.007   3.283  18.911  0.00  0.00    +0.000 NA
ATOM     19  N   UNL     1       3.761   2.855  18.685  0.00  0.00    +0.000 N 
ATOM     20  C   UNL     1       3.543   1.440  18.479  0.00  0.00    +0.000 C 
ATOM     21  C   UNL     1       2.824   3.860  18.678  0.00  0.00    +0.000 A 
ATOM     22  C   UNL     1       1.374   3.584  18.470  0.00  0.00    +0.000 C 
ENDBRANCH  11  15
ENDBRANCH   1  14
BRANCH   5  23
ATOM     23  C   UNL     1      -1.947  13.331  19.625  0.00  0.00    +0.000 C 
BRANCH  23  24
ATOM     24  C   UNL     1      -2.614  13.068  20.966  0.00  0.00    +0.000 A 
ATOM     25  C   UNL     1      -1.814  12.446  22.029  0.00  0.00    +0.000 A 
ATOM     26  C   UNL     1      -2.353  12.042  23.193  0.00  0.00    +0.000 A 
ATOM     27  C   UNL     1      -3.716  12.314  23.470  0.00  0.00    +0.000 A 
ATOM     28  N   UNL     1      -4.455  12.062  24.529  0.00  0.00    +0.000 NA
ATOM     29  C   UNL     1      -5.641  12.709  24.302  0.00  0.00    +0.000 A 
ATOM     30  C   UNL     1      -5.644  13.322  23.066  0.00  0.00    +0.000 A 
ATOM     31  N   UNL     1      -4.421  13.029  22.511  0.00  0.00    +0.000 N 
ATOM     32  C   UNL     1      -3.900  13.369  21.256  0.00  0.00    +0.000 A 
ENDBRANCH  23  24
ENDBRANCH   5  23
TORSDOF 4
ENDMDL
MODEL 2
REMARK VINA RESULT:      -8.6      2.258      3.923
REMARK  Name = 
REMARK  9 active torsions:
REMARK  status: ('A' for Active; 'I' for Inactive)
REMARK    1  A    between atoms: C_1  and  C_2
REMARK    2  A    between atoms: C_4  and  C_5
REMARK    3  A    between atoms: C_6  and  C_7
REMARK    4  A    between atoms: N_9  and  C_10
REMARK    5  A    between atoms: C_11  and  C_12
REMARK    6  A    between atoms: C_15  and  C_16
REMARK    7  A    between atoms: N_20  and  C_21
REMARK    8  A    between atoms: N_20  and  C_22
REMARK    9  A    between atoms: C_22  and  C_23
REMARK                            x       y       z     vdW  Elec       q    Type
REMARK                         _______ _______ _______ _____ _____    ______ ____
ROOT
ATOM      1  C   UNL     1       0.846   9.089  20.735  0.00  0.00    +0.000 A 
ATOM      2  N   UNL     1       0.019   8.797  21.719  0.00  0.00    +0.000 NA
ATOM      3  N   UNL     1      -0.533   9.994  22.128  0.00  0.00    +0.000 NA
ATOM      4  C   UNL     1       0.044  10.943  21.422  0.00  0.00    +0.000 A 
ATOM      5  N   UNL     1      -0.213  12.269  21.374  0.00  0.00    +0.000 N 
ATOM      6  C   UNL     1       0.831  13.218  21.054  0.00  0.00    +0.000 C 
ATOM      7  O   UNL     1       0.947  10.442  20.523  0.00  0.00    +0.000 OA
ENDROOT
BRANCH   1  14
ATOM      8  C   UNL     1       1.557   9.874  17.921  0.00  0.00    +0.000 C 
ATOM      9  C   UNL     1       1.958   8.565  18.539  0.00  0.00    +0.000 A 
ATOM     10  C   UNL     1       2.724   7.649  17.792  0.00  0.00    +0.000 A 
ATOM     11  C   UNL     1       3.194   6.462  18.362  0.00  0.00    +0.000 A 
ATOM     12  C   UNL     1       2.815   6.233  19.678  0.00  0.00    +0.000 A 
ATOM     13  N   UNL     1       2.019   7.051  20.415  0.00  0.00    +0.000 NA
ATOM     14  C   UNL     1       1.609   8.215  19.846  0.00  0.00    +0.000 A 
BRANCH  11  15
ATOM     15  C   UNL     1       4.054   5.542  17.613  0.00  0.00    +0.000 A 
ATOM     16  C   UNL     1       3.817   4.200  17.173  0.00  0.00    +0.000 A 
ATOM     17  C   UNL     1       2.616   3.333  17.295  0.00  0.00    +0.000 C 
ATOM     18  N   UNL     1       4.879   3.693  16.536  0.00  0.00    +0.000 NA
ATOM     19  N   UNL     1       5.783   4.677  16.549  0.00  0.00    +0.000 N 
ATOM     20  C   UNL     1       7.075   4.436  15.947  0.00  0.00    +0.000 C 
ATOM     21  C   UNL     1       5.341   5.826  17.160  0.00  0.00    +0.000 A 
ATOM     22  C   UNL     1       6.192   7.047  17.252  0.00  0.00    +0.000 C 
ENDBRANCH  11  15
ENDBRANCH   1  14
BRANCH   5  23
ATOM     23  C   UNL     1      -1.551  12.755  21.694  0.00  0.00    +0.000 C 
BRANCH  23  24
ATOM     24  C   UNL     1      -2.495  12.488  20.531  0.00  0.00    +0.000 A 
ATOM     25  C   UNL     1      -3.917  12.809  20.704  0.00  0.00    +0.000 A 
ATOM     26  C   UNL     1      -4.847  12.475  19.792  0.00  0.00    +0.000 A 
ATOM     27  C   UNL     1      -4.450  11.889  18.564  0.00  0.00    +0.000 A 
ATOM     28  N   UNL     1      -5.148  11.513  17.514  0.00  0.00    +0.000 NA
ATOM     29  C   UNL     1      -4.219  11.185  16.563  0.00  0.00    +0.000 A 
ATOM     30  C   UNL     1      -2.936  11.314  17.056  0.00  0.00    +0.000 A 
ATOM     31  N   UNL     1      -3.086  11.724  18.360  0.00  0.00    +0.000 N 
ATOM     32  C   UNL     1      -2.117  11.976  19.339  0.00  0.00    +0.000 A 
ENDBRANCH  23  24
ENDBRANCH   5  23
TORSDOF 4
ENDMDL
MODEL 3
REMARK VINA RESULT:      -8.5      0.599      1.135
REMARK  Name = 
REMARK  9 active torsions:
REMARK  status: ('A' for Active; 'I' for Inactive)
REMARK    1  A    between atoms: C_1  and  C_2
REMARK    2  A    between atoms: C_4  and  C_5
REMARK    3  A    between atoms: C_6  and  C_7
REMARK    4  A    between atoms: N_9  and  C_10
REMARK    5  A    between atoms: C_11  and  C_12
REMARK    6  A    between atoms: C_15  and  C_16
REMARK    7  A    between atoms: N_20  and  C_21
REMARK    8  A    between atoms: N_20  and  C_22
REMARK    9  A    between atoms: C_22  and  C_23
REMARK                            x       y       z     vdW  Elec       q    Type
REMARK                         _______ _______ _______ _____ _____    ______ ____
ROOT
ATOM      1  C   UNL     1       1.145  10.217  18.745  0.00  0.00    +0.000 A 
ATOM      2  N   UNL     1       1.682  11.418  18.660  0.00  0.00    +0.000 NA
ATOM      3  N   UNL     1       0.632  12.314  18.678  0.00  0.00    +0.000 NA
ATOM      4  C   UNL     1      -0.476  11.603  18.698  0.00  0.00    +0.000 A 
ATOM      5  N   UNL     1      -1.762  12.001  18.820  0.00  0.00    +0.000 N 
ATOM      6  C   UNL     1      -2.838  11.229  18.239  0.00  0.00    +0.000 C 
ATOM      7  O   UNL     1      -0.227  10.257  18.727  0.00  0.00    +0.000 OA
ENDROOT
BRANCH   1  14
ATOM      8  C   UNL     1       0.876   8.571  21.247  0.00  0.00    +0.000 C 
ATOM      9  C   UNL     1       1.653   8.121  20.042  0.00  0.00    +0.000 A 
ATOM     10  C   UNL     1       2.279   6.860  20.050  0.00  0.00    +0.000 A 
ATOM     11  C   UNL     1       2.934   6.367  18.917  0.00  0.00    +0.000 A 
ATOM     12  C   UNL     1       2.963   7.219  17.820  0.00  0.00    +0.000 A 
ATOM     13  N   UNL     1       2.436   8.470  17.788  0.00  0.00    +0.000 NA
ATOM     14  C   UNL     1       1.774   8.906  18.892  0.00  0.00    +0.000 A 
BRANCH  11  15
ATOM     15  C   UNL     1       3.521   5.026  18.895  0.00  0.00    +0.000 A 
ATOM     16  C   UNL     1       4.883   4.606  19.042  0.00  0.00    +0.000 A 
ATOM     17  C   UNL     1       6.119   5.387  19.304  0.00  0.00    +0.000 C 
ATOM     18  N   UNL     1       5.006   3.279  18.932  0.00  0.00    +0.000 NA
ATOM     19  N   UNL     1       3.760   2.839  18.730  0.00  0.00    +0.000 N 
ATOM     20  C   UNL     1       3.550   1.420  18.546  0.00  0.00    +0.000 C 
ATOM     21  C   UNL     1       2.815   3.837  18.721  0.00  0.00    +0.000 A 
ATOM     22  C   UNL     1       1.365   3.547  18.538  0.00  0.00    +0.000 C 
ENDBRANCH  11  15
ENDBRANCH   1  14
BRANCH   5  23
ATOM     23  C   UNL     1      -2.067  13.252  19.508  0.00  0.00    +0.000 C 
BRANCH  23  24
ATOM     24  C   UNL     1      -3.072  13.002  20.622  0.00  0.00    +0.000 A 
ATOM     25  C   UNL     1      -4.499  12.989  20.279  0.00  0.00    +0.000 A 
ATOM     26  C   UNL     1      -5.464  12.923  21.213  0.00  0.00    +0.000 A 
ATOM     27  C   UNL     1      -5.114  12.750  22.576  0.00  0.00    +0.000 A 
ATOM     28  N   UNL     1      -5.856  12.622  23.654  0.00  0.00    +0.000 NA
ATOM     29  C   UNL     1      -4.980  12.307  24.658  0.00  0.00    +0.000 A 
ATOM     30  C   UNL     1      -3.679  12.292  24.197  0.00  0.00    +0.000 A 
ATOM     31  N   UNL     1      -3.762  12.623  22.865  0.00  0.00    +0.000 N 
ATOM     32  C   UNL     1      -2.745  12.788  21.916  0.00  0.00    +0.000 A 
ENDBRANCH  23  24
ENDBRANCH   5  23
TORSDOF 4
ENDMDL
MODEL 4
REMARK VINA RESULT:      -8.5      2.630      3.379
REMARK  Name = 
REMARK  9 active torsions:
REMARK  status: ('A' for Active; 'I' for Inactive)
REMARK    1  A    between atoms: C_1  and  C_2
REMARK    2  A    between atoms: C_4  and  C_5
REMARK    3  A    between atoms: C_6  and  C_7
REMARK    4  A    between atoms: N_9  and  C_10
REMARK    5  A    between atoms: C_11  and  C_12
REMARK    6  A    between atoms: C_15  and  C_16
REMARK    7  A    between atoms: N_20  and  C_21
REMARK    8  A    between atoms: N_20  and  C_22
REMARK    9  A    between atoms: C_22  and  C_23
REMARK                            x       y       z     vdW  Elec       q    Type
REMARK                         _______ _______ _______ _____ _____    ______ ____
ROOT
ATOM      1  C   UNL     1       0.722   9.518  21.352  0.00  0.00    +0.000 A 
ATOM      2  N   UNL     1       1.005   9.731  22.621  0.00  0.00    +0.000 NA
ATOM      3  N   UNL     1       0.080  10.649  23.076  0.00  0.00    +0.000 NA
ATOM      4  C   UNL     1      -0.659  10.992  22.042  0.00  0.00    +0.000 A 
ATOM      5  N   UNL     1      -1.756  11.778  21.980  0.00  0.00    +0.000 N 
ATOM      6  C   UNL     1      -2.071  12.521  20.779  0.00  0.00    +0.000 C 
ATOM      7  O   UNL     1      -0.298  10.322  20.903  0.00  0.00    +0.000 OA
ENDROOT
BRANCH   1  14
ATOM      8  C   UNL     1       1.416  10.270  18.524  0.00  0.00    +0.000 C 
ATOM      9  C   UNL     1       1.624   8.893  19.087  0.00  0.00    +0.000 A 
ATOM     10  C   UNL     1       2.191   7.889  18.278  0.00  0.00    +0.000 A 
ATOM     11  C   UNL     1       2.484   6.622  18.791  0.00  0.00    +0.000 A 
ATOM     12  C   UNL     1       2.136   6.415  20.120  0.00  0.00    +0.000 A 
ATOM     13  N   UNL     1       1.524   7.327  20.919  0.00  0.00    +0.000 NA
ATOM     14  C   UNL     1       1.285   8.561  20.402  0.00  0.00    +0.000 A 
BRANCH  11  15
ATOM     15  C   UNL     1       3.143   5.600  17.976  0.00  0.00    +0.000 A 
ATOM     16  C   UNL     1       2.730   4.269  17.643  0.00  0.00    +0.000 A 
ATOM     17  C   UNL     1       1.490   3.522  17.980  0.00  0.00    +0.000 C 
ATOM     18  N   UNL     1       3.638   3.643  16.887  0.00  0.00    +0.000 NA
ATOM     19  N   UNL     1       4.615   4.540  16.720  0.00  0.00    +0.000 N 
ATOM     20  C   UNL     1       5.779   4.158  15.952  0.00  0.00    +0.000 C 
ATOM     21  C   UNL     1       4.368   5.747  17.329  0.00  0.00    +0.000 A 
ATOM     22  C   UNL     1       5.324   6.887  17.235  0.00  0.00    +0.000 C 
ENDBRANCH  11  15
ENDBRANCH   1  14
BRANCH   5  23
ATOM     23  C   UNL     1      -2.610  11.918  23.154  0.00  0.00    +0.000 C 
BRANCH  23  24
ATOM     24  C   UNL     1      -2.629  13.367  23.616  0.00  0.00    +0.000 A 
ATOM     25  C   UNL     1      -1.345  14.057  23.790  0.00  0.00    +0.000 A 
ATOM     26  C   UNL     1      -1.254  15.285  24.331  0.00  0.00    +0.000 A 
ATOM     27  C   UNL     1      -2.435  16.001  24.652  0.00  0.00    +0.000 A 
ATOM     28  N   UNL     1      -2.612  17.207  25.147  0.00  0.00    +0.000 NA
ATOM     29  C   UNL     1      -3.961  17.430  25.076  0.00  0.00    +0.000 A 
ATOM     30  C   UNL     1      -4.622  16.325  24.579  0.00  0.00    +0.000 A 
ATOM     31  N   UNL     1      -3.643  15.388  24.349  0.00  0.00    +0.000 N 
ATOM     32  C   UNL     1      -3.752  14.074  23.878  0.00  0.00    +0.000 A 
ENDBRANCH  23  24
ENDBRANCH   5  23
TORSDOF 4
ENDMDL
MODEL 5
REMARK VINA RESULT:      -8.3      2.721      3.601
REMARK  Name = 
REMARK  9 active torsions:
REMARK  status: ('A' for Active; 'I' for Inactive)
REMARK    1  A    between atoms: C_1  and  C_2
REMARK    2  A    between atoms: C_4  and  C_5
REMARK    3  A    between atoms: C_6  and  C_7
REMARK    4  A    between atoms: N_9  and  C_10
REMARK    5  A    between atoms: C_11  and  C_12
REMARK    6  A    between atoms: C_15  and  C_16
REMARK    7  A    between atoms: N_20  and  C_21
REMARK    8  A    between atoms: N_20  and  C_22
REMARK    9  A    between atoms: C_22  and  C_23
REMARK                            x       y       z     vdW  Elec       q    Type
REMARK                         _______ _______ _______ _____ _____    ______ ____
ROOT
ATOM      1  C   UNL     1       0.827   9.550  21.182  0.00  0.00    +0.000 A 
ATOM      2  N   UNL     1       1.151   9.827  22.429  0.00  0.00    +0.000 NA
ATOM      3  N   UNL     1       0.218  10.740  22.877  0.00  0.00    +0.000 NA
ATOM      4  C   UNL     1      -0.567  11.016  21.857  0.00  0.00    +0.000 A 
ATOM      5  N   UNL     1      -1.687  11.771  21.802  0.00  0.00    +0.000 N 
ATOM      6  C   UNL     1      -2.066  12.451  20.582  0.00  0.00    +0.000 C 
ATOM      7  O   UNL     1      -0.229  10.306  20.736  0.00  0.00    +0.000 OA
ENDROOT
BRANCH   1  14
ATOM      8  C   UNL     1       1.479  10.214  18.323  0.00  0.00    +0.000 C 
ATOM      9  C   UNL     1       1.701   8.857  18.926  0.00  0.00    +0.000 A 
ATOM     10  C   UNL     1       2.261   7.831  18.140  0.00  0.00    +0.000 A 
ATOM     11  C   UNL     1       2.568   6.582  18.689  0.00  0.00    +0.000 A 
ATOM     12  C   UNL     1       2.239   6.415  20.028  0.00  0.00    +0.000 A 
ATOM     13  N   UNL     1       1.634   7.349  20.806  0.00  0.00    +0.000 NA
ATOM     14  C   UNL     1       1.382   8.565  20.255  0.00  0.00    +0.000 A 
BRANCH  11  15
ATOM     15  C   UNL     1       3.219   5.537  17.896  0.00  0.00    +0.000 A 
ATOM     16  C   UNL     1       2.798   4.201  17.594  0.00  0.00    +0.000 A 
ATOM     17  C   UNL     1       1.554   3.469  17.950  0.00  0.00    +0.000 C 
ATOM     18  N   UNL     1       3.702   3.552  16.853  0.00  0.00    +0.000 NA
ATOM     19  N   UNL     1       4.684   4.440  16.665  0.00  0.00    +0.000 N 
ATOM     20  C   UNL     1       5.846   4.033  15.905  0.00  0.00    +0.000 C 
ATOM     21  C   UNL     1       4.445   5.662  17.246  0.00  0.00    +0.000 A 
ATOM     22  C   UNL     1       5.408   6.793  17.125  0.00  0.00    +0.000 C 
ENDBRANCH  11  15
ENDBRANCH   1  14
BRANCH   5  23
ATOM     23  C   UNL     1      -2.501  11.941  23.001  0.00  0.00    +0.000 C 
BRANCH  23  24
ATOM     24  C   UNL     1      -2.496  13.400  23.432  0.00  0.00    +0.000 A 
ATOM     25  C   UNL     1      -3.786  14.090  23.561  0.00  0.00    +0.000 A 
ATOM     26  C   UNL     1      -3.876  15.411  23.793  0.00  0.00    +0.000 A 
ATOM     27  C   UNL     1      -2.700  16.165  24.032  0.00  0.00    +0.000 A 
ATOM     28  N   UNL     1      -2.526  17.439  24.314  0.00  0.00    +0.000 NA
ATOM     29  C   UNL     1      -1.196  17.562  24.615  0.00  0.00    +0.000 A 
ATOM     30  C   UNL     1      -0.538  16.358  24.466  0.00  0.00    +0.000 A 
ATOM     31  N   UNL     1      -1.499  15.468  24.046  0.00  0.00    +0.000 N 
ATOM     32  C   UNL     1      -1.382  14.114  23.710  0.00  0.00    +0.000 A 
ENDBRANCH  23  24
ENDBRANCH   5  23
TORSDOF 4
ENDMDL
MODEL 6
REMARK VINA RESULT:      -8.2      2.175      3.393
REMARK  Name = 
REMARK  9 active torsions:
REMARK  status: ('A' for Active; 'I' for Inactive)
REMARK    1  A    between atoms: C_1  and  C_2
REMARK    2  A    between atoms: C_4  and  C_5
REMARK    3  A    between atoms: C_6  and  C_7
REMARK    4  A    between atoms: N_9  and  C_10
REMARK    5  A    between atoms: C_11  and  C_12
REMARK    6  A    between atoms: C_15  and  C_16
REMARK    7  A    between atoms: N_20  and  C_21
REMARK    8  A    between atoms: N_20  and  C_22
REMARK    9  A    between atoms: C_22  and  C_23
REMARK                            x       y       z     vdW  Elec       q    Type
REMARK                         _______ _______ _______ _____ _____    ______ ____
ROOT
ATOM      1  C   UNL     1       0.786   9.918  20.998  0.00  0.00    +0.000 A 
ATOM      2  N   UNL     1       0.552   9.917  22.295  0.00  0.00    +0.000 NA
ATOM      3  N   UNL     1      -0.097  11.103  22.572  0.00  0.00    +0.000 NA
ATOM      4  C   UNL     1      -0.150  11.782  21.446  0.00  0.00    +0.000 A 
ATOM      5  N   UNL     1      -0.766  12.951  21.164  0.00  0.00    +0.000 N 
ATOM      6  C   UNL     1      -0.256  13.831  20.135  0.00  0.00    +0.000 C 
ATOM      7  O   UNL     1       0.407  11.095  20.400  0.00  0.00    +0.000 OA
ENDROOT
BRANCH   1  14
ATOM      8  C   UNL     1       1.421  10.397  18.098  0.00  0.00    +0.000 C 
ATOM      9  C   UNL     1       1.643   9.079  18.785  0.00  0.00    +0.000 A 
ATOM     10  C   UNL     1       2.194   8.003  18.063  0.00  0.00    +0.000 A 
ATOM     11  C   UNL     1       2.500   6.790  18.689  0.00  0.00    +0.000 A 
ATOM     12  C   UNL     1       2.180   6.711  20.038  0.00  0.00    +0.000 A 
ATOM     13  N   UNL     1       1.583   7.695  20.759  0.00  0.00    +0.000 NA
ATOM     14  C   UNL     1       1.332   8.874  20.132  0.00  0.00    +0.000 A 
BRANCH  11  15
ATOM     15  C   UNL     1       3.143   5.695  17.960  0.00  0.00    +0.000 A 
ATOM     16  C   UNL     1       2.697   4.356  17.713  0.00  0.00    +0.000 A 
ATOM     17  C   UNL     1       1.430   3.669  18.078  0.00  0.00    +0.000 C 
ATOM     18  N   UNL     1       3.601   3.652  17.023  0.00  0.00    +0.000 NA
ATOM     19  N   UNL     1       4.606   4.508  16.812  0.00  0.00    +0.000 N 
ATOM     20  C   UNL     1       5.773   4.040  16.097  0.00  0.00    +0.000 C 
ATOM     21  C   UNL     1       4.384   5.761  17.330  0.00  0.00    +0.000 A 
ATOM     22  C   UNL     1       5.374   6.864  17.175  0.00  0.00    +0.000 C 
ENDBRANCH  11  15
ENDBRANCH   1  14
BRANCH   5  23
ATOM     23  C   UNL     1      -1.934  13.356  21.940  0.00  0.00    +0.000 C 
BRANCH  23  24
ATOM     24  C   UNL     1      -3.208  12.954  21.212  0.00  0.00    +0.000 A 
ATOM     25  C   UNL     1      -4.481  13.051  21.937  0.00  0.00    +0.000 A 
ATOM     26  C   UNL     1      -5.636  12.583  21.431  0.00  0.00    +0.000 A 
ATOM     27  C   UNL     1      -5.669  12.074  20.108  0.00  0.00    +0.000 A 
ATOM     28  N   UNL     1      -6.660  11.602  19.383  0.00  0.00    +0.000 NA
ATOM     29  C   UNL     1      -6.137  11.426  18.130  0.00  0.00    +0.000 A 
ATOM     30  C   UNL     1      -4.795  11.748  18.101  0.00  0.00    +0.000 A 
ATOM     31  N   UNL     1      -4.483  12.122  19.387  0.00  0.00    +0.000 N 
ATOM     32  C   UNL     1      -3.255  12.514  19.935  0.00  0.00    +0.000 A 
ENDBRANCH  23  24
ENDBRANCH   5  23
TORSDOF 4
ENDMDL
MODEL 7
REMARK VINA RESULT:      -8.2      2.307      3.683
REMARK  Name = 
REMARK  9 active torsions:
REMARK  status: ('A' for Active; 'I' for Inactive)
REMARK    1  A    between atoms: C_1  and  C_2
REMARK    2  A    between atoms: C_4  and  C_5
REMARK    3  A    between atoms: C_6  and  C_7
REMARK    4  A    between atoms: N_9  and  C_10
REMARK    5  A    between atoms: C_11  and  C_12
REMARK    6  A    between atoms: C_15  and  C_16
REMARK    7  A    between atoms: N_20  and  C_21
REMARK    8  A    between atoms: N_20  and  C_22
REMARK    9  A    between atoms: C_22  and  C_23
REMARK                            x       y       z     vdW  Elec       q    Type
REMARK                         _______ _______ _______ _____ _____    ______ ____
ROOT
ATOM      1  C   UNL     1       0.834   9.170  20.635  0.00  0.00    +0.000 A 
ATOM      2  N   UNL     1       0.032   8.902  21.646  0.00  0.00    +0.000 NA
ATOM      3  N   UNL     1      -0.544  10.101  22.012  0.00  0.00    +0.000 NA
ATOM      4  C   UNL     1      -0.003  11.032  21.254  0.00  0.00    +0.000 A 
ATOM      5  N   UNL     1      -0.295  12.347  21.152  0.00  0.00    +0.000 N 
ATOM      6  C   UNL     1       0.719  13.306  20.771  0.00  0.00    +0.000 C 
ATOM      7  O   UNL     1       0.897  10.514  20.361  0.00  0.00    +0.000 OA
ENDROOT
BRANCH   1  14
ATOM      8  C   UNL     1       1.594   9.904  17.820  0.00  0.00    +0.000 C 
ATOM      9  C   UNL     1       1.975   8.602  18.465  0.00  0.00    +0.000 A 
ATOM     10  C   UNL     1       2.745   7.668  17.744  0.00  0.00    +0.000 A 
ATOM     11  C   UNL     1       3.197   6.487  18.339  0.00  0.00    +0.000 A 
ATOM     12  C   UNL     1       2.795   6.282  19.653  0.00  0.00    +0.000 A 
ATOM     13  N   UNL     1       1.995   7.118  20.365  0.00  0.00    +0.000 NA
ATOM     14  C   UNL     1       1.603   8.275  19.772  0.00  0.00    +0.000 A 
BRANCH  11  15
ATOM     15  C   UNL     1       4.060   5.549  17.618  0.00  0.00    +0.000 A 
ATOM     16  C   UNL     1       3.818   4.203  17.192  0.00  0.00    +0.000 A 
ATOM     17  C   UNL     1       2.607   3.349  17.305  0.00  0.00    +0.000 C 
ATOM     18  N   UNL     1       4.885   3.677  16.581  0.00  0.00    +0.000 NA
ATOM     19  N   UNL     1       5.798   4.653  16.596  0.00  0.00    +0.000 N 
ATOM     20  C   UNL     1       7.099   4.392  16.020  0.00  0.00    +0.000 C 
ATOM     21  C   UNL     1       5.358   5.815  17.184  0.00  0.00    +0.000 A 
ATOM     22  C   UNL     1       6.218   7.028  17.274  0.00  0.00    +0.000 C 
ENDBRANCH  11  15
ENDBRANCH   1  14
BRANCH   5  23
ATOM     23  C   UNL     1      -1.639  12.814  21.475  0.00  0.00    +0.000 C 
BRANCH  23  24
ATOM     24  C   UNL     1      -2.605  12.430  20.365  0.00  0.00    +0.000 A 
ATOM     25  C   UNL     1      -2.058  11.811  19.151  0.00  0.00    +0.000 A 
ATOM     26  C   UNL     1      -2.809  11.571  18.062  0.00  0.00    +0.000 A 
ATOM     27  C   UNL     1      -4.205  11.816  18.103  0.00  0.00    +0.000 A 
ATOM     28  N   UNL     1      -5.146  11.633  17.202  0.00  0.00    +0.000 NA
ATOM     29  C   UNL     1      -6.324  11.878  17.857  0.00  0.00    +0.000 A 
ATOM     30  C   UNL     1      -6.095  12.264  19.163  0.00  0.00    +0.000 A 
ATOM     31  N   UNL     1      -4.728  12.269  19.307  0.00  0.00    +0.000 N 
ATOM     32  C   UNL     1      -3.944  12.615  20.415  0.00  0.00    +0.000 A 
ENDBRANCH  23  24
ENDBRANCH   5  23
TORSDOF 4
ENDMDL
MODEL 8
REMARK VINA RESULT:      -8.2      1.975      2.715
REMARK  Name = 
REMARK  9 active torsions:
REMARK  status: ('A' for Active; 'I' for Inactive)
REMARK    1  A    between atoms: C_1  and  C_2
REMARK    2  A    between atoms: C_4  and  C_5
REMARK    3  A    between atoms: C_6  and  C_7
REMARK    4  A    between atoms: N_9  and  C_10
REMARK    5  A    between atoms: C_11  and  C_12
REMARK    6  A    between atoms: C_15  and  C_16
REMARK    7  A    between atoms: N_20  and  C_21
REMARK    8  A    between atoms: N_20  and  C_22
REMARK    9  A    between atoms: C_22  and  C_23
REMARK                            x       y       z     vdW  Elec       q    Type
REMARK                         _______ _______ _______ _____ _____    ______ ____
ROOT
ATOM      1  C   UNL     1       0.834   9.983  20.632  0.00  0.00    +0.000 A 
ATOM      2  N   UNL     1       0.631  10.401  21.866  0.00  0.00    +0.000 NA
ATOM      3  N   UNL     1      -0.056  11.593  21.763  0.00  0.00    +0.000 NA
ATOM      4  C   UNL     1      -0.162  11.864  20.479  0.00  0.00    +0.000 A 
ATOM      5  N   UNL     1      -0.828  12.859  19.853  0.00  0.00    +0.000 N 
ATOM      6  C   UNL     1      -0.377  13.367  18.576  0.00  0.00    +0.000 C 
ATOM      7  O   UNL     1       0.396  10.888  19.697  0.00  0.00    +0.000 OA
ENDROOT
BRANCH   1  14
ATOM      8  C   UNL     1       1.998   9.719  17.873  0.00  0.00    +0.000 C 
ATOM      9  C   UNL     1       1.952   8.589  18.861  0.00  0.00    +0.000 A 
ATOM     10  C   UNL     1       2.494   7.337  18.511  0.00  0.00    +0.000 A 
ATOM     11  C   UNL     1       2.554   6.288  19.434  0.00  0.00    +0.000 A 
ATOM     12  C   UNL     1       2.003   6.551  20.681  0.00  0.00    +0.000 A 
ATOM     13  N   UNL     1       1.407   7.717  21.042  0.00  0.00    +0.000 NA
ATOM     14  C   UNL     1       1.398   8.729  20.136  0.00  0.00    +0.000 A 
BRANCH  11  15
ATOM     15  C   UNL     1       3.184   5.009  19.099  0.00  0.00    +0.000 A 
ATOM     16  C   UNL     1       4.568   4.655  18.994  0.00  0.00    +0.000 A 
ATOM     17  C   UNL     1       5.798   5.455  19.232  0.00  0.00    +0.000 C 
ATOM     18  N   UNL     1       4.726   3.376  18.635  0.00  0.00    +0.000 NA
ATOM     19  N   UNL     1       3.482   2.902  18.518  0.00  0.00    +0.000 N 
ATOM     20  C   UNL     1       3.304   1.525  18.113  0.00  0.00    +0.000 C 
ATOM     21  C   UNL     1       2.507   3.826  18.807  0.00  0.00    +0.000 A 
ATOM     22  C   UNL     1       1.058   3.483  18.761  0.00  0.00    +0.000 C 
ENDBRANCH  11  15
ENDBRANCH   1  14
BRANCH   5  23
ATOM     23  C   UNL     1      -1.992  13.462  20.494  0.00  0.00    +0.000 C 
BRANCH  23  24
ATOM     24  C   UNL     1      -3.257  12.728  20.076  0.00  0.00    +0.000 A 
ATOM     25  C   UNL     1      -3.224  11.941  18.837  0.00  0.00    +0.000 A 
ATOM     26  C   UNL     1      -4.328  11.379  18.311  0.00  0.00    +0.000 A 
ATOM     27  C   UNL     1      -5.555  11.445  19.017  0.00  0.00    +0.000 A 
ATOM     28  N   UNL     1      -6.744  10.954  18.740  0.00  0.00    +0.000 NA
ATOM     29  C   UNL     1      -7.496  11.178  19.863  0.00  0.00    +0.000 A 
ATOM     30  C   UNL     1      -6.770  11.859  20.819  0.00  0.00    +0.000 A 
ATOM     31  N   UNL     1      -5.534  12.072  20.256  0.00  0.00    +0.000 N 
ATOM     32  C   UNL     1      -4.418  12.744  20.768  0.00  0.00    +0.000 A 
ENDBRANCH  23  24
ENDBRANCH   5  23
TORSDOF 4
ENDMDL
MODEL 9
REMARK VINA RESULT:      -8.1      1.720      2.356
REMARK  Name = 
REMARK  9 active torsions:
REMARK  status: ('A' for Active; 'I' for Inactive)
REMARK    1  A    between atoms: C_1  and  C_2
REMARK    2  A    between atoms: C_4  and  C_5
REMARK    3  A    between atoms: C_6  and  C_7
REMARK    4  A    between atoms: N_9  and  C_10
REMARK    5  A    between atoms: C_11  and  C_12
REMARK    6  A    between atoms: C_15  and  C_16
REMARK    7  A    between atoms: N_20  and  C_21
REMARK    8  A    between atoms: N_20  and  C_22
REMARK    9  A    between atoms: C_22  and  C_23
REMARK                            x       y       z     vdW  Elec       q    Type
REMARK                         _______ _______ _______ _____ _____    ______ ____
ROOT
ATOM      1  C   UNL     1       0.809  10.679  20.684  0.00  0.00    +0.000 A 
ATOM      2  N   UNL     1       1.504  11.677  21.194  0.00  0.00    +0.000 NA
ATOM      3  N   UNL     1       0.583  12.599  21.647  0.00  0.00    +0.000 NA
ATOM      4  C   UNL     1      -0.608  12.142  21.320  0.00  0.00    +0.000 A 
ATOM      5  N   UNL     1      -1.835  12.620  21.622  0.00  0.00    +0.000 N 
ATOM      6  C   UNL     1      -2.959  12.395  20.740  0.00  0.00    +0.000 C 
ATOM      7  O   UNL     1      -0.541  10.928  20.689  0.00  0.00    +0.000 OA
ENDROOT
BRANCH   1  14
ATOM      8  C   UNL     1       1.747  10.295  17.854  0.00  0.00    +0.000 C 
ATOM      9  C   UNL     1       1.697   9.185  18.864  0.00  0.00    +0.000 A 
ATOM     10  C   UNL     1       2.125   7.894  18.500  0.00  0.00    +0.000 A 
ATOM     11  C   UNL     1       2.179   6.856  19.436  0.00  0.00    +0.000 A 
ATOM     12  C   UNL     1       1.741   7.175  20.715  0.00  0.00    +0.000 A 
ATOM     13  N   UNL     1       1.254   8.385  21.096  0.00  0.00    +0.000 NA
ATOM     14  C   UNL     1       1.248   9.382  20.173  0.00  0.00    +0.000 A 
BRANCH  11  15
ATOM     15  C   UNL     1       2.694   5.532  19.082  0.00  0.00    +0.000 A 
ATOM     16  C   UNL     1       3.854   5.157  18.329  0.00  0.00    +0.000 A 
ATOM     17  C   UNL     1       4.920   5.986  17.708  0.00  0.00    +0.000 C 
ATOM     18  N   UNL     1       3.957   3.830  18.205  0.00  0.00    +0.000 NA
ATOM     19  N   UNL     1       2.901   3.346  18.868  0.00  0.00    +0.000 N 
ATOM     20  C   UNL     1       2.707   1.914  18.906  0.00  0.00    +0.000 C 
ATOM     21  C   UNL     1       2.114   4.316  19.440  0.00  0.00    +0.000 A 
ATOM     22  C   UNL     1       0.906   3.979  20.244  0.00  0.00    +0.000 C 
ENDBRANCH  11  15
ENDBRANCH   1  14
BRANCH   5  23
ATOM     23  C   UNL     1      -2.022  13.414  22.832  0.00  0.00    +0.000 C 
BRANCH  23  24
ATOM     24  C   UNL     1      -3.478  13.365  23.269  0.00  0.00    +0.000 A 
ATOM     25  C   UNL     1      -3.870  12.360  24.264  0.00  0.00    +0.000 A 
ATOM     26  C   UNL     1      -5.154  12.144  24.603  0.00  0.00    +0.000 A 
ATOM     27  C   UNL     1      -6.171  12.978  24.073  0.00  0.00    +0.000 A 
ATOM     28  N   UNL     1      -7.471  12.996  24.273  0.00  0.00    +0.000 NA
ATOM     29  C   UNL     1      -7.917  14.125  23.639  0.00  0.00    +0.000 A 
ATOM     30  C   UNL     1      -6.881  14.778  23.001  0.00  0.00    +0.000 A 
ATOM     31  N   UNL     1      -5.765  14.014  23.243  0.00  0.00    +0.000 N 
ATOM     32  C   UNL     1      -4.445  14.188  22.806  0.00  0.00    +0.000 A 
ENDBRANCH  23  24
ENDBRANCH   5  23
TORSDOF 4
ENDMDL
