MODEL 1
REMARK VINA RESULT:      -7.2      0.000      0.000
REMARK  Name = 
REMARK  6 active torsions:
REMARK  status: ('A' for Active; 'I' for Inactive)
REMARK    1  A    between atoms: C_1  and  C_2
REMARK    2  A    between atoms: C_2  and  O_3
REMARK    3  A    between atoms: O_3  and  C_4
REMARK    4  A    between atoms: C_9  and  N_10
REMARK    5  A    between atoms: C_14  and  C_15
REMARK    6  A    between atoms: C_24  and  N_25
REMARK                            x       y       z     vdW  Elec       q    Type
REMARK                         _______ _______ _______ _____ _____    ______ ____
ROOT
ATOM      1  N   UNL     1       4.638   4.746  16.694  0.00  0.00    +0.000 N 
ATOM      2  C   UNL     1       3.958   3.548  17.214  0.00  0.00    +0.000 C 
ATOM      3  C   UNL     1       2.918   4.182  18.123  0.00  0.00    +0.000 C 
ATOM      4  O   UNL     1       2.043   3.575  18.722  0.00  0.00    +0.000 OA
ATOM      5  C   UNL     1       3.144   5.637  18.186  0.00  0.00    +0.000 C 
ATOM      6  C   UNL     1       4.202   5.883  17.377  0.00  0.00    +0.000 C 
ENDROOT
BRANCH   5   7
ATOM      7  C   UNL     1       2.436   6.641  18.871  0.00  0.00    +0.000 A 
ATOM      8  N   UNL     1       2.124   7.805  18.319  0.00  0.00    +0.000 NA
ATOM      9  C   UNL     1       1.578   8.668  19.239  0.00  0.00    +0.000 A 
ATOM     10  C   UNL     1       1.200   9.998  18.976  0.00  0.00    +0.000 A 
ATOM     11  C   UNL     1       0.699  10.790  20.009  0.00  0.00    +0.000 A 
ATOM     12  C   UNL     1       0.563  10.263  21.288  0.00  0.00    +0.000 A 
ATOM     13  C   UNL     1       0.917   8.937  21.570  0.00  0.00    +0.000 A 
ATOM     14  C   UNL     1       1.429   8.151  20.523  0.00  0.00    +0.000 A 
ATOM     15  S   UNL     1       1.974   6.513  20.529  0.00  0.00    +0.000 S 
ENDBRANCH   5   7
BRANCH   1  21
ATOM     16  C   UNL     1       6.835   4.990  15.501  0.00  0.00    +0.000 A 
ATOM     17  C   UNL     1       7.611   4.732  14.360  0.00  0.00    +0.000 A 
ATOM     18  C   UNL     1       7.027   4.230  13.203  0.00  0.00    +0.000 A 
ATOM     19  C   UNL     1       5.665   3.971  13.185  0.00  0.00    +0.000 A 
ATOM     20  C   UNL     1       4.899   4.159  14.341  0.00  0.00    +0.000 A 
ATOM     21  C   UNL     1       5.457   4.638  15.546  0.00  0.00    +0.000 A 
BRANCH  16  22
ATOM     22  O   UNL     1       7.382   5.607  16.605  0.00  0.00    +0.000 OA
BRANCH  22  24
ATOM     23  C   UNL     1       7.760   5.667  18.960  0.00  0.00    +0.000 C 
ATOM     24  C   UNL     1       7.708   4.784  17.725  0.00  0.00    +0.000 C 
ENDBRANCH  22  24
ENDBRANCH  16  22
ENDBRANCH   1  21
BRANCH   6  25
ATOM     25  N   UNL     1       4.797   7.126  17.280  0.00  0.00    +0.000 N 
ATOM     26  H   UNL     1       4.526   7.722  18.069  0.00  0.00    +0.000 HD
ATOM     27  H   UNL     1       4.526   7.563  16.405  0.00  0.00    +0.000 HD
ENDBRANCH   6  25
TORSDOF 5
ENDMDL
MODEL 2
REMARK VINA RESULT:      -7.2      0.895      1.313
REMARK  Name = 
REMARK  6 active torsions:
REMARK  status: ('A' for Active; 'I' for Inactive)
REMARK    1  A    between atoms: C_1  and  C_2
REMARK    2  A    between atoms: C_2  and  O_3
REMARK    3  A    between atoms: O_3  and  C_4
REMARK    4  A    between atoms: C_9  and  N_10
REMARK    5  A    between atoms: C_14  and  C_15
REMARK    6  A    between atoms: C_24  and  N_25
REMARK                            x       y       z     vdW  Elec       q    Type
REMARK                         _______ _______ _______ _____ _____    ______ ____
ROOT
ATOM      1  N   UNL     1       4.485   5.056  16.750  0.00  0.00    +0.000 N 
ATOM      2  C   UNL     1       3.609   3.969  17.218  0.00  0.00    +0.000 C 
ATOM      3  C   UNL     1       2.616   4.747  18.066  0.00  0.00    +0.000 C 
ATOM      4  O   UNL     1       1.627   4.273  18.606  0.00  0.00    +0.000 OA
ATOM      5  C   UNL     1       3.044   6.154  18.153  0.00  0.00    +0.000 C 
ATOM      6  C   UNL     1       4.174   6.245  17.413  0.00  0.00    +0.000 C 
ENDROOT
BRANCH   5   7
ATOM      7  C   UNL     1       2.445   7.252  18.799  0.00  0.00    +0.000 A 
ATOM      8  N   UNL     1       2.188   7.267  20.099  0.00  0.00    +0.000 NA
ATOM      9  C   UNL     1       1.459   8.377  20.454  0.00  0.00    +0.000 A 
ATOM     10  C   UNL     1       0.980   8.650  21.749  0.00  0.00    +0.000 A 
ATOM     11  C   UNL     1       0.209   9.791  21.974  0.00  0.00    +0.000 A 
ATOM     12  C   UNL     1      -0.072  10.659  20.926  0.00  0.00    +0.000 A 
ATOM     13  C   UNL     1       0.409  10.417  19.632  0.00  0.00    +0.000 A 
ATOM     14  C   UNL     1       1.176   9.259  19.416  0.00  0.00    +0.000 A 
ATOM     15  S   UNL     1       1.893   8.658  17.965  0.00  0.00    +0.000 S 
ENDBRANCH   5   7
BRANCH   1  21
ATOM     16  C   UNL     1       6.750   5.076  15.667  0.00  0.00    +0.000 A 
ATOM     17  C   UNL     1       7.561   4.703  14.582  0.00  0.00    +0.000 A 
ATOM     18  C   UNL     1       6.999   4.187  13.421  0.00  0.00    +0.000 A 
ATOM     19  C   UNL     1       5.624   4.028  13.341  0.00  0.00    +0.000 A 
ATOM     20  C   UNL     1       4.817   4.331  14.444  0.00  0.00    +0.000 A 
ATOM     21  C   UNL     1       5.349   4.829  15.654  0.00  0.00    +0.000 A 
BRANCH  16  22
ATOM     22  O   UNL     1       7.287   5.707  16.767  0.00  0.00    +0.000 OA
BRANCH  22  24
ATOM     23  C   UNL     1       7.758   5.782  19.105  0.00  0.00    +0.000 C 
ATOM     24  C   UNL     1       7.654   4.891  17.880  0.00  0.00    +0.000 C 
ENDBRANCH  22  24
ENDBRANCH  16  22
ENDBRANCH   1  21
BRANCH   6  25
ATOM     25  N   UNL     1       4.946   7.390  17.360  0.00  0.00    +0.000 N 
ATOM     26  H   UNL     1       5.874   7.185  16.977  0.00  0.00    +0.000 HD
ATOM     27  H   UNL     1       5.033   7.781  18.293  0.00  0.00    +0.000 HD
ENDBRANCH   6  25
TORSDOF 5
ENDMDL
MODEL 3
REMARK VINA RESULT:      -6.8      2.607      4.378
REMARK  Name = 
REMARK  6 active torsions:
REMARK  status: ('A' for Active; 'I' for Inactive)
REMARK    1  A    between atoms: C_1  and  C_2
REMARK    2  A    between atoms: C_2  and  O_3
REMARK    3  A    between atoms: O_3  and  C_4
REMARK    4  A    between atoms: C_9  and  N_10
REMARK    5  A    between atoms: C_14  and  C_15
REMARK    6  A    between atoms: C_24  and  N_25
REMARK                            x       y       z     vdW  Elec       q    Type
REMARK                         _______ _______ _______ _____ _____    ______ ____
ROOT
ATOM      1  N   UNL     1       2.340   6.980  19.145  0.00  0.00    +0.000 N 
ATOM      2  C   UNL     1       2.040   6.830  20.579  0.00  0.00    +0.000 C 
ATOM      3  C   UNL     1       1.356   8.155  20.868  0.00  0.00    +0.000 C 
ATOM      4  O   UNL     1       0.843   8.466  21.933  0.00  0.00    +0.000 OA
ATOM      5  C   UNL     1       1.429   9.015  19.673  0.00  0.00    +0.000 C 
ATOM      6  C   UNL     1       2.071   8.286  18.730  0.00  0.00    +0.000 C 
ENDROOT
BRANCH   5   7
ATOM      7  C   UNL     1       0.925  10.309  19.449  0.00  0.00    +0.000 A 
ATOM      8  N   UNL     1       1.674  11.304  18.997  0.00  0.00    +0.000 NA
ATOM      9  C   UNL     1       0.992  12.497  19.017  0.00  0.00    +0.000 A 
ATOM     10  C   UNL     1       1.533  13.745  18.656  0.00  0.00    +0.000 A 
ATOM     11  C   UNL     1       0.750  14.895  18.764  0.00  0.00    +0.000 A 
ATOM     12  C   UNL     1      -0.562  14.804  19.214  0.00  0.00    +0.000 A 
ATOM     13  C   UNL     1      -1.127  13.570  19.563  0.00  0.00    +0.000 A 
ATOM     14  C   UNL     1      -0.326  12.420  19.459  0.00  0.00    +0.000 A 
ATOM     15  S   UNL     1      -0.695  10.773  19.822  0.00  0.00    +0.000 S 
ENDBRANCH   5   7
BRANCH   1  21
ATOM     16  C   UNL     1       3.898   5.665  17.679  0.00  0.00    +0.000 A 
ATOM     17  C   UNL     1       4.207   4.448  17.050  0.00  0.00    +0.000 A 
ATOM     18  C   UNL     1       3.275   3.419  16.999  0.00  0.00    +0.000 A 
ATOM     19  C   UNL     1       2.033   3.595  17.589  0.00  0.00    +0.000 A 
ATOM     20  C   UNL     1       1.744   4.778  18.279  0.00  0.00    +0.000 A 
ATOM     21  C   UNL     1       2.672   5.837  18.381  0.00  0.00    +0.000 A 
BRANCH  16  22
ATOM     22  O   UNL     1       4.767   6.732  17.620  0.00  0.00    +0.000 OA
BRANCH  22  24
ATOM     23  C   UNL     1       7.152   6.805  17.605  0.00  0.00    +0.000 C 
ATOM     24  C   UNL     1       5.903   6.610  16.764  0.00  0.00    +0.000 C 
ENDBRANCH  22  24
ENDBRANCH  16  22
ENDBRANCH   1  21
BRANCH   6  25
ATOM     25  N   UNL     1       2.446   8.807  17.507  0.00  0.00    +0.000 N 
ATOM     26  H   UNL     1       3.466   8.805  17.409  0.00  0.00    +0.000 HD
ATOM     27  H   UNL     1       2.089   9.753  17.419  0.00  0.00    +0.000 HD
ENDBRANCH   6  25
TORSDOF 5
ENDMDL
MODEL 4
REMARK VINA RESULT:      -6.8      2.785      8.323
REMARK  Name = 
REMARK  6 active torsions:
REMARK  status: ('A' for Active; 'I' for Inactive)
REMARK    1  A    between atoms: C_1  and  C_2
REMARK    2  A    between atoms: C_2  and  O_3
REMARK    3  A    between atoms: O_3  and  C_4
REMARK    4  A    between atoms: C_9  and  N_10
REMARK    5  A    between atoms: C_14  and  C_15
REMARK    6  A    between atoms: C_24  and  N_25
REMARK                            x       y       z     vdW  Elec       q    Type
REMARK                         _______ _______ _______ _____ _____    ______ ____
ROOT
ATOM      1  N   UNL     1       0.807  10.174  19.630  0.00  0.00    +0.000 N 
ATOM      2  C   UNL     1       0.557   9.460  20.893  0.00  0.00    +0.000 C 
ATOM      3  C   UNL     1       1.362   8.191  20.668  0.00  0.00    +0.000 C 
ATOM      4  O   UNL     1       1.532   7.308  21.496  0.00  0.00    +0.000 OA
ATOM      5  C   UNL     1       1.887   8.182  19.291  0.00  0.00    +0.000 C 
ATOM      6  C   UNL     1       1.471   9.340  18.728  0.00  0.00    +0.000 C 
ENDROOT
BRANCH   5   7
ATOM      7  C   UNL     1       2.698   7.240  18.630  0.00  0.00    +0.000 A 
ATOM      8  N   UNL     1       3.662   7.586  17.790  0.00  0.00    +0.000 NA
ATOM      9  C   UNL     1       4.196   6.489  17.158  0.00  0.00    +0.000 A 
ATOM     10  C   UNL     1       5.194   6.532  16.166  0.00  0.00    +0.000 A 
ATOM     11  C   UNL     1       5.622   5.348  15.565  0.00  0.00    +0.000 A 
ATOM     12  C   UNL     1       5.073   4.132  15.953  0.00  0.00    +0.000 A 
ATOM     13  C   UNL     1       4.090   4.063  16.950  0.00  0.00    +0.000 A 
ATOM     14  C   UNL     1       3.661   5.263  17.542  0.00  0.00    +0.000 A 
ATOM     15  S   UNL     1       2.472   5.535  18.764  0.00  0.00    +0.000 S 
ENDBRANCH   5   7
BRANCH   1  21
ATOM     16  C   UNL     1      -0.777  12.106  19.378  0.00  0.00    +0.000 A 
ATOM     17  C   UNL     1      -0.990  13.494  19.434  0.00  0.00    +0.000 A 
ATOM     18  C   UNL     1       0.081  14.372  19.540  0.00  0.00    +0.000 A 
ATOM     19  C   UNL     1       1.371  13.869  19.606  0.00  0.00    +0.000 A 
ATOM     20  C   UNL     1       1.586  12.486  19.622  0.00  0.00    +0.000 A 
ATOM     21  C   UNL     1       0.525  11.557  19.546  0.00  0.00    +0.000 A 
BRANCH  16  22
ATOM     22  O   UNL     1      -1.821  11.239  19.143  0.00  0.00    +0.000 OA
BRANCH  22  24
ATOM     23  C   UNL     1      -1.934  10.016  17.097  0.00  0.00    +0.000 C 
ATOM     24  C   UNL     1      -2.407  11.253  17.841  0.00  0.00    +0.000 C 
ENDBRANCH  22  24
ENDBRANCH  16  22
ENDBRANCH   1  21
BRANCH   6  25
ATOM     25  N   UNL     1       1.657   9.633  17.390  0.00  0.00    +0.000 N 
ATOM     26  H   UNL     1       2.267  10.449  17.279  0.00  0.00    +0.000 HD
ATOM     27  H   UNL     1       0.758   9.808  16.954  0.00  0.00    +0.000 HD
ENDBRANCH   6  25
TORSDOF 5
ENDMDL
MODEL 5
REMARK VINA RESULT:      -6.8      1.549      1.861
REMARK  Name = 
REMARK  6 active torsions:
REMARK  status: ('A' for Active; 'I' for Inactive)
REMARK    1  A    between atoms: C_1  and  C_2
REMARK    2  A    between atoms: C_2  and  O_3
REMARK    3  A    between atoms: O_3  and  C_4
REMARK    4  A    between atoms: C_9  and  N_10
REMARK    5  A    between atoms: C_14  and  C_15
REMARK    6  A    between atoms: C_24  and  N_25
REMARK                            x       y       z     vdW  Elec       q    Type
REMARK                         _______ _______ _______ _____ _____    ______ ____
ROOT
ATOM      1  N   UNL     1       4.344   5.688  18.011  0.00  0.00    +0.000 N 
ATOM      2  C   UNL     1       4.100   4.766  19.133  0.00  0.00    +0.000 C 
ATOM      3  C   UNL     1       2.993   5.500  19.871  0.00  0.00    +0.000 C 
ATOM      4  O   UNL     1       2.391   5.073  20.845  0.00  0.00    +0.000 OA
ATOM      5  C   UNL     1       2.774   6.815  19.242  0.00  0.00    +0.000 C 
ATOM      6  C   UNL     1       3.640   6.878  18.204  0.00  0.00    +0.000 C 
ENDROOT
BRANCH   5   7
ATOM      7  C   UNL     1       1.852   7.832  19.551  0.00  0.00    +0.000 A 
ATOM      8  N   UNL     1       1.381   8.676  18.645  0.00  0.00    +0.000 NA
ATOM      9  C   UNL     1       0.627   9.668  19.225  0.00  0.00    +0.000 A 
ATOM     10  C   UNL     1       0.041  10.746  18.535  0.00  0.00    +0.000 A 
ATOM     11  C   UNL     1      -0.665  11.717  19.246  0.00  0.00    +0.000 A 
ATOM     12  C   UNL     1      -0.799  11.612  20.625  0.00  0.00    +0.000 A 
ATOM     13  C   UNL     1      -0.239  10.539  21.330  0.00  0.00    +0.000 A 
ATOM     14  C   UNL     1       0.479   9.571  20.605  0.00  0.00    +0.000 A 
ATOM     15  S   UNL     1       1.301   8.156  21.155  0.00  0.00    +0.000 S 
ENDBRANCH   5   7
BRANCH   1  21
ATOM     16  C   UNL     1       6.191   5.897  16.322  0.00  0.00    +0.000 A 
ATOM     17  C   UNL     1       6.930   5.315  15.280  0.00  0.00    +0.000 A 
ATOM     18  C   UNL     1       6.512   4.128  14.691  0.00  0.00    +0.000 A 
ATOM     19  C   UNL     1       5.360   3.508  15.149  0.00  0.00    +0.000 A 
ATOM     20  C   UNL     1       4.658   4.045  16.235  0.00  0.00    +0.000 A 
ATOM     21  C   UNL     1       5.063   5.233  16.882  0.00  0.00    +0.000 A 
BRANCH  16  22
ATOM     22  O   UNL     1       6.526   7.137  16.822  0.00  0.00    +0.000 OA
BRANCH  22  24
ATOM     23  C   UNL     1       8.050   8.633  17.886  0.00  0.00    +0.000 C 
ATOM     24  C   UNL     1       7.574   7.194  17.790  0.00  0.00    +0.000 C 
ENDBRANCH  22  24
ENDBRANCH  16  22
ENDBRANCH   1  21
BRANCH   6  25
ATOM     25  N   UNL     1       3.824   8.021  17.449  0.00  0.00    +0.000 N 
ATOM     26  H   UNL     1       3.534   7.866  16.478  0.00  0.00    +0.000 HD
ATOM     27  H   UNL     1       4.801   8.294  17.482  0.00  0.00    +0.000 HD
ENDBRANCH   6  25
TORSDOF 5
ENDMDL
MODEL 6
REMARK VINA RESULT:      -6.7      3.327      5.181
REMARK  Name = 
REMARK  6 active torsions:
REMARK  status: ('A' for Active; 'I' for Inactive)
REMARK    1  A    between atoms: C_1  and  C_2
REMARK    2  A    between atoms: C_2  and  O_3
REMARK    3  A    between atoms: O_3  and  C_4
REMARK    4  A    between atoms: C_9  and  N_10
REMARK    5  A    between atoms: C_14  and  C_15
REMARK    6  A    between atoms: C_24  and  N_25
REMARK                            x       y       z     vdW  Elec       q    Type
REMARK                         _______ _______ _______ _____ _____    ______ ____
ROOT
ATOM      1  N   UNL     1       2.535   6.950  18.961  0.00  0.00    +0.000 N 
ATOM      2  C   UNL     1       2.513   7.678  17.681  0.00  0.00    +0.000 C 
ATOM      3  C   UNL     1       1.942   9.015  18.122  0.00  0.00    +0.000 C 
ATOM      4  O   UNL     1       1.813   9.998  17.407  0.00  0.00    +0.000 OA
ATOM      5  C   UNL     1       1.547   8.935  19.540  0.00  0.00    +0.000 C 
ATOM      6  C   UNL     1       1.866   7.682  19.944  0.00  0.00    +0.000 C 
ENDROOT
BRANCH   5   7
ATOM      7  C   UNL     1       0.997   9.912  20.391  0.00  0.00    +0.000 A 
ATOM      8  N   UNL     1       0.176   9.618  21.387  0.00  0.00    +0.000 NA
ATOM      9  C   UNL     1      -0.345  10.752  21.962  0.00  0.00    +0.000 A 
ATOM     10  C   UNL     1      -1.293  10.770  23.003  0.00  0.00    +0.000 A 
ATOM     11  C   UNL     1      -1.781  11.991  23.471  0.00  0.00    +0.000 A 
ATOM     12  C   UNL     1      -1.324  13.182  22.919  0.00  0.00    +0.000 A 
ATOM     13  C   UNL     1      -0.369  13.188  21.893  0.00  0.00    +0.000 A 
ATOM     14  C   UNL     1       0.109  11.953  21.424  0.00  0.00    +0.000 A 
ATOM     15  S   UNL     1       1.253  11.606  20.178  0.00  0.00    +0.000 S 
ENDBRANCH   5   7
BRANCH   1  21
ATOM     16  C   UNL     1       2.778   4.468  19.255  0.00  0.00    +0.000 A 
ATOM     17  C   UNL     1       3.610   3.336  19.234  0.00  0.00    +0.000 A 
ATOM     18  C   UNL     1       4.990   3.473  19.156  0.00  0.00    +0.000 A 
ATOM     19  C   UNL     1       5.547   4.741  19.084  0.00  0.00    +0.000 A 
ATOM     20  C   UNL     1       4.721   5.869  19.033  0.00  0.00    +0.000 A 
ATOM     21  C   UNL     1       3.312   5.775  19.079  0.00  0.00    +0.000 A 
BRANCH  16  22
ATOM     22  O   UNL     1       1.421   4.345  19.462  0.00  0.00    +0.000 OA
BRANCH  22  24
ATOM     23  C   UNL     1       1.270   2.943  21.387  0.00  0.00    +0.000 C 
ATOM     24  C   UNL     1       0.936   3.079  19.912  0.00  0.00    +0.000 C 
ENDBRANCH  22  24
ENDBRANCH  16  22
ENDBRANCH   1  21
BRANCH   6  25
ATOM     25  N   UNL     1       1.523   7.185  21.187  0.00  0.00    +0.000 N 
ATOM     26  H   UNL     1       1.877   6.231  21.307  0.00  0.00    +0.000 HD
ATOM     27  H   UNL     1       0.513   7.198  21.288  0.00  0.00    +0.000 HD
ENDBRANCH   6  25
TORSDOF 5
ENDMDL
MODEL 7
REMARK VINA RESULT:      -6.7      2.126      7.942
REMARK  Name = 
REMARK  6 active torsions:
REMARK  status: ('A' for Active; 'I' for Inactive)
REMARK    1  A    between atoms: C_1  and  C_2
REMARK    2  A    between atoms: C_2  and  O_3
REMARK    3  A    between atoms: O_3  and  C_4
REMARK    4  A    between atoms: C_9  and  N_10
REMARK    5  A    between atoms: C_14  and  C_15
REMARK    6  A    between atoms: C_24  and  N_25
REMARK                            x       y       z     vdW  Elec       q    Type
REMARK                         _______ _______ _______ _____ _____    ______ ____
ROOT
ATOM      1  N   UNL     1       1.353   7.599  20.374  0.00  0.00    +0.000 N 
ATOM      2  C   UNL     1       1.144   6.281  20.996  0.00  0.00    +0.000 C 
ATOM      3  C   UNL     1       2.255   5.477  20.341  0.00  0.00    +0.000 C 
ATOM      4  O   UNL     1       2.542   4.320  20.612  0.00  0.00    +0.000 OA
ATOM      5  C   UNL     1       2.918   6.302  19.316  0.00  0.00    +0.000 C 
ATOM      6  C   UNL     1       2.297   7.505  19.349  0.00  0.00    +0.000 C 
ENDROOT
BRANCH   5   7
ATOM      7  C   UNL     1       4.003   6.008  18.470  0.00  0.00    +0.000 A 
ATOM      8  N   UNL     1       3.951   6.160  17.155  0.00  0.00    +0.000 NA
ATOM      9  C   UNL     1       5.075   5.655  16.545  0.00  0.00    +0.000 A 
ATOM     10  C   UNL     1       5.292   5.613  15.155  0.00  0.00    +0.000 A 
ATOM     11  C   UNL     1       6.457   5.031  14.655  0.00  0.00    +0.000 A 
ATOM     12  C   UNL     1       7.404   4.508  15.528  0.00  0.00    +0.000 A 
ATOM     13  C   UNL     1       7.217   4.554  16.916  0.00  0.00    +0.000 A 
ATOM     14  C   UNL     1       6.035   5.134  17.408  0.00  0.00    +0.000 A 
ATOM     15  S   UNL     1       5.488   5.331  19.033  0.00  0.00    +0.000 S 
ENDBRANCH   5   7
BRANCH   1  21
ATOM     16  C   UNL     1       0.032   9.729  20.220  0.00  0.00    +0.000 A 
ATOM     17  C   UNL     1      -0.646  10.767  20.881  0.00  0.00    +0.000 A 
ATOM     18  C   UNL     1      -0.535  10.922  22.257  0.00  0.00    +0.000 A 
ATOM     19  C   UNL     1       0.242  10.033  22.984  0.00  0.00    +0.000 A 
ATOM     20  C   UNL     1       0.862   8.955  22.341  0.00  0.00    +0.000 A 
ATOM     21  C   UNL     1       0.752   8.742  20.950  0.00  0.00    +0.000 A 
BRANCH  16  22
ATOM     22  O   UNL     1       0.032   9.647  18.845  0.00  0.00    +0.000 OA
BRANCH  22  24
ATOM     23  C   UNL     1      -1.833   9.940  17.385  0.00  0.00    +0.000 C 
ATOM     24  C   UNL     1      -0.706  10.637  18.127  0.00  0.00    +0.000 C 
ENDBRANCH  22  24
ENDBRANCH  16  22
ENDBRANCH   1  21
BRANCH   6  25
ATOM     25  N   UNL     1       2.556   8.508  18.434  0.00  0.00    +0.000 N 
ATOM     26  H   UNL     1       3.211   9.193  18.822  0.00  0.00    +0.000 HD
ATOM     27  H   UNL     1       1.686   8.964  18.179  0.00  0.00    +0.000 HD
ENDBRANCH   6  25
TORSDOF 5
ENDMDL
MODEL 8
REMARK VINA RESULT:      -6.6      4.015      8.345
REMARK  Name = 
REMARK  6 active torsions:
REMARK  status: ('A' for Active; 'I' for Inactive)
REMARK    1  A    between atoms: C_1  and  C_2
REMARK    2  A    between atoms: C_2  and  O_3
REMARK    3  A    between atoms: O_3  and  C_4
REMARK    4  A    between atoms: C_9  and  N_10
REMARK    5  A    between atoms: C_14  and  C_15
REMARK    6  A    between atoms: C_24  and  N_25
REMARK                            x       y       z     vdW  Elec       q    Type
REMARK                         _______ _______ _______ _____ _____    ______ ____
ROOT
ATOM      1  N   UNL     1       1.167   9.891  19.300  0.00  0.00    +0.000 N 
ATOM      2  C   UNL     1       1.876  10.035  18.018  0.00  0.00    +0.000 C 
ATOM      3  C   UNL     1       2.441   8.635  17.845  0.00  0.00    +0.000 C 
ATOM      4  O   UNL     1       3.049   8.237  16.862  0.00  0.00    +0.000 OA
ATOM      5  C   UNL     1       2.160   7.841  19.054  0.00  0.00    +0.000 C 
ATOM      6  C   UNL     1       1.469   8.659  19.883  0.00  0.00    +0.000 C 
ENDROOT
BRANCH   5   7
ATOM      7  C   UNL     1       2.461   6.499  19.355  0.00  0.00    +0.000 A 
ATOM      8  N   UNL     1       1.773   5.789  20.236  0.00  0.00    +0.000 NA
ATOM      9  C   UNL     1       2.361   4.567  20.466  0.00  0.00    +0.000 A 
ATOM     10  C   UNL     1       1.903   3.611  21.391  0.00  0.00    +0.000 A 
ATOM     11  C   UNL     1       2.616   2.424  21.568  0.00  0.00    +0.000 A 
ATOM     12  C   UNL     1       3.765   2.185  20.823  0.00  0.00    +0.000 A 
ATOM     13  C   UNL     1       4.230   3.115  19.884  0.00  0.00    +0.000 A 
ATOM     14  C   UNL     1       3.509   4.311  19.721  0.00  0.00    +0.000 A 
ATOM     15  S   UNL     1       3.811   5.658  18.685  0.00  0.00    +0.000 S 
ENDBRANCH   5   7
BRANCH   1  21
ATOM     16  C   UNL     1      -1.118  10.924  19.167  0.00  0.00    +0.000 A 
ATOM     17  C   UNL     1      -2.051  11.837  19.688  0.00  0.00    +0.000 A 
ATOM     18  C   UNL     1      -1.669  12.778  20.636  0.00  0.00    +0.000 A 
ATOM     19  C   UNL     1      -0.356  12.804  21.080  0.00  0.00    +0.000 A 
ATOM     20  C   UNL     1       0.561  11.853  20.618  0.00  0.00    +0.000 A 
ATOM     21  C   UNL     1       0.208  10.860  19.678  0.00  0.00    +0.000 A 
BRANCH  16  22
ATOM     22  O   UNL     1      -1.458  10.077  18.136  0.00  0.00    +0.000 OA
BRANCH  22  24
ATOM     23  C   UNL     1      -2.679  10.266  16.095  0.00  0.00    +0.000 C 
ATOM     24  C   UNL     1      -2.781  10.179  17.608  0.00  0.00    +0.000 C 
ENDBRANCH  22  24
ENDBRANCH  16  22
ENDBRANCH   1  21
BRANCH   6  25
ATOM     25  N   UNL     1       1.141   8.308  21.179  0.00  0.00    +0.000 N 
ATOM     26  H   UNL     1       1.907   7.791  21.621  0.00  0.00    +0.000 HD
ATOM     27  H   UNL     1       0.297   7.744  21.172  0.00  0.00    +0.000 HD
ENDBRANCH   6  25
TORSDOF 5
ENDMDL
MODEL 9
REMARK VINA RESULT:      -6.5      3.978      8.689
REMARK  Name = 
REMARK  6 active torsions:
REMARK  status: ('A' for Active; 'I' for Inactive)
REMARK    1  A    between atoms: C_1  and  C_2
REMARK    2  A    between atoms: C_2  and  O_3
REMARK    3  A    between atoms: O_3  and  C_4
REMARK    4  A    between atoms: C_9  and  N_10
REMARK    5  A    between atoms: C_14  and  C_15
REMARK    6  A    between atoms: C_24  and  N_25
REMARK                            x       y       z     vdW  Elec       q    Type
REMARK                         _______ _______ _______ _____ _____    ______ ____
ROOT
ATOM      1  N   UNL     1       0.952  10.290  20.510  0.00  0.00    +0.000 N 
ATOM      2  C   UNL     1       1.056  10.548  19.064  0.00  0.00    +0.000 C 
ATOM      3  C   UNL     1       1.486   9.180  18.560  0.00  0.00    +0.000 C 
ATOM      4  O   UNL     1       1.621   8.872  17.385  0.00  0.00    +0.000 OA
ATOM      5  C   UNL     1       1.737   8.292  19.709  0.00  0.00    +0.000 C 
ATOM      6  C   UNL     1       1.464   9.027  20.813  0.00  0.00    +0.000 C 
ENDROOT
BRANCH   5   7
ATOM      7  C   UNL     1       2.128   6.940  19.749  0.00  0.00    +0.000 A 
ATOM      8  N   UNL     1       1.629   6.073  20.617  0.00  0.00    +0.000 NA
ATOM      9  C   UNL     1       2.286   4.867  20.558  0.00  0.00    +0.000 A 
ATOM     10  C   UNL     1       2.030   3.764  21.393  0.00  0.00    +0.000 A 
ATOM     11  C   UNL     1       2.799   2.607  21.265  0.00  0.00    +0.000 A 
ATOM     12  C   UNL     1       3.806   2.543  20.309  0.00  0.00    +0.000 A 
ATOM     13  C   UNL     1       4.068   3.622  19.455  0.00  0.00    +0.000 A 
ATOM     14  C   UNL     1       3.292   4.786  19.599  0.00  0.00    +0.000 A 
ATOM     15  S   UNL     1       3.364   6.282  18.740  0.00  0.00    +0.000 S 
ENDBRANCH   5   7
BRANCH   1  21
ATOM     16  C   UNL     1       0.517  12.597  21.401  0.00  0.00    +0.000 A 
ATOM     17  C   UNL     1      -0.311  13.458  22.141  0.00  0.00    +0.000 A 
ATOM     18  C   UNL     1      -1.347  12.952  22.915  0.00  0.00    +0.000 A 
ATOM     19  C   UNL     1      -1.572  11.584  22.944  0.00  0.00    +0.000 A 
ATOM     20  C   UNL     1      -0.796  10.728  22.154  0.00  0.00    +0.000 A 
ATOM     21  C   UNL     1       0.248  11.202  21.330  0.00  0.00    +0.000 A 
BRANCH  16  22
ATOM     22  O   UNL     1       1.623  13.078  20.736  0.00  0.00    +0.000 OA
BRANCH  22  24
ATOM     23  C   UNL     1       2.651  14.252  18.931  0.00  0.00    +0.000 C 
ATOM     24  C   UNL     1       1.424  14.156  19.820  0.00  0.00    +0.000 C 
ENDBRANCH  22  24
ENDBRANCH  16  22
ENDBRANCH   1  21
BRANCH   6  25
ATOM     25  N   UNL     1       1.710   8.573  22.095  0.00  0.00    +0.000 N 
ATOM     26  H   UNL     1       2.258   9.258  22.624  0.00  0.00    +0.000 HD
ATOM     27  H   UNL     1       2.207   7.689  22.051  0.00  0.00    +0.000 HD
ENDBRANCH   6  25
TORSDOF 5
ENDMDL
