MODEL 1
REMARK VINA RESULT:      -7.0      0.000      0.000
REMARK  Name = 
REMARK  7 active torsions:
REMARK  status: ('A' for Active; 'I' for Inactive)
REMARK    1  A    between atoms: C_1  and  C_2
REMARK    2  A    between atoms: C_2  and  N_3
REMARK    3  A    between atoms: N_3  and  C_4
REMARK    4  A    between atoms: N_3  and  C_6
REMARK    5  A    between atoms: C_4  and  C_5
REMARK    6  A    between atoms: C_6  and  C_7
REMARK    7  A    between atoms: C_7  and  N_8
REMARK                            x       y       z     vdW  Elec       q    Type
REMARK                         _______ _______ _______ _____ _____    ______ ____
ROOT
ATOM      1  N   UNL     1       4.347   4.946  16.644  0.00  0.00    +0.000 N 
ATOM      2  C   UNL     1       3.461   5.493  17.548  0.00  0.00    +0.000 C 
ATOM      3  N   UNL     1       3.466   6.774  17.756  0.00  0.00    +0.000 NA
ATOM      4  C   UNL     1       2.504   7.312  18.723  0.00  0.00    +0.000 C 
ATOM      5  C   UNL     1       2.399   6.430  19.962  0.00  0.00    +0.000 C 
ATOM      6  C   UNL     1       2.031   5.043  19.530  0.00  0.00    +0.000 A 
ATOM      7  C   UNL     1       1.221   4.211  20.309  0.00  0.00    +0.000 A 
ATOM      8  C   UNL     1       0.853   2.954  19.835  0.00  0.00    +0.000 A 
ATOM      9  C   UNL     1       1.292   2.524  18.579  0.00  0.00    +0.000 A 
ATOM     10  C   UNL     1       2.137   3.333  17.812  0.00  0.00    +0.000 A 
ATOM     11  C   UNL     1       2.529   4.583  18.299  0.00  0.00    +0.000 A 
ATOM     12  H   UNL     1       4.609   3.978  16.773  0.00  0.00    +0.000 HD
ENDROOT
BRANCH   1  13
ATOM     13  C   UNL     1       5.286   5.757  15.870  0.00  0.00    +0.000 C 
BRANCH  13  14
ATOM     14  C   UNL     1       6.756   5.306  16.045  0.00  0.00    +0.000 C 
BRANCH  14  15
ATOM     15  N   UNL     1       7.509   5.986  17.130  0.00  0.00    +0.000 NA
BRANCH  15  17
ATOM     16  C   UNL     1       8.049   8.376  17.742  0.00  0.00    +0.000 C 
ATOM     17  C   UNL     1       6.990   7.351  17.339  0.00  0.00    +0.000 C 
ENDBRANCH  15  17
BRANCH  15  18
ATOM     18  C   UNL     1       7.657   5.202  18.360  0.00  0.00    +0.000 C 
ATOM     19  C   UNL     1       6.571   5.392  19.412  0.00  0.00    +0.000 C 
ENDBRANCH  15  18
ENDBRANCH  14  15
ENDBRANCH  13  14
ENDBRANCH   1  13
TORSDOF 5
ENDMDL
MODEL 2
REMARK VINA RESULT:      -6.7      1.783      3.040
REMARK  Name = 
REMARK  7 active torsions:
REMARK  status: ('A' for Active; 'I' for Inactive)
REMARK    1  A    between atoms: C_1  and  C_2
REMARK    2  A    between atoms: C_2  and  N_3
REMARK    3  A    between atoms: N_3  and  C_4
REMARK    4  A    between atoms: N_3  and  C_6
REMARK    5  A    between atoms: C_4  and  C_5
REMARK    6  A    between atoms: C_6  and  C_7
REMARK    7  A    between atoms: C_7  and  N_8
REMARK                            x       y       z     vdW  Elec       q    Type
REMARK                         _______ _______ _______ _____ _____    ______ ____
ROOT
ATOM      1  N   UNL     1       5.610   3.965  18.957  0.00  0.00    +0.000 N 
ATOM      2  C   UNL     1       4.339   3.660  18.519  0.00  0.00    +0.000 C 
ATOM      3  N   UNL     1       4.079   3.677  17.247  0.00  0.00    +0.000 NA
ATOM      4  C   UNL     1       2.714   3.342  16.826  0.00  0.00    +0.000 C 
ATOM      5  C   UNL     1       1.672   3.984  17.735  0.00  0.00    +0.000 C 
ATOM      6  C   UNL     1       1.937   3.550  19.145  0.00  0.00    +0.000 A 
ATOM      7  C   UNL     1       0.906   3.350  20.068  0.00  0.00    +0.000 A 
ATOM      8  C   UNL     1       1.197   2.884  21.348  0.00  0.00    +0.000 A 
ATOM      9  C   UNL     1       2.521   2.615  21.709  0.00  0.00    +0.000 A 
ATOM     10  C   UNL     1       3.562   2.853  20.806  0.00  0.00    +0.000 A 
ATOM     11  C   UNL     1       3.272   3.347  19.531  0.00  0.00    +0.000 A 
ATOM     12  H   UNL     1       5.707   4.328  19.896  0.00  0.00    +0.000 HD
ENDROOT
BRANCH   1  13
ATOM     13  C   UNL     1       6.707   4.278  18.043  0.00  0.00    +0.000 C 
BRANCH  13  14
ATOM     14  C   UNL     1       6.773   5.781  17.676  0.00  0.00    +0.000 C 
BRANCH  14  15
ATOM     15  N   UNL     1       6.529   6.102  16.246  0.00  0.00    +0.000 NA
BRANCH  15  17
ATOM     16  C   UNL     1       5.950   4.543  14.345  0.00  0.00    +0.000 C 
ATOM     17  C   UNL     1       6.976   4.990  15.386  0.00  0.00    +0.000 C 
ENDBRANCH  15  17
BRANCH  15  18
ATOM     18  C   UNL     1       5.178   6.590  15.948  0.00  0.00    +0.000 C 
ATOM     19  C   UNL     1       4.372   7.100  17.136  0.00  0.00    +0.000 C 
ENDBRANCH  15  18
ENDBRANCH  14  15
ENDBRANCH  13  14
ENDBRANCH   1  13
TORSDOF 5
ENDMDL
MODEL 3
REMARK VINA RESULT:      -6.6      1.246      2.277
REMARK  Name = 
REMARK  7 active torsions:
REMARK  status: ('A' for Active; 'I' for Inactive)
REMARK    1  A    between atoms: C_1  and  C_2
REMARK    2  A    between atoms: C_2  and  N_3
REMARK    3  A    between atoms: N_3  and  C_4
REMARK    4  A    between atoms: N_3  and  C_6
REMARK    5  A    between atoms: C_4  and  C_5
REMARK    6  A    between atoms: C_6  and  C_7
REMARK    7  A    between atoms: C_7  and  N_8
REMARK                            x       y       z     vdW  Elec       q    Type
REMARK                         _______ _______ _______ _____ _____    ______ ____
ROOT
ATOM      1  N   UNL     1       5.509   3.950  18.702  0.00  0.00    +0.000 N 
ATOM      2  C   UNL     1       4.293   4.552  18.947  0.00  0.00    +0.000 C 
ATOM      3  N   UNL     1       4.246   5.823  19.202  0.00  0.00    +0.000 NA
ATOM      4  C   UNL     1       2.931   6.421  19.452  0.00  0.00    +0.000 C 
ATOM      5  C   UNL     1       2.064   5.526  20.331  0.00  0.00    +0.000 C 
ATOM      6  C   UNL     1       1.945   4.185  19.675  0.00  0.00    +0.000 A 
ATOM      7  C   UNL     1       0.786   3.409  19.773  0.00  0.00    +0.000 A 
ATOM      8  C   UNL     1       0.699   2.197  19.091  0.00  0.00    +0.000 A 
ATOM      9  C   UNL     1       1.771   1.757  18.308  0.00  0.00    +0.000 A 
ATOM     10  C   UNL     1       2.950   2.507  18.239  0.00  0.00    +0.000 A 
ATOM     11  C   UNL     1       3.047   3.709  18.945  0.00  0.00    +0.000 A 
ATOM     12  H   UNL     1       5.589   2.961  18.895  0.00  0.00    +0.000 HD
ENDROOT
BRANCH   1  13
ATOM     13  C   UNL     1       6.768   4.694  18.683  0.00  0.00    +0.000 C 
BRANCH  13  14
ATOM     14  C   UNL     1       7.383   4.797  17.266  0.00  0.00    +0.000 C 
BRANCH  14  15
ATOM     15  N   UNL     1       6.927   5.954  16.453  0.00  0.00    +0.000 NA
BRANCH  15  17
ATOM     16  C   UNL     1       6.060   4.176  14.883  0.00  0.00    +0.000 C 
ATOM     17  C   UNL     1       5.850   5.543  15.532  0.00  0.00    +0.000 C 
ENDBRANCH  15  17
BRANCH  15  18
ATOM     18  C   UNL     1       6.633   7.168  17.223  0.00  0.00    +0.000 C 
ATOM     19  C   UNL     1       7.825   8.057  17.554  0.00  0.00    +0.000 C 
ENDBRANCH  15  18
ENDBRANCH  14  15
ENDBRANCH  13  14
ENDBRANCH   1  13
TORSDOF 5
ENDMDL
MODEL 4
REMARK VINA RESULT:      -6.6      1.127      1.829
REMARK  Name = 
REMARK  7 active torsions:
REMARK  status: ('A' for Active; 'I' for Inactive)
REMARK    1  A    between atoms: C_1  and  C_2
REMARK    2  A    between atoms: C_2  and  N_3
REMARK    3  A    between atoms: N_3  and  C_4
REMARK    4  A    between atoms: N_3  and  C_6
REMARK    5  A    between atoms: C_4  and  C_5
REMARK    6  A    between atoms: C_6  and  C_7
REMARK    7  A    between atoms: C_7  and  N_8
REMARK                            x       y       z     vdW  Elec       q    Type
REMARK                         _______ _______ _______ _____ _____    ______ ____
ROOT
ATOM      1  N   UNL     1       4.036   5.806  17.242  0.00  0.00    +0.000 N 
ATOM      2  C   UNL     1       3.087   6.009  18.222  0.00  0.00    +0.000 C 
ATOM      3  N   UNL     1       2.936   7.193  18.732  0.00  0.00    +0.000 NA
ATOM      4  C   UNL     1       1.913   7.364  19.768  0.00  0.00    +0.000 C 
ATOM      5  C   UNL     1       1.912   6.201  20.755  0.00  0.00    +0.000 C 
ATOM      6  C   UNL     1       1.716   4.927  19.990  0.00  0.00    +0.000 A 
ATOM      7  C   UNL     1       1.012   3.842  20.520  0.00  0.00    +0.000 A 
ATOM      8  C   UNL     1       0.801   2.703  19.746  0.00  0.00    +0.000 A 
ATOM      9  C   UNL     1       1.292   2.646  18.438  0.00  0.00    +0.000 A 
ATOM     10  C   UNL     1       2.035   3.710  17.916  0.00  0.00    +0.000 A 
ATOM     11  C   UNL     1       2.270   4.842  18.702  0.00  0.00    +0.000 A 
ATOM     12  H   UNL     1       4.413   4.872  17.142  0.00  0.00    +0.000 HD
ENDROOT
BRANCH   1  13
ATOM     13  C   UNL     1       4.871   6.884  16.716  0.00  0.00    +0.000 C 
BRANCH  13  14
ATOM     14  C   UNL     1       6.374   6.517  16.680  0.00  0.00    +0.000 C 
BRANCH  14  15
ATOM     15  N   UNL     1       6.680   5.064  16.743  0.00  0.00    +0.000 NA
BRANCH  15  17
ATOM     16  C   UNL     1       5.879   3.995  14.600  0.00  0.00    +0.000 C 
ATOM     17  C   UNL     1       7.048   4.558  15.408  0.00  0.00    +0.000 C 
ENDBRANCH  15  17
BRANCH  15  18
ATOM     18  C   UNL     1       7.607   4.678  17.812  0.00  0.00    +0.000 C 
ATOM     19  C   UNL     1       7.712   5.639  18.990  0.00  0.00    +0.000 C 
ENDBRANCH  15  18
ENDBRANCH  14  15
ENDBRANCH  13  14
ENDBRANCH   1  13
TORSDOF 5
ENDMDL
MODEL 5
REMARK VINA RESULT:      -6.5      0.914      1.805
REMARK  Name = 
REMARK  7 active torsions:
REMARK  status: ('A' for Active; 'I' for Inactive)
REMARK    1  A    between atoms: C_1  and  C_2
REMARK    2  A    between atoms: C_2  and  N_3
REMARK    3  A    between atoms: N_3  and  C_4
REMARK    4  A    between atoms: N_3  and  C_6
REMARK    5  A    between atoms: C_4  and  C_5
REMARK    6  A    between atoms: C_6  and  C_7
REMARK    7  A    between atoms: C_7  and  N_8
REMARK                            x       y       z     vdW  Elec       q    Type
REMARK                         _______ _______ _______ _____ _____    ______ ____
ROOT
ATOM      1  N   UNL     1       4.110   5.726  17.041  0.00  0.00    +0.000 N 
ATOM      2  C   UNL     1       3.178   6.039  18.008  0.00  0.00    +0.000 C 
ATOM      3  N   UNL     1       3.069   7.265  18.419  0.00  0.00    +0.000 NA
ATOM      4  C   UNL     1       2.062   7.554  19.446  0.00  0.00    +0.000 C 
ATOM      5  C   UNL     1       2.036   6.477  20.525  0.00  0.00    +0.000 C 
ATOM      6  C   UNL     1       1.794   5.151  19.870  0.00  0.00    +0.000 A 
ATOM      7  C   UNL     1       1.062   4.136  20.494  0.00  0.00    +0.000 A 
ATOM      8  C   UNL     1       0.807   2.945  19.819  0.00  0.00    +0.000 A 
ATOM      9  C   UNL     1       1.283   2.764  18.516  0.00  0.00    +0.000 A 
ATOM     10  C   UNL     1       2.052   3.757  17.901  0.00  0.00    +0.000 A 
ATOM     11  C   UNL     1       2.331   4.942  18.589  0.00  0.00    +0.000 A 
ATOM     12  H   UNL     1       4.456   4.776  17.016  0.00  0.00    +0.000 HD
ENDROOT
BRANCH   1  13
ATOM     13  C   UNL     1       4.972   6.730  16.420  0.00  0.00    +0.000 C 
BRANCH  13  14
ATOM     14  C   UNL     1       6.406   6.734  17.003  0.00  0.00    +0.000 C 
BRANCH  14  15
ATOM     15  N   UNL     1       7.303   5.661  16.502  0.00  0.00    +0.000 NA
BRANCH  15  17
ATOM     16  C   UNL     1       7.437   5.243  18.989  0.00  0.00    +0.000 C 
ATOM     17  C   UNL     1       7.593   4.690  17.573  0.00  0.00    +0.000 C 
ENDBRANCH  15  17
BRANCH  15  18
ATOM     18  C   UNL     1       6.886   5.055  15.233  0.00  0.00    +0.000 C 
ATOM     19  C   UNL     1       6.270   3.664  15.324  0.00  0.00    +0.000 C 
ENDBRANCH  15  18
ENDBRANCH  14  15
ENDBRANCH  13  14
ENDBRANCH   1  13
TORSDOF 5
ENDMDL
MODEL 6
REMARK VINA RESULT:      -6.4      1.287      2.939
REMARK  Name = 
REMARK  7 active torsions:
REMARK  status: ('A' for Active; 'I' for Inactive)
REMARK    1  A    between atoms: C_1  and  C_2
REMARK    2  A    between atoms: C_2  and  N_3
REMARK    3  A    between atoms: N_3  and  C_4
REMARK    4  A    between atoms: N_3  and  C_6
REMARK    5  A    between atoms: C_4  and  C_5
REMARK    6  A    between atoms: C_6  and  C_7
REMARK    7  A    between atoms: C_7  and  N_8
REMARK                            x       y       z     vdW  Elec       q    Type
REMARK                         _______ _______ _______ _____ _____    ______ ____
ROOT
ATOM      1  N   UNL     1       4.087   5.963  17.499  0.00  0.00    +0.000 N 
ATOM      2  C   UNL     1       3.762   4.648  17.756  0.00  0.00    +0.000 C 
ATOM      3  N   UNL     1       4.175   3.717  16.952  0.00  0.00    +0.000 NA
ATOM      4  C   UNL     1       3.809   2.332  17.266  0.00  0.00    +0.000 C 
ATOM      5  C   UNL     1       2.361   2.226  17.732  0.00  0.00    +0.000 C 
ATOM      6  C   UNL     1       2.172   3.129  18.913  0.00  0.00    +0.000 A 
ATOM      7  C   UNL     1       1.298   2.814  19.958  0.00  0.00    +0.000 A 
ATOM      8  C   UNL     1       1.205   3.653  21.066  0.00  0.00    +0.000 A 
ATOM      9  C   UNL     1       1.987   4.811  21.133  0.00  0.00    +0.000 A 
ATOM     10  C   UNL     1       2.831   5.155  20.072  0.00  0.00    +0.000 A 
ATOM     11  C   UNL     1       2.904   4.327  18.948  0.00  0.00    +0.000 A 
ATOM     12  H   UNL     1       3.470   6.678  17.864  0.00  0.00    +0.000 HD
ENDROOT
BRANCH   1  13
ATOM     13  C   UNL     1       4.918   6.364  16.365  0.00  0.00    +0.000 C 
BRANCH  13  14
ATOM     14  C   UNL     1       6.399   6.589  16.754  0.00  0.00    +0.000 C 
BRANCH  14  15
ATOM     15  N   UNL     1       7.313   5.451  16.478  0.00  0.00    +0.000 NA
BRANCH  15  17
ATOM     16  C   UNL     1       7.674   5.592  18.973  0.00  0.00    +0.000 C 
ATOM     17  C   UNL     1       7.611   4.717  17.722  0.00  0.00    +0.000 C 
ENDBRANCH  15  17
BRANCH  15  18
ATOM     18  C   UNL     1       6.909   4.597  15.355  0.00  0.00    +0.000 C 
ATOM     19  C   UNL     1       7.376   5.039  13.974  0.00  0.00    +0.000 C 
ENDBRANCH  15  18
ENDBRANCH  14  15
ENDBRANCH  13  14
ENDBRANCH   1  13
TORSDOF 5
ENDMDL
MODEL 7
REMARK VINA RESULT:      -6.3      1.652      2.844
REMARK  Name = 
REMARK  7 active torsions:
REMARK  status: ('A' for Active; 'I' for Inactive)
REMARK    1  A    between atoms: C_1  and  C_2
REMARK    2  A    between atoms: C_2  and  N_3
REMARK    3  A    between atoms: N_3  and  C_4
REMARK    4  A    between atoms: N_3  and  C_6
REMARK    5  A    between atoms: C_4  and  C_5
REMARK    6  A    between atoms: C_6  and  C_7
REMARK    7  A    between atoms: C_7  and  N_8
REMARK                            x       y       z     vdW  Elec       q    Type
REMARK                         _______ _______ _______ _____ _____    ______ ____
ROOT
ATOM      1  N   UNL     1       5.644   3.905  19.028  0.00  0.00    +0.000 N 
ATOM      2  C   UNL     1       4.378   3.644  18.548  0.00  0.00    +0.000 C 
ATOM      3  N   UNL     1       4.158   3.674  17.269  0.00  0.00    +0.000 NA
ATOM      4  C   UNL     1       2.798   3.386  16.803  0.00  0.00    +0.000 C 
ATOM      5  C   UNL     1       1.749   4.059  17.682  0.00  0.00    +0.000 C 
ATOM      6  C   UNL     1       1.955   3.612  19.097  0.00  0.00    +0.000 A 
ATOM      7  C   UNL     1       0.889   3.444  19.986  0.00  0.00    +0.000 A 
ATOM      8  C   UNL     1       1.124   2.964  21.273  0.00  0.00    +0.000 A 
ATOM      9  C   UNL     1       2.426   2.651  21.675  0.00  0.00    +0.000 A 
ATOM     10  C   UNL     1       3.502   2.857  20.806  0.00  0.00    +0.000 A 
ATOM     11  C   UNL     1       3.270   3.364  19.524  0.00  0.00    +0.000 A 
ATOM     12  H   UNL     1       5.723   4.262  19.971  0.00  0.00    +0.000 HD
ENDROOT
BRANCH   1  13
ATOM     13  C   UNL     1       6.779   4.185  18.150  0.00  0.00    +0.000 C 
BRANCH  13  14
ATOM     14  C   UNL     1       7.377   5.596  18.370  0.00  0.00    +0.000 C 
BRANCH  14  15
ATOM     15  N   UNL     1       7.435   6.462  17.165  0.00  0.00    +0.000 NA
BRANCH  15  17
ATOM     16  C   UNL     1       5.344   6.438  15.750  0.00  0.00    +0.000 C 
ATOM     17  C   UNL     1       6.715   5.831  16.043  0.00  0.00    +0.000 C 
ENDBRANCH  15  17
BRANCH  15  18
ATOM     18  C   UNL     1       7.078   7.865  17.399  0.00  0.00    +0.000 C 
ATOM     19  C   UNL     1       8.225   8.795  17.776  0.00  0.00    +0.000 C 
ENDBRANCH  15  18
ENDBRANCH  14  15
ENDBRANCH  13  14
ENDBRANCH   1  13
TORSDOF 5
ENDMDL
MODEL 8
REMARK VINA RESULT:      -6.3      1.059      1.544
REMARK  Name = 
REMARK  7 active torsions:
REMARK  status: ('A' for Active; 'I' for Inactive)
REMARK    1  A    between atoms: C_1  and  C_2
REMARK    2  A    between atoms: C_2  and  N_3
REMARK    3  A    between atoms: N_3  and  C_4
REMARK    4  A    between atoms: N_3  and  C_6
REMARK    5  A    between atoms: C_4  and  C_5
REMARK    6  A    between atoms: C_6  and  C_7
REMARK    7  A    between atoms: C_7  and  N_8
REMARK                            x       y       z     vdW  Elec       q    Type
REMARK                         _______ _______ _______ _____ _____    ______ ____
ROOT
ATOM      1  N   UNL     1       3.884   5.839  17.402  0.00  0.00    +0.000 N 
ATOM      2  C   UNL     1       2.961   5.946  18.421  0.00  0.00    +0.000 C 
ATOM      3  N   UNL     1       2.811   7.079  19.035  0.00  0.00    +0.000 NA
ATOM      4  C   UNL     1       1.815   7.147  20.109  0.00  0.00    +0.000 C 
ATOM      5  C   UNL     1       1.854   5.904  20.991  0.00  0.00    +0.000 C 
ATOM      6  C   UNL     1       1.650   4.698  20.124  0.00  0.00    +0.000 A 
ATOM      7  C   UNL     1       0.972   3.563  20.577  0.00  0.00    +0.000 A 
ATOM      8  C   UNL     1       0.751   2.492  19.713  0.00  0.00    +0.000 A 
ATOM      9  C   UNL     1       1.207   2.554  18.393  0.00  0.00    +0.000 A 
ATOM     10  C   UNL     1       1.924   3.669  17.944  0.00  0.00    +0.000 A 
ATOM     11  C   UNL     1       2.169   4.731  18.819  0.00  0.00    +0.000 A 
ATOM     12  H   UNL     1       4.268   4.923  17.212  0.00  0.00    +0.000 HD
ENDROOT
BRANCH   1  13
ATOM     13  C   UNL     1       4.693   6.970  16.949  0.00  0.00    +0.000 C 
BRANCH  13  14
ATOM     14  C   UNL     1       5.721   6.575  15.861  0.00  0.00    +0.000 C 
BRANCH  14  15
ATOM     15  N   UNL     1       7.011   6.036  16.364  0.00  0.00    +0.000 NA
BRANCH  15  17
ATOM     16  C   UNL     1       7.874   8.075  17.577  0.00  0.00    +0.000 C 
ATOM     17  C   UNL     1       7.349   6.643  17.665  0.00  0.00    +0.000 C 
ENDBRANCH  15  17
BRANCH  15  18
ATOM     18  C   UNL     1       7.118   4.573  16.334  0.00  0.00    +0.000 C 
ATOM     19  C   UNL     1       6.299   3.862  15.265  0.00  0.00    +0.000 C 
ENDBRANCH  15  18
ENDBRANCH  14  15
ENDBRANCH  13  14
ENDBRANCH   1  13
TORSDOF 5
ENDMDL
MODEL 9
REMARK VINA RESULT:      -6.2      2.555      3.830
REMARK  Name = 
REMARK  7 active torsions:
REMARK  status: ('A' for Active; 'I' for Inactive)
REMARK    1  A    between atoms: C_1  and  C_2
REMARK    2  A    between atoms: C_2  and  N_3
REMARK    3  A    between atoms: N_3  and  C_4
REMARK    4  A    between atoms: N_3  and  C_6
REMARK    5  A    between atoms: C_4  and  C_5
REMARK    6  A    between atoms: C_6  and  C_7
REMARK    7  A    between atoms: C_7  and  N_8
REMARK                            x       y       z     vdW  Elec       q    Type
REMARK                         _______ _______ _______ _____ _____    ______ ____
ROOT
ATOM      1  N   UNL     1       4.965   3.510  16.291  0.00  0.00    +0.000 N 
ATOM      2  C   UNL     1       4.221   4.428  17.002  0.00  0.00    +0.000 C 
ATOM      3  N   UNL     1       4.522   5.689  16.932  0.00  0.00    +0.000 NA
ATOM      4  C   UNL     1       3.702   6.630  17.701  0.00  0.00    +0.000 C 
ATOM      5  C   UNL     1       3.382   6.091  19.091  0.00  0.00    +0.000 C 
ATOM      6  C   UNL     1       2.706   4.762  18.942  0.00  0.00    +0.000 A 
ATOM      7  C   UNL     1       1.718   4.327  19.831  0.00  0.00    +0.000 A 
ATOM      8  C   UNL     1       1.072   3.111  19.614  0.00  0.00    +0.000 A 
ATOM      9  C   UNL     1       1.412   2.327  18.508  0.00  0.00    +0.000 A 
ATOM     10  C   UNL     1       2.429   2.735  17.638  0.00  0.00    +0.000 A 
ATOM     11  C   UNL     1       3.096   3.941  17.871  0.00  0.00    +0.000 A 
ATOM     12  H   UNL     1       4.993   2.561  16.639  0.00  0.00    +0.000 HD
ENDROOT
BRANCH   1  13
ATOM     13  C   UNL     1       6.074   3.897  15.420  0.00  0.00    +0.000 C 
BRANCH  13  14
ATOM     14  C   UNL     1       5.618   4.235  13.980  0.00  0.00    +0.000 C 
BRANCH  14  15
ATOM     15  N   UNL     1       6.463   3.678  12.893  0.00  0.00    +0.000 NA
BRANCH  15  17
ATOM     16  C   UNL     1       4.380   3.300  11.517  0.00  0.00    +0.000 C 
ATOM     17  C   UNL     1       5.686   2.732  12.071  0.00  0.00    +0.000 C 
ENDBRANCH  15  17
BRANCH  15  18
ATOM     18  C   UNL     1       7.209   4.678  12.121  0.00  0.00    +0.000 C 
ATOM     19  C   UNL     1       8.232   5.498  12.897  0.00  0.00    +0.000 C 
ENDBRANCH  15  18
ENDBRANCH  14  15
ENDBRANCH  13  14
ENDBRANCH   1  13
TORSDOF 5
ENDMDL
