MODEL 1
REMARK VINA RESULT:      -8.0      0.000      0.000
REMARK  Name = 
REMARK  7 active torsions:
REMARK  status: ('A' for Active; 'I' for Inactive)
REMARK    1  A    between atoms: C_1  and  N_2
REMARK    2  A    between atoms: N_2  and  C_3
REMARK    3  A    between atoms: N_2  and  S_10
REMARK    4  A    between atoms: S_10  and  C_13
REMARK    5  A    between atoms: C_18  and  C_19
REMARK    6  A    between atoms: C_19  and  O_21
REMARK    7  A    between atoms: N_22  and  O_23
REMARK                            x       y       z     vdW  Elec       q    Type
REMARK                         _______ _______ _______ _____ _____    ______ ____
ROOT
ATOM      1  C   UNL     1       1.469   8.861  19.591  0.00  0.00    +0.000 A 
ATOM      2  C   UNL     1       1.866   9.014  18.261  0.00  0.00    +0.000 A 
ATOM      3  C   UNL     1       2.655   8.035  17.641  0.00  0.00    +0.000 A 
ATOM      4  C   UNL     1       2.984   6.863  18.347  0.00  0.00    +0.000 A 
ATOM      5  C   UNL     1       3.693   5.675  18.016  0.00  0.00    +0.000 A 
ATOM      6  C   UNL     1       3.635   4.806  19.099  0.00  0.00    +0.000 A 
ATOM      7  N   UNL     1       2.934   5.466  20.064  0.00  0.00    +0.000 N 
ATOM      8  C   UNL     1       2.543   6.718  19.663  0.00  0.00    +0.000 A 
ATOM      9  C   UNL     1       1.812   7.715  20.325  0.00  0.00    +0.000 A 
ENDROOT
BRANCH   1  10
ATOM     10  S   UNL     1       0.396  10.075  20.354  0.00  0.00    +0.000 S 
ATOM     11  O   UNL     1       1.216  10.839  21.275  0.00  0.00    +0.000 OA
ATOM     12  O   UNL     1      -0.762   9.345  20.828  0.00  0.00    +0.000 OA
BRANCH  10  14
ATOM     13  C   UNL     1       0.514  12.442  19.025  0.00  0.00    +0.000 C 
ATOM     14  N   UNL     1      -0.094  11.104  19.103  0.00  0.00    +0.000 N 
BRANCH  14  15
ATOM     15  C   UNL     1      -1.379  10.933  18.505  0.00  0.00    +0.000 A 
ATOM     16  C   UNL     1      -2.445  11.748  18.904  0.00  0.00    +0.000 A 
ATOM     17  C   UNL     1      -3.648  11.716  18.203  0.00  0.00    +0.000 A 
ATOM     18  C   UNL     1      -3.782  10.859  17.117  0.00  0.00    +0.000 A 
ATOM     19  F   UNL     1      -4.917  10.874  16.407  0.00  0.00    +0.000 F 
ATOM     20  C   UNL     1      -2.749  10.004  16.746  0.00  0.00    +0.000 A 
ATOM     21  C   UNL     1      -1.542  10.032  17.450  0.00  0.00    +0.000 A 
ENDBRANCH  14  15
ENDBRANCH  10  14
ENDBRANCH   1  10
BRANCH   6  22
ATOM     22  C   UNL     1       4.173   3.468  19.164  0.00  0.00    +0.000 C 
ATOM     23  O   UNL     1       3.514   2.471  19.402  0.00  0.00    +0.000 OA
BRANCH  22  24
ATOM     24  O   UNL     1       5.511   3.406  18.952  0.00  0.00    +0.000 OA
ATOM     25  H   UNL     1       5.785   2.705  18.326  0.00  0.00    +0.000 HD
ENDBRANCH  22  24
ENDBRANCH   6  22
BRANCH   7  26
ATOM     26  O   UNL     1       2.586   4.888  21.283  0.00  0.00    +0.000 OA
ATOM     27  H   UNL     1       2.581   3.950  21.011  0.00  0.00    +0.000 HD
ENDBRANCH   7  26
TORSDOF 6
ENDMDL
MODEL 2
REMARK VINA RESULT:      -7.8      0.374      1.036
REMARK  Name = 
REMARK  7 active torsions:
REMARK  status: ('A' for Active; 'I' for Inactive)
REMARK    1  A    between atoms: C_1  and  N_2
REMARK    2  A    between atoms: N_2  and  C_3
REMARK    3  A    between atoms: N_2  and  S_10
REMARK    4  A    between atoms: S_10  and  C_13
REMARK    5  A    between atoms: C_18  and  C_19
REMARK    6  A    between atoms: C_19  and  O_21
REMARK    7  A    between atoms: N_22  and  O_23
REMARK                            x       y       z     vdW  Elec       q    Type
REMARK                         _______ _______ _______ _____ _____    ______ ____
ROOT
ATOM      1  C   UNL     1       1.464   8.891  19.602  0.00  0.00    +0.000 A 
ATOM      2  C   UNL     1       1.840   9.049  18.266  0.00  0.00    +0.000 A 
ATOM      3  C   UNL     1       2.593   8.059  17.621  0.00  0.00    +0.000 A 
ATOM      4  C   UNL     1       2.905   6.870  18.308  0.00  0.00    +0.000 A 
ATOM      5  C   UNL     1       3.579   5.670  17.950  0.00  0.00    +0.000 A 
ATOM      6  C   UNL     1       3.520   4.790  19.024  0.00  0.00    +0.000 A 
ATOM      7  N   UNL     1       2.853   5.456  20.009  0.00  0.00    +0.000 N 
ATOM      8  C   UNL     1       2.486   6.721  19.630  0.00  0.00    +0.000 A 
ATOM      9  C   UNL     1       1.792   7.728  20.317  0.00  0.00    +0.000 A 
ENDROOT
BRANCH   1  10
ATOM     10  S   UNL     1       0.435  10.122  20.399  0.00  0.00    +0.000 S 
ATOM     11  O   UNL     1       1.282  10.828  21.342  0.00  0.00    +0.000 OA
ATOM     12  O   UNL     1      -0.750   9.423  20.851  0.00  0.00    +0.000 OA
BRANCH  10  14
ATOM     13  C   UNL     1       0.705  12.485  19.085  0.00  0.00    +0.000 C 
ATOM     14  N   UNL     1      -0.013  11.204  19.177  0.00  0.00    +0.000 N 
BRANCH  14  15
ATOM     15  C   UNL     1      -1.332  11.152  18.632  0.00  0.00    +0.000 A 
ATOM     16  C   UNL     1      -1.654  10.176  17.683  0.00  0.00    +0.000 A 
ATOM     17  C   UNL     1      -2.977  10.000  17.284  0.00  0.00    +0.000 A 
ATOM     18  C   UNL     1      -3.966  10.812  17.826  0.00  0.00    +0.000 A 
ATOM     19  F   UNL     1      -5.244  10.601  17.488  0.00  0.00    +0.000 F 
ATOM     20  C   UNL     1      -3.650  11.823  18.729  0.00  0.00    +0.000 A 
ATOM     21  C   UNL     1      -2.323  12.003  19.127  0.00  0.00    +0.000 A 
ENDBRANCH  14  15
ENDBRANCH  10  14
ENDBRANCH   1  10
BRANCH   6  22
ATOM     22  C   UNL     1       4.025   3.439  19.064  0.00  0.00    +0.000 C 
ATOM     23  O   UNL     1       3.348   2.443  18.873  0.00  0.00    +0.000 OA
BRANCH  22  24
ATOM     24  O   UNL     1       5.346   3.358  19.357  0.00  0.00    +0.000 OA
ATOM     25  H   UNL     1       5.842   2.724  18.799  0.00  0.00    +0.000 HD
ENDBRANCH  22  24
ENDBRANCH   6  22
BRANCH   7  26
ATOM     26  O   UNL     1       2.513   4.872  21.229  0.00  0.00    +0.000 OA
ATOM     27  H   UNL     1       1.551   4.783  21.091  0.00  0.00    +0.000 HD
ENDBRANCH   7  26
TORSDOF 6
ENDMDL
MODEL 3
REMARK VINA RESULT:      -7.8      4.090      8.218
REMARK  Name = 
REMARK  7 active torsions:
REMARK  status: ('A' for Active; 'I' for Inactive)
REMARK    1  A    between atoms: C_1  and  N_2
REMARK    2  A    between atoms: N_2  and  C_3
REMARK    3  A    between atoms: N_2  and  S_10
REMARK    4  A    between atoms: S_10  and  C_13
REMARK    5  A    between atoms: C_18  and  C_19
REMARK    6  A    between atoms: C_19  and  O_21
REMARK    7  A    between atoms: N_22  and  O_23
REMARK                            x       y       z     vdW  Elec       q    Type
REMARK                         _______ _______ _______ _____ _____    ______ ____
ROOT
ATOM      1  C   UNL     1       2.828   5.422  18.780  0.00  0.00    +0.000 A 
ATOM      2  C   UNL     1       2.349   5.223  20.077  0.00  0.00    +0.000 A 
ATOM      3  C   UNL     1       1.799   6.291  20.800  0.00  0.00    +0.000 A 
ATOM      4  C   UNL     1       1.666   7.549  20.181  0.00  0.00    +0.000 A 
ATOM      5  C   UNL     1       1.115   8.795  20.587  0.00  0.00    +0.000 A 
ATOM      6  C   UNL     1       1.187   9.681  19.518  0.00  0.00    +0.000 A 
ATOM      7  N   UNL     1       1.790   8.992  18.508  0.00  0.00    +0.000 N 
ATOM      8  C   UNL     1       2.118   7.711  18.872  0.00  0.00    +0.000 A 
ATOM      9  C   UNL     1       2.735   6.675  18.154  0.00  0.00    +0.000 A 
ENDROOT
BRANCH   1  10
ATOM     10  S   UNL     1       3.457   4.039  17.832  0.00  0.00    +0.000 S 
ATOM     11  O   UNL     1       2.395   3.630  16.933  0.00  0.00    +0.000 OA
ATOM     12  O   UNL     1       4.008   3.109  18.795  0.00  0.00    +0.000 OA
BRANCH  10  14
ATOM     13  C   UNL     1       5.127   3.928  15.691  0.00  0.00    +0.000 C 
ATOM     14  N   UNL     1       4.726   4.663  16.901  0.00  0.00    +0.000 N 
BRANCH  14  15
ATOM     15  C   UNL     1       5.705   5.504  17.510  0.00  0.00    +0.000 A 
ATOM     16  C   UNL     1       6.432   5.041  18.613  0.00  0.00    +0.000 A 
ATOM     17  C   UNL     1       7.511   5.777  19.097  0.00  0.00    +0.000 A 
ATOM     18  C   UNL     1       7.847   6.978  18.484  0.00  0.00    +0.000 A 
ATOM     19  F   UNL     1       8.921   7.653  18.911  0.00  0.00    +0.000 F 
ATOM     20  C   UNL     1       7.097   7.476  17.423  0.00  0.00    +0.000 A 
ATOM     21  C   UNL     1       6.012   6.741  16.938  0.00  0.00    +0.000 A 
ENDBRANCH  14  15
ENDBRANCH  10  14
ENDBRANCH   1  10
BRANCH   6  22
ATOM     22  C   UNL     1       0.685  11.034  19.481  0.00  0.00    +0.000 C 
ATOM     23  O   UNL     1       0.831  11.849  20.377  0.00  0.00    +0.000 OA
BRANCH  22  24
ATOM     24  O   UNL     1       0.001  11.333  18.349  0.00  0.00    +0.000 OA
ATOM     25  H   UNL     1       0.515  11.850  17.695  0.00  0.00    +0.000 HD
ENDBRANCH  22  24
ENDBRANCH   6  22
BRANCH   7  26
ATOM     26  O   UNL     1       1.967   9.515  17.228  0.00  0.00    +0.000 OA
ATOM     27  H   UNL     1       1.966   8.680  16.722  0.00  0.00    +0.000 HD
ENDBRANCH   7  26
TORSDOF 6
ENDMDL
MODEL 4
REMARK VINA RESULT:      -7.7      0.985      1.032
REMARK  Name = 
REMARK  7 active torsions:
REMARK  status: ('A' for Active; 'I' for Inactive)
REMARK    1  A    between atoms: C_1  and  N_2
REMARK    2  A    between atoms: N_2  and  C_3
REMARK    3  A    between atoms: N_2  and  S_10
REMARK    4  A    between atoms: S_10  and  C_13
REMARK    5  A    between atoms: C_18  and  C_19
REMARK    6  A    between atoms: C_19  and  O_21
REMARK    7  A    between atoms: N_22  and  O_23
REMARK                            x       y       z     vdW  Elec       q    Type
REMARK                         _______ _______ _______ _____ _____    ______ ____
ROOT
ATOM      1  C   UNL     1       1.662   8.142  20.052  0.00  0.00    +0.000 A 
ATOM      2  C   UNL     1       2.058   8.445  18.748  0.00  0.00    +0.000 A 
ATOM      3  C   UNL     1       2.760   7.503  17.984  0.00  0.00    +0.000 A 
ATOM      4  C   UNL     1       2.999   6.222  18.516  0.00  0.00    +0.000 A 
ATOM      5  C   UNL     1       3.607   5.040  18.010  0.00  0.00    +0.000 A 
ATOM      6  C   UNL     1       3.488   4.036  18.965  0.00  0.00    +0.000 A 
ATOM      7  N   UNL     1       2.851   4.609  20.024  0.00  0.00    +0.000 N 
ATOM      8  C   UNL     1       2.559   5.931  19.807  0.00  0.00    +0.000 A 
ATOM      9  C   UNL     1       1.916   6.882  20.615  0.00  0.00    +0.000 A 
ENDROOT
BRANCH   1  10
ATOM     10  S   UNL     1       0.696   9.319  20.996  0.00  0.00    +0.000 S 
ATOM     11  O   UNL     1       1.528   9.751  22.102  0.00  0.00    +0.000 OA
ATOM     12  O   UNL     1      -0.584   8.686  21.237  0.00  0.00    +0.000 OA
BRANCH  10  14
ATOM     13  C   UNL     1       1.242  11.862  20.208  0.00  0.00    +0.000 C 
ATOM     14  N   UNL     1       0.455  10.642  19.967  0.00  0.00    +0.000 N 
BRANCH  14  15
ATOM     15  C   UNL     1      -0.788  10.790  19.281  0.00  0.00    +0.000 A 
ATOM     16  C   UNL     1      -1.748  11.685  19.766  0.00  0.00    +0.000 A 
ATOM     17  C   UNL     1      -2.881  11.972  19.008  0.00  0.00    +0.000 A 
ATOM     18  C   UNL     1      -3.053  11.351  17.776  0.00  0.00    +0.000 A 
ATOM     19  F   UNL     1      -4.110  11.675  17.022  0.00  0.00    +0.000 F 
ATOM     20  C   UNL     1      -2.133  10.418  17.309  0.00  0.00    +0.000 A 
ATOM     21  C   UNL     1      -0.998  10.125  18.070  0.00  0.00    +0.000 A 
ENDBRANCH  14  15
ENDBRANCH  10  14
ENDBRANCH   1  10
BRANCH   6  22
ATOM     22  C   UNL     1       3.917   2.664  18.834  0.00  0.00    +0.000 C 
ATOM     23  O   UNL     1       3.421   1.857  18.066  0.00  0.00    +0.000 OA
BRANCH  22  24
ATOM     24  O   UNL     1       4.929   2.325  19.670  0.00  0.00    +0.000 OA
ATOM     25  H   UNL     1       4.737   2.485  20.617  0.00  0.00    +0.000 HD
ENDBRANCH  22  24
ENDBRANCH   6  22
BRANCH   7  26
ATOM     26  O   UNL     1       2.467   3.897  21.160  0.00  0.00    +0.000 OA
ATOM     27  H   UNL     1       2.326   3.022  20.749  0.00  0.00    +0.000 HD
ENDBRANCH   7  26
TORSDOF 6
ENDMDL
MODEL 5
REMARK VINA RESULT:      -7.7      4.126      8.252
REMARK  Name = 
REMARK  7 active torsions:
REMARK  status: ('A' for Active; 'I' for Inactive)
REMARK    1  A    between atoms: C_1  and  N_2
REMARK    2  A    between atoms: N_2  and  C_3
REMARK    3  A    between atoms: N_2  and  S_10
REMARK    4  A    between atoms: S_10  and  C_13
REMARK    5  A    between atoms: C_18  and  C_19
REMARK    6  A    between atoms: C_19  and  O_21
REMARK    7  A    between atoms: N_22  and  O_23
REMARK                            x       y       z     vdW  Elec       q    Type
REMARK                         _______ _______ _______ _____ _____    ______ ____
ROOT
ATOM      1  C   UNL     1       3.130   5.351  18.787  0.00  0.00    +0.000 A 
ATOM      2  C   UNL     1       2.624   5.126  20.069  0.00  0.00    +0.000 A 
ATOM      3  C   UNL     1       1.996   6.162  20.774  0.00  0.00    +0.000 A 
ATOM      4  C   UNL     1       1.814   7.411  20.150  0.00  0.00    +0.000 A 
ATOM      5  C   UNL     1       1.185   8.626  20.538  0.00  0.00    +0.000 A 
ATOM      6  C   UNL     1       1.240   9.514  19.470  0.00  0.00    +0.000 A 
ATOM      7  N   UNL     1       1.908   8.859  18.480  0.00  0.00    +0.000 N 
ATOM      8  C   UNL     1       2.294   7.598  18.855  0.00  0.00    +0.000 A 
ATOM      9  C   UNL     1       2.988   6.597  18.157  0.00  0.00    +0.000 A 
ENDROOT
BRANCH   1  10
ATOM     10  S   UNL     1       3.860   4.004  17.859  0.00  0.00    +0.000 S 
ATOM     11  O   UNL     1       2.789   3.388  17.101  0.00  0.00    +0.000 OA
ATOM     12  O   UNL     1       4.630   3.231  18.812  0.00  0.00    +0.000 OA
BRANCH  10  14
ATOM     13  C   UNL     1       5.059   4.142  15.424  0.00  0.00    +0.000 C 
ATOM     14  N   UNL     1       4.932   4.729  16.768  0.00  0.00    +0.000 N 
BRANCH  14  15
ATOM     15  C   UNL     1       6.037   5.490  17.257  0.00  0.00    +0.000 A 
ATOM     16  C   UNL     1       6.248   6.791  16.787  0.00  0.00    +0.000 A 
ATOM     17  C   UNL     1       7.206   7.603  17.389  0.00  0.00    +0.000 A 
ATOM     18  C   UNL     1       7.958   7.103  18.446  0.00  0.00    +0.000 A 
ATOM     19  F   UNL     1       8.835   7.905  19.062  0.00  0.00    +0.000 F 
ATOM     20  C   UNL     1       7.796   5.793  18.884  0.00  0.00    +0.000 A 
ATOM     21  C   UNL     1       6.837   4.975  18.280  0.00  0.00    +0.000 A 
ENDBRANCH  14  15
ENDBRANCH  10  14
ENDBRANCH   1  10
BRANCH   6  22
ATOM     22  C   UNL     1       0.667  10.839  19.417  0.00  0.00    +0.000 C 
ATOM     23  O   UNL     1       0.623  11.610  20.360  0.00  0.00    +0.000 OA
BRANCH  22  24
ATOM     24  O   UNL     1       0.147  11.160  18.207  0.00  0.00    +0.000 OA
ATOM     25  H   UNL     1      -0.817  11.007  18.131  0.00  0.00    +0.000 HD
ENDBRANCH  22  24
ENDBRANCH   6  22
BRANCH   7  26
ATOM     26  O   UNL     1       2.095   9.391  17.204  0.00  0.00    +0.000 OA
ATOM     27  H   UNL     1       3.028   9.666  17.290  0.00  0.00    +0.000 HD
ENDBRANCH   7  26
TORSDOF 6
ENDMDL
MODEL 6
REMARK VINA RESULT:      -7.6      4.404      6.684
REMARK  Name = 
REMARK  7 active torsions:
REMARK  status: ('A' for Active; 'I' for Inactive)
REMARK    1  A    between atoms: C_1  and  N_2
REMARK    2  A    between atoms: N_2  and  C_3
REMARK    3  A    between atoms: N_2  and  S_10
REMARK    4  A    between atoms: S_10  and  C_13
REMARK    5  A    between atoms: C_18  and  C_19
REMARK    6  A    between atoms: C_19  and  O_21
REMARK    7  A    between atoms: N_22  and  O_23
REMARK                            x       y       z     vdW  Elec       q    Type
REMARK                         _______ _______ _______ _____ _____    ______ ____
ROOT
ATOM      1  C   UNL     1       4.254   3.818  17.886  0.00  0.00    +0.000 A 
ATOM      2  C   UNL     1       5.331   4.320  18.621  0.00  0.00    +0.000 A 
ATOM      3  C   UNL     1       6.516   4.696  17.973  0.00  0.00    +0.000 A 
ATOM      4  C   UNL     1       6.586   4.631  16.568  0.00  0.00    +0.000 A 
ATOM      5  C   UNL     1       7.579   4.980  15.612  0.00  0.00    +0.000 A 
ATOM      6  C   UNL     1       7.061   4.773  14.339  0.00  0.00    +0.000 A 
ATOM      7  N   UNL     1       5.802   4.287  14.528  0.00  0.00    +0.000 N 
ATOM      8  C   UNL     1       5.483   4.162  15.855  0.00  0.00    +0.000 A 
ATOM      9  C   UNL     1       4.313   3.715  16.487  0.00  0.00    +0.000 A 
ENDROOT
BRANCH   1  10
ATOM     10  S   UNL     1       2.715   3.414  18.708  0.00  0.00    +0.000 S 
ATOM     11  O   UNL     1       2.898   2.114  19.323  0.00  0.00    +0.000 OA
ATOM     12  O   UNL     1       1.669   3.627  17.729  0.00  0.00    +0.000 OA
BRANCH  10  14
ATOM     13  C   UNL     1       2.196   4.087  21.289  0.00  0.00    +0.000 C 
ATOM     14  N   UNL     1       2.539   4.562  19.939  0.00  0.00    +0.000 N 
BRANCH  14  15
ATOM     15  C   UNL     1       2.189   5.907  19.610  0.00  0.00    +0.000 A 
ATOM     16  C   UNL     1       1.672   6.752  20.598  0.00  0.00    +0.000 A 
ATOM     17  C   UNL     1       1.502   8.110  20.337  0.00  0.00    +0.000 A 
ATOM     18  C   UNL     1       1.837   8.610  19.084  0.00  0.00    +0.000 A 
ATOM     19  F   UNL     1       1.731   9.925  18.854  0.00  0.00    +0.000 F 
ATOM     20  C   UNL     1       2.299   7.770  18.076  0.00  0.00    +0.000 A 
ATOM     21  C   UNL     1       2.467   6.407  18.336  0.00  0.00    +0.000 A 
ENDBRANCH  14  15
ENDBRANCH  10  14
ENDBRANCH   1  10
BRANCH   6  22
ATOM     22  C   UNL     1       7.715   5.058  13.083  0.00  0.00    +0.000 C 
ATOM     23  O   UNL     1       7.416   4.545  12.018  0.00  0.00    +0.000 OA
BRANCH  22  24
ATOM     24  O   UNL     1       8.729   5.951  13.185  0.00  0.00    +0.000 OA
ATOM     25  H   UNL     1       9.618   5.544  13.239  0.00  0.00    +0.000 HD
ENDBRANCH  22  24
ENDBRANCH   6  22
BRANCH   7  26
ATOM     26  O   UNL     1       4.918   4.032  13.480  0.00  0.00    +0.000 OA
ATOM     27  H   UNL     1       4.435   3.278  13.869  0.00  0.00    +0.000 HD
ENDBRANCH   7  26
TORSDOF 6
ENDMDL
MODEL 7
REMARK VINA RESULT:      -7.6      5.717      8.246
REMARK  Name = 
REMARK  7 active torsions:
REMARK  status: ('A' for Active; 'I' for Inactive)
REMARK    1  A    between atoms: C_1  and  N_2
REMARK    2  A    between atoms: N_2  and  C_3
REMARK    3  A    between atoms: N_2  and  S_10
REMARK    4  A    between atoms: S_10  and  C_13
REMARK    5  A    between atoms: C_18  and  C_19
REMARK    6  A    between atoms: C_19  and  O_21
REMARK    7  A    between atoms: N_22  and  O_23
REMARK                            x       y       z     vdW  Elec       q    Type
REMARK                         _______ _______ _______ _____ _____    ______ ____
ROOT
ATOM      1  C   UNL     1       4.425   6.239  17.436  0.00  0.00    +0.000 A 
ATOM      2  C   UNL     1       3.494   7.186  17.867  0.00  0.00    +0.000 A 
ATOM      3  C   UNL     1       2.543   6.852  18.842  0.00  0.00    +0.000 A 
ATOM      4  C   UNL     1       2.582   5.576  19.436  0.00  0.00    +0.000 A 
ATOM      5  C   UNL     1       1.832   4.943  20.466  0.00  0.00    +0.000 A 
ATOM      6  C   UNL     1       2.373   3.683  20.697  0.00  0.00    +0.000 A 
ATOM      7  N   UNL     1       3.400   3.554  19.810  0.00  0.00    +0.000 N 
ATOM      8  C   UNL     1       3.546   4.661  19.015  0.00  0.00    +0.000 A 
ATOM      9  C   UNL     1       4.462   4.950  17.991  0.00  0.00    +0.000 A 
ENDROOT
BRANCH   1  10
ATOM     10  S   UNL     1       5.686   6.693  16.249  0.00  0.00    +0.000 S 
ATOM     11  O   UNL     1       6.615   7.568  16.939  0.00  0.00    +0.000 OA
ATOM     12  O   UNL     1       4.982   7.148  15.068  0.00  0.00    +0.000 OA
BRANCH  10  14
ATOM     13  C   UNL     1       7.530   4.774  16.800  0.00  0.00    +0.000 C 
ATOM     14  N   UNL     1       6.496   5.256  15.870  0.00  0.00    +0.000 N 
BRANCH  14  15
ATOM     15  C   UNL     1       6.591   4.832  14.509  0.00  0.00    +0.000 A 
ATOM     16  C   UNL     1       7.623   5.320  13.699  0.00  0.00    +0.000 A 
ATOM     17  C   UNL     1       7.833   4.776  12.434  0.00  0.00    +0.000 A 
ATOM     18  C   UNL     1       7.000   3.760  11.982  0.00  0.00    +0.000 A 
ATOM     19  F   UNL     1       7.242   3.197  10.792  0.00  0.00    +0.000 F 
ATOM     20  C   UNL     1       5.936   3.306  12.756  0.00  0.00    +0.000 A 
ATOM     21  C   UNL     1       5.722   3.853  14.024  0.00  0.00    +0.000 A 
ENDBRANCH  14  15
ENDBRANCH  10  14
ENDBRANCH   1  10
BRANCH   6  22
ATOM     22  C   UNL     1       1.952   2.733  21.700  0.00  0.00    +0.000 C 
ATOM     23  O   UNL     1       2.713   2.063  22.377  0.00  0.00    +0.000 OA
BRANCH  22  24
ATOM     24  O   UNL     1       0.606   2.626  21.820  0.00  0.00    +0.000 OA
ATOM     25  H   UNL     1       0.174   2.158  21.077  0.00  0.00    +0.000 HD
ENDBRANCH  22  24
ENDBRANCH   6  22
BRANCH   7  26
ATOM     26  O   UNL     1       4.252   2.451  19.786  0.00  0.00    +0.000 OA
ATOM     27  H   UNL     1       4.977   2.831  19.254  0.00  0.00    +0.000 HD
ENDBRANCH   7  26
TORSDOF 6
ENDMDL
MODEL 8
REMARK VINA RESULT:      -7.5      5.711      8.206
REMARK  Name = 
REMARK  7 active torsions:
REMARK  status: ('A' for Active; 'I' for Inactive)
REMARK    1  A    between atoms: C_1  and  N_2
REMARK    2  A    between atoms: N_2  and  C_3
REMARK    3  A    between atoms: N_2  and  S_10
REMARK    4  A    between atoms: S_10  and  C_13
REMARK    5  A    between atoms: C_18  and  C_19
REMARK    6  A    between atoms: C_19  and  O_21
REMARK    7  A    between atoms: N_22  and  O_23
REMARK                            x       y       z     vdW  Elec       q    Type
REMARK                         _______ _______ _______ _____ _____    ______ ____
ROOT
ATOM      1  C   UNL     1       4.456   6.150  17.560  0.00  0.00    +0.000 A 
ATOM      2  C   UNL     1       3.497   7.083  17.960  0.00  0.00    +0.000 A 
ATOM      3  C   UNL     1       2.540   6.745  18.926  0.00  0.00    +0.000 A 
ATOM      4  C   UNL     1       2.597   5.481  19.543  0.00  0.00    +0.000 A 
ATOM      5  C   UNL     1       1.847   4.849  20.572  0.00  0.00    +0.000 A 
ATOM      6  C   UNL     1       2.411   3.606  20.834  0.00  0.00    +0.000 A 
ATOM      7  N   UNL     1       3.455   3.485  19.966  0.00  0.00    +0.000 N 
ATOM      8  C   UNL     1       3.588   4.581  19.153  0.00  0.00    +0.000 A 
ATOM      9  C   UNL     1       4.513   4.873  18.139  0.00  0.00    +0.000 A 
ENDROOT
BRANCH   1  10
ATOM     10  S   UNL     1       5.726   6.612  16.384  0.00  0.00    +0.000 S 
ATOM     11  O   UNL     1       6.596   7.556  17.058  0.00  0.00    +0.000 OA
ATOM     12  O   UNL     1       5.031   6.986  15.169  0.00  0.00    +0.000 OA
BRANCH  10  14
ATOM     13  C   UNL     1       7.556   4.741  17.113  0.00  0.00    +0.000 C 
ATOM     14  N   UNL     1       6.608   5.199  16.085  0.00  0.00    +0.000 N 
BRANCH  14  15
ATOM     15  C   UNL     1       6.850   4.785  14.740  0.00  0.00    +0.000 A 
ATOM     16  C   UNL     1       6.050   3.791  14.164  0.00  0.00    +0.000 A 
ATOM     17  C   UNL     1       6.157   3.511  12.804  0.00  0.00    +0.000 A 
ATOM     18  C   UNL     1       7.072   4.217  12.032  0.00  0.00    +0.000 A 
ATOM     19  F   UNL     1       7.130   3.990  10.714  0.00  0.00    +0.000 F 
ATOM     20  C   UNL     1       7.912   5.167  12.605  0.00  0.00    +0.000 A 
ATOM     21  C   UNL     1       7.809   5.447  13.970  0.00  0.00    +0.000 A 
ENDBRANCH  14  15
ENDBRANCH  10  14
ENDBRANCH   1  10
BRANCH   6  22
ATOM     22  C   UNL     1       1.997   2.665  21.848  0.00  0.00    +0.000 C 
ATOM     23  O   UNL     1       0.868   2.594  22.303  0.00  0.00    +0.000 OA
BRANCH  22  24
ATOM     24  O   UNL     1       2.994   1.854  22.281  0.00  0.00    +0.000 OA
ATOM     25  H   UNL     1       2.696   0.960  22.545  0.00  0.00    +0.000 HD
ENDBRANCH  22  24
ENDBRANCH   6  22
BRANCH   7  26
ATOM     26  O   UNL     1       4.332   2.402  19.975  0.00  0.00    +0.000 OA
ATOM     27  H   UNL     1       4.867   2.633  19.192  0.00  0.00    +0.000 HD
ENDBRANCH   7  26
TORSDOF 6
ENDMDL
MODEL 9
REMARK VINA RESULT:      -7.5      3.830      7.985
REMARK  Name = 
REMARK  7 active torsions:
REMARK  status: ('A' for Active; 'I' for Inactive)
REMARK    1  A    between atoms: C_1  and  N_2
REMARK    2  A    between atoms: N_2  and  C_3
REMARK    3  A    between atoms: N_2  and  S_10
REMARK    4  A    between atoms: S_10  and  C_13
REMARK    5  A    between atoms: C_18  and  C_19
REMARK    6  A    between atoms: C_19  and  O_21
REMARK    7  A    between atoms: N_22  and  O_23
REMARK                            x       y       z     vdW  Elec       q    Type
REMARK                         _______ _______ _______ _____ _____    ______ ____
ROOT
ATOM      1  C   UNL     1       2.335   7.079  19.316  0.00  0.00    +0.000 A 
ATOM      2  C   UNL     1       2.250   7.792  18.118  0.00  0.00    +0.000 A 
ATOM      3  C   UNL     1       1.614   9.041  18.082  0.00  0.00    +0.000 A 
ATOM      4  C   UNL     1       1.125   9.603  19.277  0.00  0.00    +0.000 A 
ATOM      5  C   UNL     1       0.500  10.838  19.605  0.00  0.00    +0.000 A 
ATOM      6  C   UNL     1       0.306  10.885  20.980  0.00  0.00    +0.000 A 
ATOM      7  N   UNL     1       0.776   9.699  21.460  0.00  0.00    +0.000 N 
ATOM      8  C   UNL     1       1.257   8.886  20.466  0.00  0.00    +0.000 A 
ATOM      9  C   UNL     1       1.827   7.605  20.514  0.00  0.00    +0.000 A 
ENDROOT
BRANCH   1  10
ATOM     10  S   UNL     1       3.217   5.521  19.374  0.00  0.00    +0.000 S 
ATOM     11  O   UNL     1       2.463   4.646  20.251  0.00  0.00    +0.000 OA
ATOM     12  O   UNL     1       4.596   5.851  19.668  0.00  0.00    +0.000 OA
BRANCH  10  14
ATOM     13  C   UNL     1       2.121   3.869  17.515  0.00  0.00    +0.000 C 
ATOM     14  N   UNL     1       3.139   4.892  17.804  0.00  0.00    +0.000 N 
BRANCH  14  15
ATOM     15  C   UNL     1       4.299   4.915  16.972  0.00  0.00    +0.000 A 
ATOM     16  C   UNL     1       4.917   3.714  16.607  0.00  0.00    +0.000 A 
ATOM     17  C   UNL     1       5.931   3.712  15.652  0.00  0.00    +0.000 A 
ATOM     18  C   UNL     1       6.331   4.915  15.081  0.00  0.00    +0.000 A 
ATOM     19  F   UNL     1       7.263   4.905  14.119  0.00  0.00    +0.000 F 
ATOM     20  C   UNL     1       5.763   6.121  15.477  0.00  0.00    +0.000 A 
ATOM     21  C   UNL     1       4.748   6.125  16.437  0.00  0.00    +0.000 A 
ENDBRANCH  14  15
ENDBRANCH  10  14
ENDBRANCH   1  10
BRANCH   6  22
ATOM     22  C   UNL     1      -0.242  11.985  21.739  0.00  0.00    +0.000 C 
ATOM     23  O   UNL     1      -0.458  11.956  22.938  0.00  0.00    +0.000 OA
BRANCH  22  24
ATOM     24  O   UNL     1      -0.526  13.078  20.988  0.00  0.00    +0.000 OA
ATOM     25  H   UNL     1      -0.673  12.885  20.040  0.00  0.00    +0.000 HD
ENDBRANCH  22  24
ENDBRANCH   6  22
BRANCH   7  26
ATOM     26  O   UNL     1       0.836   9.397  22.820  0.00  0.00    +0.000 OA
ATOM     27  H   UNL     1       0.625  10.279  23.181  0.00  0.00    +0.000 HD
ENDBRANCH   7  26
TORSDOF 6
ENDMDL
