MODEL 1
REMARK VINA RESULT:      -8.8      0.000      0.000
REMARK  Name = 
REMARK  9 active torsions:
REMARK  status: ('A' for Active; 'I' for Inactive)
REMARK    1  A    between atoms: C_1  and  N_2
REMARK    2  A    between atoms: N_2  and  S_3
REMARK    3  A    between atoms: S_3  and  C_6
REMARK    4  A    between atoms: C_10  and  N_11
REMARK    5  A    between atoms: C_12  and  C_14
REMARK    6  A    between atoms: C_23  and  O_24
REMARK    7  A    between atoms: O_24  and  C_25
REMARK    8  A    between atoms: C_31  and  O_32
REMARK    9  A    between atoms: O_32  and  C_33
REMARK                            x       y       z     vdW  Elec       q    Type
REMARK                         _______ _______ _______ _____ _____    ______ ____
ROOT
ATOM      1  C   UNL     1       2.774   6.104  18.877  0.00  0.00    +0.000 A 
ATOM      2  N   UNL     1       2.011   5.094  18.406  0.00  0.00    +0.000 NA
ATOM      3  C   UNL     1       2.628   3.885  18.464  0.00  0.00    +0.000 A 
ATOM      4  C   UNL     1       2.628   2.970  17.422  0.00  0.00    +0.000 A 
ATOM      5  C   UNL     1       3.250   1.726  17.558  0.00  0.00    +0.000 A 
ATOM      6  C   UNL     1       3.667   1.327  18.819  0.00  0.00    +0.000 A 
ATOM      7  C   UNL     1       3.804   2.303  19.799  0.00  0.00    +0.000 A 
ATOM      8  C   UNL     1       3.591   3.630  19.432  0.00  0.00    +0.000 A 
ATOM      9  N   UNL     1       4.416   4.651  19.763  0.00  0.00    +0.000 NA
ATOM     10  C   UNL     1       4.083   5.878  19.265  0.00  0.00    +0.000 A 
ENDROOT
BRANCH   1  12
ATOM     11  N   UNL     1       1.751   8.220  18.143  0.00  0.00    +0.000 N 
ATOM     12  C   UNL     1       2.199   7.434  19.200  0.00  0.00    +0.000 C 
ATOM     13  O   UNL     1       2.046   7.691  20.388  0.00  0.00    +0.000 OA
ATOM     14  H   UNL     1       1.816   7.826  17.221  0.00  0.00    +0.000 HD
BRANCH  11  19
ATOM     15  C   UNL     1      -0.886  10.905  18.158  0.00  0.00    +0.000 A 
ATOM     16  C   UNL     1      -0.133  12.052  18.435  0.00  0.00    +0.000 A 
ATOM     17  C   UNL     1       1.227  11.913  18.643  0.00  0.00    +0.000 A 
ATOM     18  C   UNL     1       1.836  10.658  18.561  0.00  0.00    +0.000 A 
ATOM     19  C   UNL     1       1.106   9.495  18.273  0.00  0.00    +0.000 A 
ATOM     20  C   UNL     1      -0.279   9.624  18.062  0.00  0.00    +0.000 A 
BRANCH  15  21
ATOM     21  S   UNL     1      -2.598  11.148  17.759  0.00  0.00    +0.000 S 
ATOM     22  O   UNL     1      -3.055  12.319  18.471  0.00  0.00    +0.000 OA
ATOM     23  O   UNL     1      -3.272   9.873  17.878  0.00  0.00    +0.000 OA
BRANCH  21  25
ATOM     24  C   UNL     1      -3.003  10.636  15.124  0.00  0.00    +0.000 C 
ATOM     25  N   UNL     1      -2.569  11.601  16.126  0.00  0.00    +0.000 NA
ATOM     26  H   UNL     1      -2.898  12.563  16.013  0.00  0.00    +0.000 HD
ENDBRANCH  21  25
ENDBRANCH  15  21
ENDBRANCH  11  19
ENDBRANCH   1  12
BRANCH  10  27
ATOM     27  O   UNL     1       5.008   6.597  18.439  0.00  0.00    +0.000 OA
BRANCH  27  28
ATOM     28  C   UNL     1       5.564   6.003  17.329  0.00  0.00    +0.000 A 
ATOM     29  C   UNL     1       4.979   6.216  16.071  0.00  0.00    +0.000 A 
ATOM     30  C   UNL     1       5.543   5.691  14.913  0.00  0.00    +0.000 A 
ATOM     31  C   UNL     1       6.672   4.900  15.006  0.00  0.00    +0.000 A 
ATOM     32  F   UNL     1       7.225   4.404  13.892  0.00  0.00    +0.000 F 
ATOM     33  C   UNL     1       7.233   4.613  16.241  0.00  0.00    +0.000 A 
ATOM     34  C   UNL     1       6.686   5.146  17.421  0.00  0.00    +0.000 A 
BRANCH  34  35
ATOM     35  O   UNL     1       7.428   4.757  18.503  0.00  0.00    +0.000 OA
ATOM     36  C   UNL     1       8.112   5.714  19.290  0.00  0.00    +0.000 C 
ENDBRANCH  34  35
ENDBRANCH  27  28
ENDBRANCH  10  27
TORSDOF 7
ENDMDL
MODEL 2
REMARK VINA RESULT:      -8.7      2.223      2.914
REMARK  Name = 
REMARK  9 active torsions:
REMARK  status: ('A' for Active; 'I' for Inactive)
REMARK    1  A    between atoms: C_1  and  N_2
REMARK    2  A    between atoms: N_2  and  S_3
REMARK    3  A    between atoms: S_3  and  C_6
REMARK    4  A    between atoms: C_10  and  N_11
REMARK    5  A    between atoms: C_12  and  C_14
REMARK    6  A    between atoms: C_23  and  O_24
REMARK    7  A    between atoms: O_24  and  C_25
REMARK    8  A    between atoms: C_31  and  O_32
REMARK    9  A    between atoms: O_32  and  C_33
REMARK                            x       y       z     vdW  Elec       q    Type
REMARK                         _______ _______ _______ _____ _____    ______ ____
ROOT
ATOM      1  C   UNL     1       2.599   6.402  18.868  0.00  0.00    +0.000 A 
ATOM      2  N   UNL     1       1.795   5.333  18.678  0.00  0.00    +0.000 NA
ATOM      3  C   UNL     1       2.465   4.151  18.687  0.00  0.00    +0.000 A 
ATOM      4  C   UNL     1       2.261   3.144  17.755  0.00  0.00    +0.000 A 
ATOM      5  C   UNL     1       2.956   1.934  17.841  0.00  0.00    +0.000 A 
ATOM      6  C   UNL     1       3.676   1.664  18.994  0.00  0.00    +0.000 A 
ATOM      7  C   UNL     1       3.995   2.729  19.828  0.00  0.00    +0.000 A 
ATOM      8  C   UNL     1       3.639   4.010  19.415  0.00  0.00    +0.000 A 
ATOM      9  N   UNL     1       4.471   5.078  19.453  0.00  0.00    +0.000 NA
ATOM     10  C   UNL     1       3.972   6.246  18.949  0.00  0.00    +0.000 A 
ENDROOT
BRANCH   1  12
ATOM     11  N   UNL     1       1.739   8.597  18.158  0.00  0.00    +0.000 N 
ATOM     12  C   UNL     1       2.055   7.740  19.208  0.00  0.00    +0.000 C 
ATOM     13  O   UNL     1       1.806   7.946  20.389  0.00  0.00    +0.000 OA
ATOM     14  H   UNL     1       1.870   8.244  17.226  0.00  0.00    +0.000 HD
BRANCH  11  19
ATOM     15  C   UNL     1       1.315  12.296  18.702  0.00  0.00    +0.000 A 
ATOM     16  C   UNL     1      -0.076  12.438  18.670  0.00  0.00    +0.000 A 
ATOM     17  C   UNL     1      -0.848  11.315  18.439  0.00  0.00    +0.000 A 
ATOM     18  C   UNL     1      -0.251  10.065  18.258  0.00  0.00    +0.000 A 
ATOM     19  C   UNL     1       1.141   9.893  18.297  0.00  0.00    +0.000 A 
ATOM     20  C   UNL     1       1.936  11.030  18.528  0.00  0.00    +0.000 A 
BRANCH  15  21
ATOM     21  S   UNL     1       2.258  13.734  19.141  0.00  0.00    +0.000 S 
ATOM     22  O   UNL     1       2.902  13.470  20.407  0.00  0.00    +0.000 OA
ATOM     23  O   UNL     1       1.422  14.898  18.940  0.00  0.00    +0.000 OA
BRANCH  21  25
ATOM     24  C   UNL     1       4.195  15.015  17.736  0.00  0.00    +0.000 C 
ATOM     25  N   UNL     1       3.511  13.756  17.999  0.00  0.00    +0.000 NA
ATOM     26  H   UNL     1       4.097  12.924  18.091  0.00  0.00    +0.000 HD
ENDBRANCH  21  25
ENDBRANCH  15  21
ENDBRANCH  11  19
ENDBRANCH   1  12
BRANCH  10  27
ATOM     27  O   UNL     1       4.641   6.909  17.869  0.00  0.00    +0.000 OA
BRANCH  27  28
ATOM     28  C   UNL     1       5.353   6.189  16.937  0.00  0.00    +0.000 A 
ATOM     29  C   UNL     1       4.660   5.424  15.986  0.00  0.00    +0.000 A 
ATOM     30  C   UNL     1       5.333   4.732  14.985  0.00  0.00    +0.000 A 
ATOM     31  C   UNL     1       6.714   4.754  14.955  0.00  0.00    +0.000 A 
ATOM     32  F   UNL     1       7.364   4.100  13.985  0.00  0.00    +0.000 F 
ATOM     33  C   UNL     1       7.430   5.443  15.922  0.00  0.00    +0.000 A 
ATOM     34  C   UNL     1       6.767   6.160  16.934  0.00  0.00    +0.000 A 
BRANCH  34  35
ATOM     35  O   UNL     1       7.676   6.785  17.743  0.00  0.00    +0.000 OA
ATOM     36  C   UNL     1       7.864   8.186  17.669  0.00  0.00    +0.000 C 
ENDBRANCH  34  35
ENDBRANCH  27  28
ENDBRANCH  10  27
TORSDOF 7
ENDMDL
MODEL 3
REMARK VINA RESULT:      -8.7      2.356      2.629
REMARK  Name = 
REMARK  9 active torsions:
REMARK  status: ('A' for Active; 'I' for Inactive)
REMARK    1  A    between atoms: C_1  and  N_2
REMARK    2  A    between atoms: N_2  and  S_3
REMARK    3  A    between atoms: S_3  and  C_6
REMARK    4  A    between atoms: C_10  and  N_11
REMARK    5  A    between atoms: C_12  and  C_14
REMARK    6  A    between atoms: C_23  and  O_24
REMARK    7  A    between atoms: O_24  and  C_25
REMARK    8  A    between atoms: C_31  and  O_32
REMARK    9  A    between atoms: O_32  and  C_33
REMARK                            x       y       z     vdW  Elec       q    Type
REMARK                         _______ _______ _______ _____ _____    ______ ____
ROOT
ATOM      1  C   UNL     1       2.669   6.525  18.301  0.00  0.00    +0.000 A 
ATOM      2  N   UNL     1       1.890   5.509  17.870  0.00  0.00    +0.000 NA
ATOM      3  C   UNL     1       2.367   4.285  18.213  0.00  0.00    +0.000 A 
ATOM      4  C   UNL     1       2.433   3.212  17.337  0.00  0.00    +0.000 A 
ATOM      5  C   UNL     1       2.901   1.965  17.763  0.00  0.00    +0.000 A 
ATOM      6  C   UNL     1       3.079   1.752  19.121  0.00  0.00    +0.000 A 
ATOM      7  C   UNL     1       3.162   2.865  19.950  0.00  0.00    +0.000 A 
ATOM      8  C   UNL     1       3.141   4.124  19.355  0.00  0.00    +0.000 A 
ATOM      9  N   UNL     1       4.004   5.122  19.659  0.00  0.00    +0.000 NA
ATOM     10  C   UNL     1       3.875   6.270  18.931  0.00  0.00    +0.000 A 
ENDROOT
BRANCH   1  12
ATOM     11  N   UNL     1       1.560   8.385  19.474  0.00  0.00    +0.000 N 
ATOM     12  C   UNL     1       2.187   7.928  18.318  0.00  0.00    +0.000 C 
ATOM     13  O   UNL     1       2.488   8.623  17.355  0.00  0.00    +0.000 OA
ATOM     14  H   UNL     1       1.498   7.742  20.244  0.00  0.00    +0.000 HD
BRANCH  11  19
ATOM     15  C   UNL     1       0.022  11.414  21.093  0.00  0.00    +0.000 A 
ATOM     16  C   UNL     1       0.092  12.361  20.066  0.00  0.00    +0.000 A 
ATOM     17  C   UNL     1       0.674  11.991  18.867  0.00  0.00    +0.000 A 
ATOM     18  C   UNL     1       1.165  10.696  18.683  0.00  0.00    +0.000 A 
ATOM     19  C   UNL     1       1.097   9.724  19.692  0.00  0.00    +0.000 A 
ATOM     20  C   UNL     1       0.509  10.091  20.917  0.00  0.00    +0.000 A 
BRANCH  15  21
ATOM     21  S   UNL     1      -0.857  11.886  22.560  0.00  0.00    +0.000 S 
ATOM     22  O   UNL     1      -0.291  13.128  23.034  0.00  0.00    +0.000 OA
ATOM     23  O   UNL     1      -0.964  10.723  23.415  0.00  0.00    +0.000 OA
BRANCH  21  25
ATOM     24  C   UNL     1      -3.458  12.556  22.958  0.00  0.00    +0.000 C 
ATOM     25  N   UNL     1      -2.402  12.289  21.990  0.00  0.00    +0.000 NA
ATOM     26  H   UNL     1      -2.337  12.925  21.192  0.00  0.00    +0.000 HD
ENDBRANCH  21  25
ENDBRANCH  15  21
ENDBRANCH  11  19
ENDBRANCH   1  12
BRANCH  10  27
ATOM     27  O   UNL     1       4.982   6.771  18.170  0.00  0.00    +0.000 OA
BRANCH  27  28
ATOM     28  C   UNL     1       5.533   6.019  17.158  0.00  0.00    +0.000 A 
ATOM     29  C   UNL     1       5.038   6.158  15.852  0.00  0.00    +0.000 A 
ATOM     30  C   UNL     1       5.606   5.469  14.786  0.00  0.00    +0.000 A 
ATOM     31  C   UNL     1       6.645   4.590  15.022  0.00  0.00    +0.000 A 
ATOM     32  F   UNL     1       7.203   3.935  13.996  0.00  0.00    +0.000 F 
ATOM     33  C   UNL     1       7.110   4.378  16.311  0.00  0.00    +0.000 A 
ATOM     34  C   UNL     1       6.558   5.074  17.399  0.00  0.00    +0.000 A 
BRANCH  34  35
ATOM     35  O   UNL     1       7.200   4.729  18.557  0.00  0.00    +0.000 OA
ATOM     36  C   UNL     1       7.905   5.700  19.308  0.00  0.00    +0.000 C 
ENDBRANCH  34  35
ENDBRANCH  27  28
ENDBRANCH  10  27
TORSDOF 7
ENDMDL
MODEL 4
REMARK VINA RESULT:      -8.5      2.292      2.983
REMARK  Name = 
REMARK  9 active torsions:
REMARK  status: ('A' for Active; 'I' for Inactive)
REMARK    1  A    between atoms: C_1  and  N_2
REMARK    2  A    between atoms: N_2  and  S_3
REMARK    3  A    between atoms: S_3  and  C_6
REMARK    4  A    between atoms: C_10  and  N_11
REMARK    5  A    between atoms: C_12  and  C_14
REMARK    6  A    between atoms: C_23  and  O_24
REMARK    7  A    between atoms: O_24  and  C_25
REMARK    8  A    between atoms: C_31  and  O_32
REMARK    9  A    between atoms: O_32  and  C_33
REMARK                            x       y       z     vdW  Elec       q    Type
REMARK                         _______ _______ _______ _____ _____    ______ ____
ROOT
ATOM      1  C   UNL     1       2.626   6.379  18.866  0.00  0.00    +0.000 A 
ATOM      2  N   UNL     1       1.818   5.311  18.688  0.00  0.00    +0.000 NA
ATOM      3  C   UNL     1       2.486   4.128  18.690  0.00  0.00    +0.000 A 
ATOM      4  C   UNL     1       2.268   3.120  17.762  0.00  0.00    +0.000 A 
ATOM      5  C   UNL     1       2.962   1.910  17.841  0.00  0.00    +0.000 A 
ATOM      6  C   UNL     1       3.698   1.640  18.985  0.00  0.00    +0.000 A 
ATOM      7  C   UNL     1       4.029   2.705  19.813  0.00  0.00    +0.000 A 
ATOM      8  C   UNL     1       3.670   3.987  19.402  0.00  0.00    +0.000 A 
ATOM      9  N   UNL     1       4.503   5.054  19.428  0.00  0.00    +0.000 NA
ATOM     10  C   UNL     1       3.999   6.221  18.929  0.00  0.00    +0.000 A 
ENDROOT
BRANCH   1  12
ATOM     11  N   UNL     1       1.809   8.594  18.166  0.00  0.00    +0.000 N 
ATOM     12  C   UNL     1       2.088   7.718  19.211  0.00  0.00    +0.000 C 
ATOM     13  O   UNL     1       1.810   7.911  20.388  0.00  0.00    +0.000 OA
ATOM     14  H   UNL     1       1.961   8.253  17.232  0.00  0.00    +0.000 HD
BRANCH  11  19
ATOM     15  C   UNL     1       1.426  12.311  18.612  0.00  0.00    +0.000 A 
ATOM     16  C   UNL     1       0.036  12.453  18.690  0.00  0.00    +0.000 A 
ATOM     17  C   UNL     1      -0.750  11.323  18.563  0.00  0.00    +0.000 A 
ATOM     18  C   UNL     1      -0.168  10.067  18.377  0.00  0.00    +0.000 A 
ATOM     19  C   UNL     1       1.223   9.895  18.307  0.00  0.00    +0.000 A 
ATOM     20  C   UNL     1       2.032  11.039  18.433  0.00  0.00    +0.000 A 
BRANCH  15  21
ATOM     21  S   UNL     1       2.399  13.762  18.921  0.00  0.00    +0.000 S 
ATOM     22  O   UNL     1       1.534  14.911  18.787  0.00  0.00    +0.000 OA
ATOM     23  O   UNL     1       3.631  13.646  18.172  0.00  0.00    +0.000 OA
BRANCH  21  25
ATOM     24  C   UNL     1       2.117  14.603  21.487  0.00  0.00    +0.000 C 
ATOM     25  N   UNL     1       2.754  13.662  20.576  0.00  0.00    +0.000 NA
ATOM     26  H   UNL     1       2.796  12.686  20.878  0.00  0.00    +0.000 HD
ENDBRANCH  21  25
ENDBRANCH  15  21
ENDBRANCH  11  19
ENDBRANCH   1  12
BRANCH  10  27
ATOM     27  O   UNL     1       4.655   6.882  17.839  0.00  0.00    +0.000 OA
BRANCH  27  28
ATOM     28  C   UNL     1       5.365   6.161  16.907  0.00  0.00    +0.000 A 
ATOM     29  C   UNL     1       4.672   5.393  15.959  0.00  0.00    +0.000 A 
ATOM     30  C   UNL     1       5.344   4.700  14.958  0.00  0.00    +0.000 A 
ATOM     31  C   UNL     1       6.725   4.723  14.925  0.00  0.00    +0.000 A 
ATOM     32  F   UNL     1       7.374   4.068  13.955  0.00  0.00    +0.000 F 
ATOM     33  C   UNL     1       7.441   5.415  15.890  0.00  0.00    +0.000 A 
ATOM     34  C   UNL     1       6.780   6.133  16.901  0.00  0.00    +0.000 A 
BRANCH  34  35
ATOM     35  O   UNL     1       7.690   6.761  17.707  0.00  0.00    +0.000 OA
ATOM     36  C   UNL     1       7.861   8.164  17.645  0.00  0.00    +0.000 C 
ENDBRANCH  34  35
ENDBRANCH  27  28
ENDBRANCH  10  27
TORSDOF 7
ENDMDL
MODEL 5
REMARK VINA RESULT:      -8.5      1.109      1.263
REMARK  Name = 
REMARK  9 active torsions:
REMARK  status: ('A' for Active; 'I' for Inactive)
REMARK    1  A    between atoms: C_1  and  N_2
REMARK    2  A    between atoms: N_2  and  S_3
REMARK    3  A    between atoms: S_3  and  C_6
REMARK    4  A    between atoms: C_10  and  N_11
REMARK    5  A    between atoms: C_12  and  C_14
REMARK    6  A    between atoms: C_23  and  O_24
REMARK    7  A    between atoms: O_24  and  C_25
REMARK    8  A    between atoms: C_31  and  O_32
REMARK    9  A    between atoms: O_32  and  C_33
REMARK                            x       y       z     vdW  Elec       q    Type
REMARK                         _______ _______ _______ _____ _____    ______ ____
ROOT
ATOM      1  C   UNL     1       2.742   6.050  18.901  0.00  0.00    +0.000 A 
ATOM      2  N   UNL     1       2.003   4.926  18.779  0.00  0.00    +0.000 NA
ATOM      3  C   UNL     1       2.749   3.791  18.800  0.00  0.00    +0.000 A 
ATOM      4  C   UNL     1       2.577   2.741  17.910  0.00  0.00    +0.000 A 
ATOM      5  C   UNL     1       3.353   1.582  18.008  0.00  0.00    +0.000 A 
ATOM      6  C   UNL     1       4.133   1.400  19.139  0.00  0.00    +0.000 A 
ATOM      7  C   UNL     1       4.413   2.512  19.924  0.00  0.00    +0.000 A 
ATOM      8  C   UNL     1       3.957   3.752  19.484  0.00  0.00    +0.000 A 
ATOM      9  N   UNL     1       4.717   4.873  19.453  0.00  0.00    +0.000 NA
ATOM     10  C   UNL     1       4.124   5.987  18.932  0.00  0.00    +0.000 A 
ENDROOT
BRANCH   1  12
ATOM     11  N   UNL     1       1.804   8.202  18.157  0.00  0.00    +0.000 N 
ATOM     12  C   UNL     1       2.123   7.362  19.219  0.00  0.00    +0.000 C 
ATOM     13  O   UNL     1       1.823   7.557  20.390  0.00  0.00    +0.000 OA
ATOM     14  H   UNL     1       1.985   7.856  17.231  0.00  0.00    +0.000 HD
BRANCH  11  19
ATOM     15  C   UNL     1      -0.857  10.862  18.078  0.00  0.00    +0.000 A 
ATOM     16  C   UNL     1      -0.130  12.011  18.406  0.00  0.00    +0.000 A 
ATOM     17  C   UNL     1       1.219  11.882  18.678  0.00  0.00    +0.000 A 
ATOM     18  C   UNL     1       1.844  10.635  18.609  0.00  0.00    +0.000 A 
ATOM     19  C   UNL     1       1.142   9.469  18.271  0.00  0.00    +0.000 A 
ATOM     20  C   UNL     1      -0.233   9.588  17.996  0.00  0.00    +0.000 A 
BRANCH  15  21
ATOM     21  S   UNL     1      -2.550  11.093  17.600  0.00  0.00    +0.000 S 
ATOM     22  O   UNL     1      -3.281   9.903  17.973  0.00  0.00    +0.000 OA
ATOM     23  O   UNL     1      -2.570  11.605  16.247  0.00  0.00    +0.000 OA
BRANCH  21  25
ATOM     24  C   UNL     1      -4.439  12.181  19.219  0.00  0.00    +0.000 C 
ATOM     25  N   UNL     1      -3.102  12.303  18.652  0.00  0.00    +0.000 NA
ATOM     26  H   UNL     1      -2.357  12.596  19.287  0.00  0.00    +0.000 HD
ENDBRANCH  21  25
ENDBRANCH  15  21
ENDBRANCH  11  19
ENDBRANCH   1  12
BRANCH  10  27
ATOM     27  O   UNL     1       4.706   6.654  17.804  0.00  0.00    +0.000 OA
BRANCH  27  28
ATOM     28  C   UNL     1       5.359   5.939  16.828  0.00  0.00    +0.000 A 
ATOM     29  C   UNL     1       4.613   5.144  15.943  0.00  0.00    +0.000 A 
ATOM     30  C   UNL     1       5.222   4.455  14.900  0.00  0.00    +0.000 A 
ATOM     31  C   UNL     1       6.595   4.510  14.761  0.00  0.00    +0.000 A 
ATOM     32  F   UNL     1       7.183   3.859  13.750  0.00  0.00    +0.000 F 
ATOM     33  C   UNL     1       7.367   5.229  15.660  0.00  0.00    +0.000 A 
ATOM     34  C   UNL     1       6.770   5.943  16.712  0.00  0.00    +0.000 A 
BRANCH  34  35
ATOM     35  O   UNL     1       7.723   6.600  17.439  0.00  0.00    +0.000 OA
ATOM     36  C   UNL     1       7.969   6.253  18.789  0.00  0.00    +0.000 C 
ENDBRANCH  34  35
ENDBRANCH  27  28
ENDBRANCH  10  27
TORSDOF 7
ENDMDL
MODEL 6
REMARK VINA RESULT:      -8.4      1.511      1.672
REMARK  Name = 
REMARK  9 active torsions:
REMARK  status: ('A' for Active; 'I' for Inactive)
REMARK    1  A    between atoms: C_1  and  N_2
REMARK    2  A    between atoms: N_2  and  S_3
REMARK    3  A    between atoms: S_3  and  C_6
REMARK    4  A    between atoms: C_10  and  N_11
REMARK    5  A    between atoms: C_12  and  C_14
REMARK    6  A    between atoms: C_23  and  O_24
REMARK    7  A    between atoms: O_24  and  C_25
REMARK    8  A    between atoms: C_31  and  O_32
REMARK    9  A    between atoms: O_32  and  C_33
REMARK                            x       y       z     vdW  Elec       q    Type
REMARK                         _______ _______ _______ _____ _____    ______ ____
ROOT
ATOM      1  C   UNL     1       2.730   6.340  18.531  0.00  0.00    +0.000 A 
ATOM      2  N   UNL     1       1.968   5.322  18.077  0.00  0.00    +0.000 NA
ATOM      3  C   UNL     1       2.509   4.099  18.315  0.00  0.00    +0.000 A 
ATOM      4  C   UNL     1       2.568   3.086  17.370  0.00  0.00    +0.000 A 
ATOM      5  C   UNL     1       3.105   1.836  17.689  0.00  0.00    +0.000 A 
ATOM      6  C   UNL     1       3.366   1.546  19.020  0.00  0.00    +0.000 A 
ATOM      7  C   UNL     1       3.453   2.608  19.913  0.00  0.00    +0.000 A 
ATOM      8  C   UNL     1       3.351   3.900  19.402  0.00  0.00    +0.000 A 
ATOM      9  N   UNL     1       4.191   4.912  19.723  0.00  0.00    +0.000 NA
ATOM     10  C   UNL     1       3.978   6.097  19.078  0.00  0.00    +0.000 A 
ENDROOT
BRANCH   1  12
ATOM     11  N   UNL     1       1.367   7.992  19.747  0.00  0.00    +0.000 N 
ATOM     12  C   UNL     1       2.197   7.719  18.663  0.00  0.00    +0.000 C 
ATOM     13  O   UNL     1       2.627   8.551  17.875  0.00  0.00    +0.000 OA
ATOM     14  H   UNL     1       1.203   7.242  20.396  0.00  0.00    +0.000 HD
BRANCH  11  19
ATOM     15  C   UNL     1      -0.501  11.248  19.485  0.00  0.00    +0.000 A 
ATOM     16  C   UNL     1      -0.168  11.873  20.692  0.00  0.00    +0.000 A 
ATOM     17  C   UNL     1       0.642  11.194  21.584  0.00  0.00    +0.000 A 
ATOM     18  C   UNL     1       1.129   9.922  21.278  0.00  0.00    +0.000 A 
ATOM     19  C   UNL     1       0.821   9.278  20.070  0.00  0.00    +0.000 A 
ATOM     20  C   UNL     1      -0.005   9.958  19.156  0.00  0.00    +0.000 A 
BRANCH  15  21
ATOM     21  S   UNL     1      -1.423  12.208  18.312  0.00  0.00    +0.000 S 
ATOM     22  O   UNL     1      -1.882  11.316  17.273  0.00  0.00    +0.000 OA
ATOM     23  O   UNL     1      -0.662  13.401  18.010  0.00  0.00    +0.000 OA
BRANCH  21  25
ATOM     24  C   UNL     1      -4.069  11.965  18.870  0.00  0.00    +0.000 C 
ATOM     25  N   UNL     1      -2.819  12.652  19.167  0.00  0.00    +0.000 NA
ATOM     26  H   UNL     1      -2.603  12.810  20.154  0.00  0.00    +0.000 HD
ENDBRANCH  21  25
ENDBRANCH  15  21
ENDBRANCH  11  19
ENDBRANCH   1  12
BRANCH  10  27
ATOM     27  O   UNL     1       5.021   6.689  18.294  0.00  0.00    +0.000 OA
BRANCH  27  28
ATOM     28  C   UNL     1       5.575   6.007  17.235  0.00  0.00    +0.000 A 
ATOM     29  C   UNL     1       5.035   6.177  15.951  0.00  0.00    +0.000 A 
ATOM     30  C   UNL     1       5.602   5.560  14.841  0.00  0.00    +0.000 A 
ATOM     31  C   UNL     1       6.686   4.721  15.010  0.00  0.00    +0.000 A 
ATOM     32  F   UNL     1       7.242   4.136  13.942  0.00  0.00    +0.000 F 
ATOM     33  C   UNL     1       7.199   4.477  16.275  0.00  0.00    +0.000 A 
ATOM     34  C   UNL     1       6.649   5.101  17.407  0.00  0.00    +0.000 A 
BRANCH  34  35
ATOM     35  O   UNL     1       7.340   4.738  18.530  0.00  0.00    +0.000 OA
ATOM     36  C   UNL     1       7.979   5.714  19.331  0.00  0.00    +0.000 C 
ENDBRANCH  34  35
ENDBRANCH  27  28
ENDBRANCH  10  27
TORSDOF 7
ENDMDL
MODEL 7
REMARK VINA RESULT:      -8.3      1.433      1.724
REMARK  Name = 
REMARK  9 active torsions:
REMARK  status: ('A' for Active; 'I' for Inactive)
REMARK    1  A    between atoms: C_1  and  N_2
REMARK    2  A    between atoms: N_2  and  S_3
REMARK    3  A    between atoms: S_3  and  C_6
REMARK    4  A    between atoms: C_10  and  N_11
REMARK    5  A    between atoms: C_12  and  C_14
REMARK    6  A    between atoms: C_23  and  O_24
REMARK    7  A    between atoms: O_24  and  C_25
REMARK    8  A    between atoms: C_31  and  O_32
REMARK    9  A    between atoms: O_32  and  C_33
REMARK                            x       y       z     vdW  Elec       q    Type
REMARK                         _______ _______ _______ _____ _____    ______ ____
ROOT
ATOM      1  C   UNL     1       2.614   6.480  18.872  0.00  0.00    +0.000 A 
ATOM      2  N   UNL     1       1.726   5.488  18.645  0.00  0.00    +0.000 NA
ATOM      3  C   UNL     1       2.297   4.257  18.604  0.00  0.00    +0.000 A 
ATOM      4  C   UNL     1       2.010   3.308  17.634  0.00  0.00    +0.000 A 
ATOM      5  C   UNL     1       2.605   2.043  17.669  0.00  0.00    +0.000 A 
ATOM      6  C   UNL     1       3.304   1.670  18.806  0.00  0.00    +0.000 A 
ATOM      7  C   UNL     1       3.709   2.671  19.680  0.00  0.00    +0.000 A 
ATOM      8  C   UNL     1       3.458   3.993  19.319  0.00  0.00    +0.000 A 
ATOM      9  N   UNL     1       4.373   4.988  19.395  0.00  0.00    +0.000 NA
ATOM     10  C   UNL     1       3.970   6.211  18.939  0.00  0.00    +0.000 A 
ENDROOT
BRANCH   1  12
ATOM     11  N   UNL     1       2.079   8.807  18.268  0.00  0.00    +0.000 N 
ATOM     12  C   UNL     1       2.181   7.844  19.268  0.00  0.00    +0.000 C 
ATOM     13  O   UNL     1       1.823   7.990  20.430  0.00  0.00    +0.000 OA
ATOM     14  H   UNL     1       2.277   8.511  17.328  0.00  0.00    +0.000 HD
BRANCH  11  19
ATOM     15  C   UNL     1      -0.123  11.736  19.124  0.00  0.00    +0.000 A 
ATOM     16  C   UNL     1       0.664  12.820  18.720  0.00  0.00    +0.000 A 
ATOM     17  C   UNL     1       1.920  12.565  18.201  0.00  0.00    +0.000 A 
ATOM     18  C   UNL     1       2.384  11.254  18.068  0.00  0.00    +0.000 A 
ATOM     19  C   UNL     1       1.611  10.149  18.454  0.00  0.00    +0.000 A 
ATOM     20  C   UNL     1       0.332  10.397  18.987  0.00  0.00    +0.000 A 
BRANCH  15  21
ATOM     21  S   UNL     1      -1.778  12.099  19.651  0.00  0.00    +0.000 S 
ATOM     22  O   UNL     1      -1.870  11.792  21.060  0.00  0.00    +0.000 OA
ATOM     23  O   UNL     1      -2.692  11.529  18.686  0.00  0.00    +0.000 OA
BRANCH  21  25
ATOM     24  C   UNL     1      -2.151  14.544  20.771  0.00  0.00    +0.000 C 
ATOM     25  N   UNL     1      -1.867  13.790  19.557  0.00  0.00    +0.000 NA
ATOM     26  H   UNL     1      -1.132  14.156  18.948  0.00  0.00    +0.000 HD
ENDBRANCH  21  25
ENDBRANCH  15  21
ENDBRANCH  11  19
ENDBRANCH   1  12
BRANCH  10  27
ATOM     27  O   UNL     1       4.688   6.860  17.882  0.00  0.00    +0.000 OA
BRANCH  27  28
ATOM     28  C   UNL     1       5.376   6.123  16.947  0.00  0.00    +0.000 A 
ATOM     29  C   UNL     1       4.664   5.479  15.922  0.00  0.00    +0.000 A 
ATOM     30  C   UNL     1       5.320   4.777  14.917  0.00  0.00    +0.000 A 
ATOM     31  C   UNL     1       6.697   4.666  14.953  0.00  0.00    +0.000 A 
ATOM     32  F   UNL     1       7.332   4.002  13.980  0.00  0.00    +0.000 F 
ATOM     33  C   UNL     1       7.423   5.231  15.990  0.00  0.00    +0.000 A 
ATOM     34  C   UNL     1       6.780   5.956  17.008  0.00  0.00    +0.000 A 
BRANCH  34  35
ATOM     35  O   UNL     1       7.700   6.447  17.893  0.00  0.00    +0.000 OA
ATOM     36  C   UNL     1       7.882   5.838  19.157  0.00  0.00    +0.000 C 
ENDBRANCH  34  35
ENDBRANCH  27  28
ENDBRANCH  10  27
TORSDOF 7
ENDMDL
MODEL 8
REMARK VINA RESULT:      -8.3      1.398      1.465
REMARK  Name = 
REMARK  9 active torsions:
REMARK  status: ('A' for Active; 'I' for Inactive)
REMARK    1  A    between atoms: C_1  and  N_2
REMARK    2  A    between atoms: N_2  and  S_3
REMARK    3  A    between atoms: S_3  and  C_6
REMARK    4  A    between atoms: C_10  and  N_11
REMARK    5  A    between atoms: C_12  and  C_14
REMARK    6  A    between atoms: C_23  and  O_24
REMARK    7  A    between atoms: O_24  and  C_25
REMARK    8  A    between atoms: C_31  and  O_32
REMARK    9  A    between atoms: O_32  and  C_33
REMARK                            x       y       z     vdW  Elec       q    Type
REMARK                         _______ _______ _______ _____ _____    ______ ____
ROOT
ATOM      1  C   UNL     1       2.751   6.342  18.473  0.00  0.00    +0.000 A 
ATOM      2  N   UNL     1       1.985   5.248  18.269  0.00  0.00    +0.000 NA
ATOM      3  C   UNL     1       2.655   4.082  18.459  0.00  0.00    +0.000 A 
ATOM      4  C   UNL     1       2.580   3.001  17.594  0.00  0.00    +0.000 A 
ATOM      5  C   UNL     1       3.266   1.814  17.866  0.00  0.00    +0.000 A 
ATOM      6  C   UNL     1       3.832   1.648  19.121  0.00  0.00    +0.000 A 
ATOM      7  C   UNL     1       4.034   2.781  19.900  0.00  0.00    +0.000 A 
ATOM      8  C   UNL     1       3.726   4.020  19.341  0.00  0.00    +0.000 A 
ATOM      9  N   UNL     1       4.539   5.101  19.400  0.00  0.00    +0.000 NA
ATOM     10  C   UNL     1       4.103   6.217  18.742  0.00  0.00    +0.000 A 
ENDROOT
BRANCH   1  12
ATOM     11  N   UNL     1       1.409   7.944  19.777  0.00  0.00    +0.000 N 
ATOM     12  C   UNL     1       2.158   7.694  18.631  0.00  0.00    +0.000 C 
ATOM     13  O   UNL     1       2.477   8.533  17.797  0.00  0.00    +0.000 OA
ATOM     14  H   UNL     1       1.339   7.199  20.448  0.00  0.00    +0.000 HD
BRANCH  11  19
ATOM     15  C   UNL     1      -0.560  11.145  19.585  0.00  0.00    +0.000 A 
ATOM     16  C   UNL     1      -0.242  11.756  20.802  0.00  0.00    +0.000 A 
ATOM     17  C   UNL     1       0.592  11.086  21.678  0.00  0.00    +0.000 A 
ATOM     18  C   UNL     1       1.118   9.835  21.346  0.00  0.00    +0.000 A 
ATOM     19  C   UNL     1       0.824   9.205  20.127  0.00  0.00    +0.000 A 
ATOM     20  C   UNL     1      -0.026   9.877  19.229  0.00  0.00    +0.000 A 
BRANCH  15  21
ATOM     21  S   UNL     1      -1.517  12.099  18.434  0.00  0.00    +0.000 S 
ATOM     22  O   UNL     1      -0.736  13.257  18.065  0.00  0.00    +0.000 OA
ATOM     23  O   UNL     1      -2.859  12.222  18.959  0.00  0.00    +0.000 OA
BRANCH  21  25
ATOM     24  C   UNL     1      -2.818  10.988  16.327  0.00  0.00    +0.000 C 
ATOM     25  N   UNL     1      -1.559  11.128  17.045  0.00  0.00    +0.000 NA
ATOM     26  H   UNL     1      -0.719  11.272  16.479  0.00  0.00    +0.000 HD
ENDBRANCH  21  25
ENDBRANCH  15  21
ENDBRANCH  11  19
ENDBRANCH   1  12
BRANCH  10  27
ATOM     27  O   UNL     1       4.902   6.803  17.707  0.00  0.00    +0.000 OA
BRANCH  27  28
ATOM     28  C   UNL     1       5.504   6.014  16.755  0.00  0.00    +0.000 A 
ATOM     29  C   UNL     1       4.710   5.388  15.780  0.00  0.00    +0.000 A 
ATOM     30  C   UNL     1       5.279   4.634  14.759  0.00  0.00    +0.000 A 
ATOM     31  C   UNL     1       6.649   4.453  14.731  0.00  0.00    +0.000 A 
ATOM     32  F   UNL     1       7.200   3.740  13.742  0.00  0.00    +0.000 F 
ATOM     33  C   UNL     1       7.453   5.000  15.719  0.00  0.00    +0.000 A 
ATOM     34  C   UNL     1       6.899   5.776  16.751  0.00  0.00    +0.000 A 
BRANCH  34  35
ATOM     35  O   UNL     1       7.886   6.236  17.579  0.00  0.00    +0.000 OA
ATOM     36  C   UNL     1       7.907   5.872  18.947  0.00  0.00    +0.000 C 
ENDBRANCH  34  35
ENDBRANCH  27  28
ENDBRANCH  10  27
TORSDOF 7
ENDMDL
MODEL 9
REMARK VINA RESULT:      -8.3      1.915      2.181
REMARK  Name = 
REMARK  9 active torsions:
REMARK  status: ('A' for Active; 'I' for Inactive)
REMARK    1  A    between atoms: C_1  and  N_2
REMARK    2  A    between atoms: N_2  and  S_3
REMARK    3  A    between atoms: S_3  and  C_6
REMARK    4  A    between atoms: C_10  and  N_11
REMARK    5  A    between atoms: C_12  and  C_14
REMARK    6  A    between atoms: C_23  and  O_24
REMARK    7  A    between atoms: O_24  and  C_25
REMARK    8  A    between atoms: C_31  and  O_32
REMARK    9  A    between atoms: O_32  and  C_33
REMARK                            x       y       z     vdW  Elec       q    Type
REMARK                         _______ _______ _______ _____ _____    ______ ____
ROOT
ATOM      1  C   UNL     1       2.751   6.283  18.614  0.00  0.00    +0.000 A 
ATOM      2  N   UNL     1       1.979   5.280  18.142  0.00  0.00    +0.000 NA
ATOM      3  C   UNL     1       2.525   4.050  18.326  0.00  0.00    +0.000 A 
ATOM      4  C   UNL     1       2.562   3.070  17.346  0.00  0.00    +0.000 A 
ATOM      5  C   UNL     1       3.106   1.810  17.610  0.00  0.00    +0.000 A 
ATOM      6  C   UNL     1       3.396   1.475  18.924  0.00  0.00    +0.000 A 
ATOM      7  C   UNL     1       3.503   2.506  19.851  0.00  0.00    +0.000 A 
ATOM      8  C   UNL     1       3.390   3.814  19.387  0.00  0.00    +0.000 A 
ATOM      9  N   UNL     1       4.237   4.815  19.724  0.00  0.00    +0.000 NA
ATOM     10  C   UNL     1       4.011   6.022  19.125  0.00  0.00    +0.000 A 
ENDROOT
BRANCH   1  12
ATOM     11  N   UNL     1       1.526   7.925  19.980  0.00  0.00    +0.000 N 
ATOM     12  C   UNL     1       2.222   7.656  18.805  0.00  0.00    +0.000 C 
ATOM     13  O   UNL     1       2.544   8.489  17.968  0.00  0.00    +0.000 OA
ATOM     14  H   UNL     1       1.450   7.176  20.647  0.00  0.00    +0.000 HD
BRANCH  11  19
ATOM     15  C   UNL     1       0.595  11.570  19.902  0.00  0.00    +0.000 A 
ATOM     16  C   UNL     1       0.064  11.763  21.182  0.00  0.00    +0.000 A 
ATOM     17  C   UNL     1      -0.006  10.678  22.037  0.00  0.00    +0.000 A 
ATOM     18  C   UNL     1       0.459   9.423  21.636  0.00  0.00    +0.000 A 
ATOM     19  C   UNL     1       1.007   9.206  20.363  0.00  0.00    +0.000 A 
ATOM     20  C   UNL     1       1.080  10.302  19.483  0.00  0.00    +0.000 A 
BRANCH  15  21
ATOM     21  S   UNL     1       0.796  13.015  18.891  0.00  0.00    +0.000 S 
ATOM     22  O   UNL     1       1.976  12.825  18.080  0.00  0.00    +0.000 OA
ATOM     23  O   UNL     1       0.631  14.179  19.734  0.00  0.00    +0.000 OA
BRANCH  21  25
ATOM     24  C   UNL     1      -1.595  12.006  18.095  0.00  0.00    +0.000 C 
ATOM     25  N   UNL     1      -0.508  12.932  17.810  0.00  0.00    +0.000 NA
ATOM     26  H   UNL     1      -0.770  13.867  17.490  0.00  0.00    +0.000 HD
ENDBRANCH  21  25
ENDBRANCH  15  21
ENDBRANCH  11  19
ENDBRANCH   1  12
BRANCH  10  27
ATOM     27  O   UNL     1       5.037   6.641  18.339  0.00  0.00    +0.000 OA
BRANCH  27  28
ATOM     28  C   UNL     1       5.583   5.986  17.259  0.00  0.00    +0.000 A 
ATOM     29  C   UNL     1       5.010   6.161  15.989  0.00  0.00    +0.000 A 
ATOM     30  C   UNL     1       5.566   5.572  14.859  0.00  0.00    +0.000 A 
ATOM     31  C   UNL     1       6.674   4.757  14.992  0.00  0.00    +0.000 A 
ATOM     32  F   UNL     1       7.219   4.200  13.904  0.00  0.00    +0.000 F 
ATOM     33  C   UNL     1       7.220   4.509  16.241  0.00  0.00    +0.000 A 
ATOM     34  C   UNL     1       6.681   5.104  17.395  0.00  0.00    +0.000 A 
BRANCH  34  35
ATOM     35  O   UNL     1       7.406   4.743  18.497  0.00  0.00    +0.000 OA
ATOM     36  C   UNL     1       7.985   5.726  19.334  0.00  0.00    +0.000 C 
ENDBRANCH  34  35
ENDBRANCH  27  28
ENDBRANCH  10  27
TORSDOF 7
ENDMDL
