MODEL 1
REMARK VINA RESULT:      -8.5      0.000      0.000
REMARK  Name = 
REMARK  3 active torsions:
REMARK  status: ('A' for Active; 'I' for Inactive)
REMARK    1  A    between atoms: C_1  and  C_2
REMARK    2  A    between atoms: C_5  and  N_6
REMARK    3  A    between atoms: N_9  and  N_10
REMARK                            x       y       z     vdW  Elec       q    Type
REMARK                         _______ _______ _______ _____ _____    ______ ____
ROOT
ATOM      1  N   UNL     1       1.244   7.849  21.320  0.00  0.00    +0.000 N 
ATOM      2  C   UNL     1       1.965   7.644  20.160  0.00  0.00    +0.000 C 
ATOM      3  O   UNL     1       2.014   8.446  19.228  0.00  0.00    +0.000 OA
ATOM      4  N   UNL     1       2.675   6.446  20.086  0.00  0.00    +0.000 N 
ATOM      5  H   UNL     1       1.274   7.133  22.029  0.00  0.00    +0.000 HD
ATOM      6  H   UNL     1       2.700   5.723  20.795  0.00  0.00    +0.000 HD
ENDROOT
BRANCH   4   7
ATOM      7  N   UNL     1       3.361   6.309  18.921  0.00  0.00    +0.000 NA
ATOM      8  C   UNL     1       3.849   5.219  18.451  0.00  0.00    +0.000 C 
ATOM      9  C   UNL     1       3.861   3.784  18.946  0.00  0.00    +0.000 C 
ATOM     10  O   UNL     1       3.357   3.395  19.977  0.00  0.00    +0.000 OA
ATOM     11  N   UNL     1       4.557   3.070  17.976  0.00  0.00    +0.000 N 
ATOM     12  C   UNL     1       4.972   3.914  16.943  0.00  0.00    +0.000 A 
ATOM     13  C   UNL     1       5.683   3.608  15.801  0.00  0.00    +0.000 A 
ATOM     14  C   UNL     1       5.974   4.660  14.914  0.00  0.00    +0.000 A 
ATOM     15  C   UNL     1       5.555   5.980  15.178  0.00  0.00    +0.000 A 
ATOM     16  C   UNL     1       4.836   6.272  16.332  0.00  0.00    +0.000 A 
ATOM     17  C   UNL     1       4.568   5.218  17.184  0.00  0.00    +0.000 A 
ATOM     18  H   UNL     1       4.731   2.077  18.027  0.00  0.00    +0.000 HD
ENDBRANCH   4   7
BRANCH   1  23
ATOM     19  C   UNL     1      -2.012  12.480  22.474  0.00  0.00    +0.000 C 
ATOM     20  C   UNL     1      -1.159  11.282  22.177  0.00  0.00    +0.000 A 
ATOM     21  C   UNL     1      -0.742  11.028  20.875  0.00  0.00    +0.000 A 
ATOM     22  C   UNL     1       0.046   9.909  20.589  0.00  0.00    +0.000 A 
ATOM     23  C   UNL     1       0.445   9.005  21.583  0.00  0.00    +0.000 A 
ATOM     24  C   UNL     1       0.029   9.266  22.893  0.00  0.00    +0.000 A 
ATOM     25  C   UNL     1      -0.765  10.393  23.186  0.00  0.00    +0.000 A 
ENDBRANCH   1  23
TORSDOF 2
ENDMDL
MODEL 2
REMARK VINA RESULT:      -8.5      0.062      1.021
REMARK  Name = 
REMARK  3 active torsions:
REMARK  status: ('A' for Active; 'I' for Inactive)
REMARK    1  A    between atoms: C_1  and  C_2
REMARK    2  A    between atoms: C_5  and  N_6
REMARK    3  A    between atoms: N_9  and  N_10
REMARK                            x       y       z     vdW  Elec       q    Type
REMARK                         _______ _______ _______ _____ _____    ______ ____
ROOT
ATOM      1  N   UNL     1       1.224   7.805  21.338  0.00  0.00    +0.000 N 
ATOM      2  C   UNL     1       1.949   7.615  20.178  0.00  0.00    +0.000 C 
ATOM      3  O   UNL     1       2.004   8.430  19.258  0.00  0.00    +0.000 OA
ATOM      4  N   UNL     1       2.653   6.415  20.086  0.00  0.00    +0.000 N 
ATOM      5  H   UNL     1       1.249   7.077  22.035  0.00  0.00    +0.000 HD
ATOM      6  H   UNL     1       2.672   5.681  20.784  0.00  0.00    +0.000 HD
ENDROOT
BRANCH   4   7
ATOM      7  N   UNL     1       3.342   6.292  18.922  0.00  0.00    +0.000 NA
ATOM      8  C   UNL     1       3.849   5.212  18.449  0.00  0.00    +0.000 C 
ATOM      9  C   UNL     1       3.885   3.776  18.940  0.00  0.00    +0.000 C 
ATOM     10  O   UNL     1       3.387   3.376  19.969  0.00  0.00    +0.000 OA
ATOM     11  N   UNL     1       4.593   3.077  17.969  0.00  0.00    +0.000 N 
ATOM     12  C   UNL     1       4.995   3.930  16.938  0.00  0.00    +0.000 A 
ATOM     13  C   UNL     1       5.712   3.640  15.797  0.00  0.00    +0.000 A 
ATOM     14  C   UNL     1       5.986   4.700  14.912  0.00  0.00    +0.000 A 
ATOM     15  C   UNL     1       5.544   6.011  15.179  0.00  0.00    +0.000 A 
ATOM     16  C   UNL     1       4.819   6.288  16.334  0.00  0.00    +0.000 A 
ATOM     17  C   UNL     1       4.568   5.227  17.183  0.00  0.00    +0.000 A 
ATOM     18  H   UNL     1       4.784   2.087  18.017  0.00  0.00    +0.000 HD
ENDBRANCH   4   7
BRANCH   1  23
ATOM     19  C   UNL     1      -1.957  12.515  22.368  0.00  0.00    +0.000 C 
ATOM     20  C   UNL     1      -1.139  11.287  22.098  0.00  0.00    +0.000 A 
ATOM     21  C   UNL     1      -0.746  10.466  23.149  0.00  0.00    +0.000 A 
ATOM     22  C   UNL     1       0.024   9.325  22.907  0.00  0.00    +0.000 A 
ATOM     23  C   UNL     1       0.431   8.960  21.616  0.00  0.00    +0.000 A 
ATOM     24  C   UNL     1       0.029   9.786  20.559  0.00  0.00    +0.000 A 
ATOM     25  C   UNL     1      -0.748  10.937  20.800  0.00  0.00    +0.000 A 
ENDBRANCH   1  23
TORSDOF 2
ENDMDL
MODEL 3
REMARK VINA RESULT:      -8.4      2.590      3.806
REMARK  Name = 
REMARK  3 active torsions:
REMARK  status: ('A' for Active; 'I' for Inactive)
REMARK    1  A    between atoms: C_1  and  C_2
REMARK    2  A    between atoms: C_5  and  N_6
REMARK    3  A    between atoms: N_9  and  N_10
REMARK                            x       y       z     vdW  Elec       q    Type
REMARK                         _______ _______ _______ _____ _____    ______ ____
ROOT
ATOM      1  N   UNL     1       0.576  10.178  21.557  0.00  0.00    +0.000 N 
ATOM      2  C   UNL     1       0.541   8.813  21.351  0.00  0.00    +0.000 C 
ATOM      3  O   UNL     1      -0.492   8.144  21.335  0.00  0.00    +0.000 OA
ATOM      4  N   UNL     1       1.773   8.194  21.145  0.00  0.00    +0.000 N 
ATOM      5  H   UNL     1       1.474  10.635  21.546  0.00  0.00    +0.000 HD
ATOM      6  H   UNL     1       2.677   8.652  21.141  0.00  0.00    +0.000 HD
ENDROOT
BRANCH   4   7
ATOM      7  N   UNL     1       1.668   6.854  20.950  0.00  0.00    +0.000 NA
ATOM      8  C   UNL     1       2.008   6.211  19.893  0.00  0.00    +0.000 C 
ATOM      9  C   UNL     1       2.606   6.633  18.563  0.00  0.00    +0.000 C 
ATOM     10  O   UNL     1       2.890   7.770  18.253  0.00  0.00    +0.000 OA
ATOM     11  N   UNL     1       2.739   5.458  17.833  0.00  0.00    +0.000 N 
ATOM     12  C   UNL     1       2.285   4.362  18.572  0.00  0.00    +0.000 A 
ATOM     13  C   UNL     1       2.240   3.030  18.217  0.00  0.00    +0.000 A 
ATOM     14  C   UNL     1       1.728   2.121  19.161  0.00  0.00    +0.000 A 
ATOM     15  C   UNL     1       1.276   2.552  20.424  0.00  0.00    +0.000 A 
ATOM     16  C   UNL     1       1.328   3.899  20.769  0.00  0.00    +0.000 A 
ATOM     17  C   UNL     1       1.835   4.766  19.820  0.00  0.00    +0.000 A 
ATOM     18  H   UNL     1       3.113   5.417  16.897  0.00  0.00    +0.000 HD
ENDBRANCH   4   7
BRANCH   1  23
ATOM     19  C   UNL     1      -4.059  13.513  22.436  0.00  0.00    +0.000 C 
ATOM     20  C   UNL     1      -2.861  12.640  22.204  0.00  0.00    +0.000 A 
ATOM     21  C   UNL     1      -2.332  11.891  23.248  0.00  0.00    +0.000 A 
ATOM     22  C   UNL     1      -1.210  11.082  23.043  0.00  0.00    +0.000 A 
ATOM     23  C   UNL     1      -0.576  10.989  21.796  0.00  0.00    +0.000 A 
ATOM     24  C   UNL     1      -1.114  11.741  20.745  0.00  0.00    +0.000 A 
ATOM     25  C   UNL     1      -2.245  12.557  20.948  0.00  0.00    +0.000 A 
ENDBRANCH   1  23
TORSDOF 2
ENDMDL
MODEL 4
REMARK VINA RESULT:      -8.4      2.597      3.674
REMARK  Name = 
REMARK  3 active torsions:
REMARK  status: ('A' for Active; 'I' for Inactive)
REMARK    1  A    between atoms: C_1  and  C_2
REMARK    2  A    between atoms: C_5  and  N_6
REMARK    3  A    between atoms: N_9  and  N_10
REMARK                            x       y       z     vdW  Elec       q    Type
REMARK                         _______ _______ _______ _____ _____    ______ ____
ROOT
ATOM      1  N   UNL     1       0.551  10.161  21.580  0.00  0.00    +0.000 N 
ATOM      2  C   UNL     1       0.514   8.798  21.359  0.00  0.00    +0.000 C 
ATOM      3  O   UNL     1      -0.522   8.137  21.305  0.00  0.00    +0.000 OA
ATOM      4  N   UNL     1       1.748   8.174  21.185  0.00  0.00    +0.000 N 
ATOM      5  H   UNL     1       1.452  10.612  21.601  0.00  0.00    +0.000 HD
ATOM      6  H   UNL     1       2.654   8.626  21.212  0.00  0.00    +0.000 HD
ENDROOT
BRANCH   4   7
ATOM      7  N   UNL     1       1.639   6.836  20.973  0.00  0.00    +0.000 NA
ATOM      8  C   UNL     1       1.985   6.205  19.910  0.00  0.00    +0.000 C 
ATOM      9  C   UNL     1       2.593   6.641  18.589  0.00  0.00    +0.000 C 
ATOM     10  O   UNL     1       2.882   7.781  18.295  0.00  0.00    +0.000 OA
ATOM     11  N   UNL     1       2.727   5.474  17.846  0.00  0.00    +0.000 N 
ATOM     12  C   UNL     1       2.264   4.371  18.568  0.00  0.00    +0.000 A 
ATOM     13  C   UNL     1       2.218   3.044  18.197  0.00  0.00    +0.000 A 
ATOM     14  C   UNL     1       1.697   2.125  19.127  0.00  0.00    +0.000 A 
ATOM     15  C   UNL     1       1.238   2.542  20.393  0.00  0.00    +0.000 A 
ATOM     16  C   UNL     1       1.292   3.885  20.753  0.00  0.00    +0.000 A 
ATOM     17  C   UNL     1       1.808   4.762  19.819  0.00  0.00    +0.000 A 
ATOM     18  H   UNL     1       3.107   5.444  16.912  0.00  0.00    +0.000 HD
ENDBRANCH   4   7
BRANCH   1  23
ATOM     19  C   UNL     1      -4.131  13.411  22.528  0.00  0.00    +0.000 C 
ATOM     20  C   UNL     1      -2.909  12.574  22.285  0.00  0.00    +0.000 A 
ATOM     21  C   UNL     1      -2.338  12.524  21.019  0.00  0.00    +0.000 A 
ATOM     22  C   UNL     1      -1.205  11.740  20.783  0.00  0.00    +0.000 A 
ATOM     23  C   UNL     1      -0.602  10.978  21.793  0.00  0.00    +0.000 A 
ATOM     24  C   UNL     1      -1.176  11.034  23.068  0.00  0.00    +0.000 A 
ATOM     25  C   UNL     1      -2.318  11.824  23.310  0.00  0.00    +0.000 A 
ENDBRANCH   1  23
TORSDOF 2
ENDMDL
MODEL 5
REMARK VINA RESULT:      -8.3      6.417      7.650
REMARK  Name = 
REMARK  3 active torsions:
REMARK  status: ('A' for Active; 'I' for Inactive)
REMARK    1  A    between atoms: C_1  and  C_2
REMARK    2  A    between atoms: C_5  and  N_6
REMARK    3  A    between atoms: N_9  and  N_10
REMARK                            x       y       z     vdW  Elec       q    Type
REMARK                         _______ _______ _______ _____ _____    ______ ____
ROOT
ATOM      1  N   UNL     1       9.666  10.079  19.795  0.00  0.00    +0.000 N 
ATOM      2  C   UNL     1       8.897   9.415  18.860  0.00  0.00    +0.000 C 
ATOM      3  O   UNL     1       8.442   9.938  17.843  0.00  0.00    +0.000 OA
ATOM      4  N   UNL     1       8.650   8.067  19.118  0.00  0.00    +0.000 N 
ATOM      5  H   UNL     1       9.996   9.558  20.592  0.00  0.00    +0.000 HD
ATOM      6  H   UNL     1       8.975   7.545  19.922  0.00  0.00    +0.000 HD
ENDROOT
BRANCH   4   7
ATOM      7  N   UNL     1       7.889   7.475  18.161  0.00  0.00    +0.000 NA
ATOM      8  C   UNL     1       7.316   6.330  18.246  0.00  0.00    +0.000 C 
ATOM      9  C   UNL     1       7.256   5.273  19.334  0.00  0.00    +0.000 C 
ATOM     10  O   UNL     1       7.799   5.350  20.415  0.00  0.00    +0.000 OA
ATOM     11  N   UNL     1       6.469   4.253  18.810  0.00  0.00    +0.000 N 
ATOM     12  C   UNL     1       6.043   4.573  17.518  0.00  0.00    +0.000 A 
ATOM     13  C   UNL     1       5.255   3.840  16.655  0.00  0.00    +0.000 A 
ATOM     14  C   UNL     1       4.973   4.400  15.395  0.00  0.00    +0.000 A 
ATOM     15  C   UNL     1       5.475   5.664  15.026  0.00  0.00    +0.000 A 
ATOM     16  C   UNL     1       6.267   6.392  15.908  0.00  0.00    +0.000 A 
ATOM     17  C   UNL     1       6.527   5.815  17.135  0.00  0.00    +0.000 A 
ATOM     18  H   UNL     1       6.246   3.404  19.306  0.00  0.00    +0.000 HD
ENDBRANCH   4   7
BRANCH   1  23
ATOM     19  C   UNL     1      11.198  15.641  19.479  0.00  0.00    +0.000 C 
ATOM     20  C   UNL     1      10.798  14.196  19.552  0.00  0.00    +0.000 A 
ATOM     21  C   UNL     1       9.510  13.848  19.941  0.00  0.00    +0.000 A 
ATOM     22  C   UNL     1       9.133  12.504  20.020  0.00  0.00    +0.000 A 
ATOM     23  C   UNL     1      10.019  11.462  19.716  0.00  0.00    +0.000 A 
ATOM     24  C   UNL     1      11.314  11.816  19.320  0.00  0.00    +0.000 A 
ATOM     25  C   UNL     1      11.698  13.169  19.239  0.00  0.00    +0.000 A 
ENDBRANCH   1  23
TORSDOF 2
ENDMDL
MODEL 6
REMARK VINA RESULT:      -8.2      6.275      7.421
REMARK  Name = 
REMARK  3 active torsions:
REMARK  status: ('A' for Active; 'I' for Inactive)
REMARK    1  A    between atoms: C_1  and  C_2
REMARK    2  A    between atoms: C_5  and  N_6
REMARK    3  A    between atoms: N_9  and  N_10
REMARK                            x       y       z     vdW  Elec       q    Type
REMARK                         _______ _______ _______ _____ _____    ______ ____
ROOT
ATOM      1  N   UNL     1       9.526  10.186  19.513  0.00  0.00    +0.000 N 
ATOM      2  C   UNL     1       8.736   9.464  18.640  0.00  0.00    +0.000 C 
ATOM      3  O   UNL     1       8.161   9.952  17.667  0.00  0.00    +0.000 OA
ATOM      4  N   UNL     1       8.615   8.101  18.909  0.00  0.00    +0.000 N 
ATOM      5  H   UNL     1       9.960   9.691  20.277  0.00  0.00    +0.000 HD
ATOM      6  H   UNL     1       9.045   7.606  19.680  0.00  0.00    +0.000 HD
ENDROOT
BRANCH   4   7
ATOM      7  N   UNL     1       7.826   7.453  18.014  0.00  0.00    +0.000 NA
ATOM      8  C   UNL     1       7.249   6.320  18.190  0.00  0.00    +0.000 C 
ATOM      9  C   UNL     1       7.212   5.338  19.347  0.00  0.00    +0.000 C 
ATOM     10  O   UNL     1       7.783   5.483  20.406  0.00  0.00    +0.000 OA
ATOM     11  N   UNL     1       6.405   4.293  18.912  0.00  0.00    +0.000 N 
ATOM     12  C   UNL     1       5.947   4.528  17.614  0.00  0.00    +0.000 A 
ATOM     13  C   UNL     1       5.132   3.745  16.823  0.00  0.00    +0.000 A 
ATOM     14  C   UNL     1       4.820   4.223  15.536  0.00  0.00    +0.000 A 
ATOM     15  C   UNL     1       5.320   5.455  15.070  0.00  0.00    +0.000 A 
ATOM     16  C   UNL     1       6.139   6.235  15.880  0.00  0.00    +0.000 A 
ATOM     17  C   UNL     1       6.428   5.738  17.137  0.00  0.00    +0.000 A 
ATOM     18  H   UNL     1       6.191   3.480  19.470  0.00  0.00    +0.000 HD
ENDBRANCH   4   7
BRANCH   1  23
ATOM     19  C   UNL     1      10.410  15.885  19.181  0.00  0.00    +0.000 C 
ATOM     20  C   UNL     1      10.187  14.405  19.274  0.00  0.00    +0.000 A 
ATOM     21  C   UNL     1      10.742  13.555  18.323  0.00  0.00    +0.000 A 
ATOM     22  C   UNL     1      10.532  12.175  18.398  0.00  0.00    +0.000 A 
ATOM     23  C   UNL     1       9.765  11.592  19.415  0.00  0.00    +0.000 A 
ATOM     24  C   UNL     1       9.212  12.448  20.374  0.00  0.00    +0.000 A 
ATOM     25  C   UNL     1       9.422  13.840  20.303  0.00  0.00    +0.000 A 
ENDBRANCH   1  23
TORSDOF 2
ENDMDL
MODEL 7
REMARK VINA RESULT:      -8.0      1.772      8.675
REMARK  Name = 
REMARK  3 active torsions:
REMARK  status: ('A' for Active; 'I' for Inactive)
REMARK    1  A    between atoms: C_1  and  C_2
REMARK    2  A    between atoms: C_5  and  N_6
REMARK    3  A    between atoms: N_9  and  N_10
REMARK                            x       y       z     vdW  Elec       q    Type
REMARK                         _______ _______ _______ _____ _____    ______ ____
ROOT
ATOM      1  N   UNL     1       3.356   6.660  18.903  0.00  0.00    +0.000 N 
ATOM      2  C   UNL     1       2.365   7.610  18.756  0.00  0.00    +0.000 C 
ATOM      3  O   UNL     1       1.937   7.997  17.668  0.00  0.00    +0.000 OA
ATOM      4  N   UNL     1       1.837   8.132  19.936  0.00  0.00    +0.000 N 
ATOM      5  H   UNL     1       3.632   6.406  19.839  0.00  0.00    +0.000 HD
ATOM      6  H   UNL     1       2.120   7.883  20.876  0.00  0.00    +0.000 HD
ENDROOT
BRANCH   4   7
ATOM      7  N   UNL     1       0.869   9.060  19.719  0.00  0.00    +0.000 NA
ATOM      8  C   UNL     1       0.336   9.823  20.602  0.00  0.00    +0.000 C 
ATOM      9  C   UNL     1       0.543   9.989  22.097  0.00  0.00    +0.000 C 
ATOM     10  O   UNL     1       1.331   9.360  22.769  0.00  0.00    +0.000 OA
ATOM     11  N   UNL     1      -0.348  10.986  22.480  0.00  0.00    +0.000 N 
ATOM     12  C   UNL     1      -1.077  11.446  21.381  0.00  0.00    +0.000 A 
ATOM     13  C   UNL     1      -2.054  12.419  21.329  0.00  0.00    +0.000 A 
ATOM     14  C   UNL     1      -2.637  12.691  20.077  0.00  0.00    +0.000 A 
ATOM     15  C   UNL     1      -2.240  11.997  18.916  0.00  0.00    +0.000 A 
ATOM     16  C   UNL     1      -1.251  11.020  18.984  0.00  0.00    +0.000 A 
ATOM     17  C   UNL     1      -0.700  10.776  20.227  0.00  0.00    +0.000 A 
ATOM     18  H   UNL     1      -0.443  11.321  23.427  0.00  0.00    +0.000 HD
ENDBRANCH   4   7
BRANCH   1  23
ATOM     19  C   UNL     1       6.052   3.963  14.564  0.00  0.00    +0.000 C 
ATOM     20  C   UNL     1       5.344   4.664  15.685  0.00  0.00    +0.000 A 
ATOM     21  C   UNL     1       5.540   6.025  15.891  0.00  0.00    +0.000 A 
ATOM     22  C   UNL     1       4.890   6.684  16.939  0.00  0.00    +0.000 A 
ATOM     23  C   UNL     1       4.028   6.016  17.818  0.00  0.00    +0.000 A 
ATOM     24  C   UNL     1       3.829   4.647  17.606  0.00  0.00    +0.000 A 
ATOM     25  C   UNL     1       4.481   3.979  16.550  0.00  0.00    +0.000 A 
ENDBRANCH   1  23
TORSDOF 2
ENDMDL
MODEL 8
REMARK VINA RESULT:      -8.0      1.140      1.350
REMARK  Name = 
REMARK  3 active torsions:
REMARK  status: ('A' for Active; 'I' for Inactive)
REMARK    1  A    between atoms: C_1  and  C_2
REMARK    2  A    between atoms: C_5  and  N_6
REMARK    3  A    between atoms: N_9  and  N_10
REMARK                            x       y       z     vdW  Elec       q    Type
REMARK                         _______ _______ _______ _____ _____    ______ ____
ROOT
ATOM      1  N   UNL     1       0.376   8.808  21.670  0.00  0.00    +0.000 N 
ATOM      2  C   UNL     1       1.194   8.505  20.600  0.00  0.00    +0.000 C 
ATOM      3  O   UNL     1       1.362   9.244  19.630  0.00  0.00    +0.000 OA
ATOM      4  N   UNL     1       1.857   7.280  20.665  0.00  0.00    +0.000 N 
ATOM      5  H   UNL     1       0.310   8.137  22.420  0.00  0.00    +0.000 HD
ATOM      6  H   UNL     1       1.786   6.603  21.415  0.00  0.00    +0.000 HD
ENDROOT
BRANCH   4   7
ATOM      7  N   UNL     1       2.643   7.046  19.582  0.00  0.00    +0.000 NA
ATOM      8  C   UNL     1       2.887   5.902  19.054  0.00  0.00    +0.000 C 
ATOM      9  C   UNL     1       2.446   4.487  19.382  0.00  0.00    +0.000 C 
ATOM     10  O   UNL     1       1.713   4.177  20.296  0.00  0.00    +0.000 OA
ATOM     11  N   UNL     1       3.059   3.683  18.428  0.00  0.00    +0.000 N 
ATOM     12  C   UNL     1       3.828   4.453  17.552  0.00  0.00    +0.000 A 
ATOM     13  C   UNL     1       4.591   4.049  16.476  0.00  0.00    +0.000 A 
ATOM     14  C   UNL     1       5.276   5.042  15.753  0.00  0.00    +0.000 A 
ATOM     15  C   UNL     1       5.189   6.403  16.112  0.00  0.00    +0.000 A 
ATOM     16  C   UNL     1       4.414   6.795  17.199  0.00  0.00    +0.000 A 
ATOM     17  C   UNL     1       3.755   5.796  17.889  0.00  0.00    +0.000 A 
ATOM     18  H   UNL     1       2.954   2.680  18.387  0.00  0.00    +0.000 HD
ENDBRANCH   4   7
BRANCH   1  23
ATOM     19  C   UNL     1      -2.777  13.616  22.231  0.00  0.00    +0.000 C 
ATOM     20  C   UNL     1      -1.951  12.372  22.088  0.00  0.00    +0.000 A 
ATOM     21  C   UNL     1      -1.473  11.992  20.839  0.00  0.00    +0.000 A 
ATOM     22  C   UNL     1      -0.710  10.829  20.697  0.00  0.00    +0.000 A 
ATOM     23  C   UNL     1      -0.396  10.006  21.786  0.00  0.00    +0.000 A 
ATOM     24  C   UNL     1      -0.873  10.394  23.043  0.00  0.00    +0.000 A 
ATOM     25  C   UNL     1      -1.643  11.565  23.191  0.00  0.00    +0.000 A 
ENDBRANCH   1  23
TORSDOF 2
ENDMDL
MODEL 9
REMARK VINA RESULT:      -8.0      1.765      8.692
REMARK  Name = 
REMARK  3 active torsions:
REMARK  status: ('A' for Active; 'I' for Inactive)
REMARK    1  A    between atoms: C_1  and  C_2
REMARK    2  A    between atoms: C_5  and  N_6
REMARK    3  A    between atoms: N_9  and  N_10
REMARK                            x       y       z     vdW  Elec       q    Type
REMARK                         _______ _______ _______ _____ _____    ______ ____
ROOT
ATOM      1  N   UNL     1       3.365   6.631  18.939  0.00  0.00    +0.000 N 
ATOM      2  C   UNL     1       2.371   7.576  18.779  0.00  0.00    +0.000 C 
ATOM      3  O   UNL     1       1.929   7.934  17.687  0.00  0.00    +0.000 OA
ATOM      4  N   UNL     1       1.857   8.128  19.952  0.00  0.00    +0.000 N 
ATOM      5  H   UNL     1       3.653   6.402  19.878  0.00  0.00    +0.000 HD
ATOM      6  H   UNL     1       2.151   7.904  20.895  0.00  0.00    +0.000 HD
ENDROOT
BRANCH   4   7
ATOM      7  N   UNL     1       0.885   9.049  19.722  0.00  0.00    +0.000 NA
ATOM      8  C   UNL     1       0.346   9.819  20.597  0.00  0.00    +0.000 C 
ATOM      9  C   UNL     1       0.548  10.002  22.090  0.00  0.00    +0.000 C 
ATOM     10  O   UNL     1       1.337   9.383  22.770  0.00  0.00    +0.000 OA
ATOM     11  N   UNL     1      -0.348  10.998  22.460  0.00  0.00    +0.000 N 
ATOM     12  C   UNL     1      -1.077  11.443  21.354  0.00  0.00    +0.000 A 
ATOM     13  C   UNL     1      -2.058  12.411  21.289  0.00  0.00    +0.000 A 
ATOM     14  C   UNL     1      -2.639  12.667  20.034  0.00  0.00    +0.000 A 
ATOM     15  C   UNL     1      -2.235  11.963  18.881  0.00  0.00    +0.000 A 
ATOM     16  C   UNL     1      -1.243  10.991  18.962  0.00  0.00    +0.000 A 
ATOM     17  C   UNL     1      -0.693  10.762  20.208  0.00  0.00    +0.000 A 
ATOM     18  H   UNL     1      -0.447  11.343  23.403  0.00  0.00    +0.000 HD
ENDBRANCH   4   7
BRANCH   1  23
ATOM     19  C   UNL     1       6.050   4.009  14.547  0.00  0.00    +0.000 C 
ATOM     20  C   UNL     1       5.360   4.689  15.693  0.00  0.00    +0.000 A 
ATOM     21  C   UNL     1       4.487   3.973  16.505  0.00  0.00    +0.000 A 
ATOM     22  C   UNL     1       3.834   4.602  17.570  0.00  0.00    +0.000 A 
ATOM     23  C   UNL     1       4.024   5.959  17.864  0.00  0.00    +0.000 A 
ATOM     24  C   UNL     1       4.907   6.675  17.048  0.00  0.00    +0.000 A 
ATOM     25  C   UNL     1       5.568   6.045  15.974  0.00  0.00    +0.000 A 
ENDBRANCH   1  23
TORSDOF 2
ENDMDL
