MODEL 1
REMARK VINA RESULT:      -7.7      0.000      0.000
REMARK  Name = 
REMARK  14 active torsions:
REMARK  status: ('A' for Active; 'I' for Inactive)
REMARK    1  A    between atoms: C_1  and  C_2
REMARK    2  A    between atoms: C_2  and  O_3
REMARK    3  A    between atoms: O_3  and  C_4
REMARK    4  A    between atoms: C_7  and  C_8
REMARK    5  A    between atoms: C_7  and  C_10
REMARK    6  A    between atoms: C_8  and  S_9
REMARK    7  A    between atoms: N_12  and  C_13
REMARK    8  A    between atoms: C_13  and  C_14
REMARK    9  A    between atoms: C_13  and  C_21
REMARK   10  A    between atoms: C_14  and  C_15
REMARK   11  A    between atoms: N_23  and  C_24
REMARK   12  A    between atoms: C_27  and  N_28
REMARK   13  A    between atoms: N_28  and  C_29
REMARK   14  A    between atoms: N_28  and  C_30
REMARK                            x       y       z     vdW  Elec       q    Type
REMARK                         _______ _______ _______ _____ _____    ______ ____
ROOT
ATOM      1  C   UNL     1       2.804   6.639  18.407  0.00  0.00    +0.000 C 
ENDROOT
BRANCH   1   4
ATOM      2  C   UNL     1       5.011   5.558  17.831  0.00  0.00    +0.000 C 
ATOM      3  O   UNL     1       4.656   4.460  18.248  0.00  0.00    +0.000 OA
ATOM      4  N   UNL     1       4.170   6.642  17.859  0.00  0.00    +0.000 N 
ATOM      5  H   UNL     1       4.407   7.490  17.348  0.00  0.00    +0.000 HD
BRANCH   2   9
ATOM      6  C   UNL     1       6.227   4.566  14.439  0.00  0.00    +0.000 C 
ATOM      7  C   UNL     1       5.588   5.924  14.745  0.00  0.00    +0.000 C 
ATOM      8  C   UNL     1       6.276   6.658  15.898  0.00  0.00    +0.000 C 
ATOM      9  C   UNL     1       6.411   5.812  17.194  0.00  0.00    +0.000 C 
ATOM     10  C   UNL     1       7.084   4.465  16.825  0.00  0.00    +0.000 C 
ATOM     11  C   UNL     1       6.335   3.727  15.714  0.00  0.00    +0.000 C 
BRANCH   6  12
ATOM     12  O   UNL     1       5.449   3.822  13.493  0.00  0.00    +0.000 OA
BRANCH  12  14
ATOM     13  C   UNL     1       5.557   2.331  11.616  0.00  0.00    +0.000 C 
ATOM     14  C   UNL     1       6.127   3.581  12.261  0.00  0.00    +0.000 C 
ENDBRANCH  12  14
ENDBRANCH   6  12
BRANCH   9  15
ATOM     15  C   UNL     1       7.215   6.605  18.261  0.00  0.00    +0.000 C 
BRANCH  15  16
ATOM     16  S   UNL     1       7.841   8.255  17.779  0.00  0.00    +0.000 S 
ATOM     17  H   UNL     1       8.909   7.832  17.086  0.00  0.00    +0.000 HD
ENDBRANCH  15  16
ENDBRANCH   9  15
ENDBRANCH   2   9
ENDBRANCH   1   4
BRANCH   1  18
ATOM     18  C   UNL     1       2.328   8.111  18.357  0.00  0.00    +0.000 C 
ATOM     19  O   UNL     1       2.618   8.795  17.379  0.00  0.00    +0.000 OA
ATOM     20  N   UNL     1       1.561   8.551  19.436  0.00  0.00    +0.000 N 
ATOM     21  H   UNL     1       1.532   7.979  20.276  0.00  0.00    +0.000 HD
BRANCH  20  22
ATOM     22  C   UNL     1       0.986   9.841  19.552  0.00  0.00    +0.000 A 
ATOM     23  C   UNL     1       1.273  10.706  20.598  0.00  0.00    +0.000 A 
ATOM     24  C   UNL     1       0.698  11.992  20.664  0.00  0.00    +0.000 A 
ATOM     25  C   UNL     1      -0.185  12.478  19.693  0.00  0.00    +0.000 A 
ATOM     26  C   UNL     1      -0.482  11.572  18.663  0.00  0.00    +0.000 A 
ATOM     27  C   UNL     1       0.103  10.288  18.572  0.00  0.00    +0.000 A 
BRANCH  25  28
ATOM     28  N   UNL     1      -0.776  13.734  19.794  0.00  0.00    +0.000 N 
ATOM     29  C   UNL     1      -0.368  14.859  18.945  0.00  0.00    +0.000 C 
ATOM     30  C   UNL     1      -2.133  13.891  20.322  0.00  0.00    +0.000 C 
ENDBRANCH  25  28
ENDBRANCH  20  22
ENDBRANCH   1  18
BRANCH   1  31
ATOM     31  C   UNL     1       2.708   5.964  19.786  0.00  0.00    +0.000 C 
BRANCH  31  32
ATOM     32  C   UNL     1       1.987   4.636  19.919  0.00  0.00    +0.000 A 
ATOM     33  C   UNL     1       1.477   3.932  18.819  0.00  0.00    +0.000 A 
ATOM     34  C   UNL     1       0.984   2.633  18.963  0.00  0.00    +0.000 A 
ATOM     35  C   UNL     1       0.986   2.016  20.209  0.00  0.00    +0.000 A 
ATOM     36  C   UNL     1       1.455   2.711  21.320  0.00  0.00    +0.000 A 
ATOM     37  C   UNL     1       1.951   4.009  21.175  0.00  0.00    +0.000 A 
ENDBRANCH  31  32
ENDBRANCH   1  31
TORSDOF 11
ENDMDL
MODEL 2
REMARK VINA RESULT:      -7.6      4.025      7.604
REMARK  Name = 
REMARK  14 active torsions:
REMARK  status: ('A' for Active; 'I' for Inactive)
REMARK    1  A    between atoms: C_1  and  C_2
REMARK    2  A    between atoms: C_2  and  O_3
REMARK    3  A    between atoms: O_3  and  C_4
REMARK    4  A    between atoms: C_7  and  C_8
REMARK    5  A    between atoms: C_7  and  C_10
REMARK    6  A    between atoms: C_8  and  S_9
REMARK    7  A    between atoms: N_12  and  C_13
REMARK    8  A    between atoms: C_13  and  C_14
REMARK    9  A    between atoms: C_13  and  C_21
REMARK   10  A    between atoms: C_14  and  C_15
REMARK   11  A    between atoms: N_23  and  C_24
REMARK   12  A    between atoms: C_27  and  N_28
REMARK   13  A    between atoms: N_28  and  C_29
REMARK   14  A    between atoms: N_28  and  C_30
REMARK                            x       y       z     vdW  Elec       q    Type
REMARK                         _______ _______ _______ _____ _____    ______ ____
ROOT
ATOM      1  C   UNL     1       7.134   6.348  18.322  0.00  0.00    +0.000 C 
ENDROOT
BRANCH   1   4
ATOM      2  C   UNL     1       4.697   5.966  18.859  0.00  0.00    +0.000 C 
ATOM      3  O   UNL     1       4.955   5.289  19.850  0.00  0.00    +0.000 OA
ATOM      4  N   UNL     1       5.690   6.519  18.090  0.00  0.00    +0.000 N 
ATOM      5  H   UNL     1       5.466   7.222  17.389  0.00  0.00    +0.000 HD
BRANCH   2   9
ATOM      6  C   UNL     1       1.608   3.913  19.325  0.00  0.00    +0.000 C 
ATOM      7  C   UNL     1       2.064   4.994  20.311  0.00  0.00    +0.000 C 
ATOM      8  C   UNL     1       2.292   6.351  19.642  0.00  0.00    +0.000 C 
ATOM      9  C   UNL     1       3.241   6.297  18.413  0.00  0.00    +0.000 C 
ATOM     10  C   UNL     1       2.716   5.206  17.444  0.00  0.00    +0.000 C 
ATOM     11  C   UNL     1       2.560   3.847  18.128  0.00  0.00    +0.000 C 
BRANCH   6  12
ATOM     12  O   UNL     1       1.590   2.618  19.938  0.00  0.00    +0.000 OA
BRANCH  12  14
ATOM     13  C   UNL     1       1.226   2.358  22.296  0.00  0.00    +0.000 C 
ATOM     14  C   UNL     1       2.253   2.576  21.201  0.00  0.00    +0.000 C 
ENDBRANCH  12  14
ENDBRANCH   6  12
BRANCH   9  15
ATOM     15  C   UNL     1       3.319   7.697  17.744  0.00  0.00    +0.000 C 
BRANCH  15  16
ATOM     16  S   UNL     1       1.902   8.825  17.999  0.00  0.00    +0.000 S 
ATOM     17  H   UNL     1       1.404   8.222  19.088  0.00  0.00    +0.000 HD
ENDBRANCH  15  16
ENDBRANCH   9  15
ENDBRANCH   2   9
ENDBRANCH   1   4
BRANCH   1  18
ATOM     18  C   UNL     1       7.779   7.712  17.976  0.00  0.00    +0.000 C 
ATOM     19  O   UNL     1       7.686   8.138  16.827  0.00  0.00    +0.000 OA
ATOM     20  N   UNL     1       8.403   8.385  19.025  0.00  0.00    +0.000 N 
ATOM     21  H   UNL     1       8.592   7.876  19.885  0.00  0.00    +0.000 HD
BRANCH  20  22
ATOM     22  C   UNL     1       9.001   9.667  18.928  0.00  0.00    +0.000 A 
ATOM     23  C   UNL     1       8.944  10.444  17.781  0.00  0.00    +0.000 A 
ATOM     24  C   UNL     1       9.531  11.725  17.734  0.00  0.00    +0.000 A 
ATOM     25  C   UNL     1      10.199  12.293  18.825  0.00  0.00    +0.000 A 
ATOM     26  C   UNL     1      10.270  11.473  19.962  0.00  0.00    +0.000 A 
ATOM     27  C   UNL     1       9.667  10.196  20.031  0.00  0.00    +0.000 A 
BRANCH  25  28
ATOM     28  N   UNL     1      10.809  13.542  18.749  0.00  0.00    +0.000 N 
ATOM     29  C   UNL     1      11.063  14.210  17.468  0.00  0.00    +0.000 C 
ATOM     30  C   UNL     1      10.750  14.481  19.872  0.00  0.00    +0.000 C 
ENDBRANCH  25  28
ENDBRANCH  20  22
ENDBRANCH   1  18
BRANCH   1  31
ATOM     31  C   UNL     1       7.724   5.136  17.581  0.00  0.00    +0.000 C 
BRANCH  31  32
ATOM     32  C   UNL     1       7.059   4.639  16.312  0.00  0.00    +0.000 A 
ATOM     33  C   UNL     1       5.903   3.845  16.317  0.00  0.00    +0.000 A 
ATOM     34  C   UNL     1       5.220   3.562  15.132  0.00  0.00    +0.000 A 
ATOM     35  C   UNL     1       5.684   4.062  13.919  0.00  0.00    +0.000 A 
ATOM     36  C   UNL     1       6.848   4.822  13.888  0.00  0.00    +0.000 A 
ATOM     37  C   UNL     1       7.530   5.108  15.074  0.00  0.00    +0.000 A 
ENDBRANCH  31  32
ENDBRANCH   1  31
TORSDOF 11
ENDMDL
MODEL 3
REMARK VINA RESULT:      -7.6      0.553      1.071
REMARK  Name = 
REMARK  14 active torsions:
REMARK  status: ('A' for Active; 'I' for Inactive)
REMARK    1  A    between atoms: C_1  and  C_2
REMARK    2  A    between atoms: C_2  and  O_3
REMARK    3  A    between atoms: O_3  and  C_4
REMARK    4  A    between atoms: C_7  and  C_8
REMARK    5  A    between atoms: C_7  and  C_10
REMARK    6  A    between atoms: C_8  and  S_9
REMARK    7  A    between atoms: N_12  and  C_13
REMARK    8  A    between atoms: C_13  and  C_14
REMARK    9  A    between atoms: C_13  and  C_21
REMARK   10  A    between atoms: C_14  and  C_15
REMARK   11  A    between atoms: N_23  and  C_24
REMARK   12  A    between atoms: C_27  and  N_28
REMARK   13  A    between atoms: N_28  and  C_29
REMARK   14  A    between atoms: N_28  and  C_30
REMARK                            x       y       z     vdW  Elec       q    Type
REMARK                         _______ _______ _______ _____ _____    ______ ____
ROOT
ATOM      1  C   UNL     1       2.901   6.559  18.462  0.00  0.00    +0.000 C 
ENDROOT
BRANCH   1   4
ATOM      2  C   UNL     1       5.199   5.626  17.991  0.00  0.00    +0.000 C 
ATOM      3  O   UNL     1       4.990   4.608  18.644  0.00  0.00    +0.000 OA
ATOM      4  N   UNL     1       4.237   6.595  17.846  0.00  0.00    +0.000 N 
ATOM      5  H   UNL     1       4.355   7.337  17.159  0.00  0.00    +0.000 HD
BRANCH   2   9
ATOM      6  C   UNL     1       6.110   4.674  14.493  0.00  0.00    +0.000 C 
ATOM      7  C   UNL     1       5.498   6.026  14.871  0.00  0.00    +0.000 C 
ATOM      8  C   UNL     1       6.285   6.750  15.965  0.00  0.00    +0.000 C 
ATOM      9  C   UNL     1       6.536   5.891  17.235  0.00  0.00    +0.000 C 
ATOM     10  C   UNL     1       7.176   4.550  16.793  0.00  0.00    +0.000 C 
ATOM     11  C   UNL     1       6.333   3.821  15.745  0.00  0.00    +0.000 C 
BRANCH   6  12
ATOM     12  O   UNL     1       5.253   3.937  13.613  0.00  0.00    +0.000 OA
BRANCH  12  14
ATOM     13  C   UNL     1       4.895   2.878  11.490  0.00  0.00    +0.000 C 
ATOM     14  C   UNL     1       5.924   3.414  12.468  0.00  0.00    +0.000 C 
ENDBRANCH  12  14
ENDBRANCH   6  12
BRANCH   9  15
ATOM     15  C   UNL     1       7.431   6.675  18.235  0.00  0.00    +0.000 C 
BRANCH  15  16
ATOM     16  S   UNL     1       7.911   8.377  17.768  0.00  0.00    +0.000 S 
ATOM     17  H   UNL     1       8.437   8.731  18.950  0.00  0.00    +0.000 HD
ENDBRANCH  15  16
ENDBRANCH   9  15
ENDBRANCH   2   9
ENDBRANCH   1   4
BRANCH   1  18
ATOM     18  C   UNL     1       2.351   8.002  18.356  0.00  0.00    +0.000 C 
ATOM     19  O   UNL     1       2.469   8.605  17.292  0.00  0.00    +0.000 OA
ATOM     20  N   UNL     1       1.719   8.509  19.491  0.00  0.00    +0.000 N 
ATOM     21  H   UNL     1       1.834   8.014  20.372  0.00  0.00    +0.000 HD
BRANCH  20  22
ATOM     22  C   UNL     1       1.102   9.782  19.578  0.00  0.00    +0.000 A 
ATOM     23  C   UNL     1       1.524  10.879  18.843  0.00  0.00    +0.000 A 
ATOM     24  C   UNL     1       0.868  12.123  18.940  0.00  0.00    +0.000 A 
ATOM     25  C   UNL     1      -0.240  12.333  19.770  0.00  0.00    +0.000 A 
ATOM     26  C   UNL     1      -0.627  11.215  20.526  0.00  0.00    +0.000 A 
ATOM     27  C   UNL     1       0.009   9.956  20.422  0.00  0.00    +0.000 A 
BRANCH  25  28
ATOM     28  N   UNL     1      -0.853  13.577  19.886  0.00  0.00    +0.000 N 
ATOM     29  C   UNL     1      -0.423  14.735  19.093  0.00  0.00    +0.000 C 
ATOM     30  C   UNL     1      -2.234  13.699  20.358  0.00  0.00    +0.000 C 
ENDBRANCH  25  28
ENDBRANCH  20  22
ENDBRANCH   1  18
BRANCH   1  31
ATOM     31  C   UNL     1       2.905   5.960  19.879  0.00  0.00    +0.000 C 
BRANCH  31  32
ATOM     32  C   UNL     1       2.306   4.586  20.111  0.00  0.00    +0.000 A 
ATOM     33  C   UNL     1       2.274   3.971  21.370  0.00  0.00    +0.000 A 
ATOM     34  C   UNL     1       1.554   2.791  21.576  0.00  0.00    +0.000 A 
ATOM     35  C   UNL     1       0.860   2.202  20.525  0.00  0.00    +0.000 A 
ATOM     36  C   UNL     1       0.909   2.776  19.260  0.00  0.00    +0.000 A 
ATOM     37  C   UNL     1       1.626   3.958  19.054  0.00  0.00    +0.000 A 
ENDBRANCH  31  32
ENDBRANCH   1  31
TORSDOF 11
ENDMDL
MODEL 4
REMARK VINA RESULT:      -7.5      4.027      7.601
REMARK  Name = 
REMARK  14 active torsions:
REMARK  status: ('A' for Active; 'I' for Inactive)
REMARK    1  A    between atoms: C_1  and  C_2
REMARK    2  A    between atoms: C_2  and  O_3
REMARK    3  A    between atoms: O_3  and  C_4
REMARK    4  A    between atoms: C_7  and  C_8
REMARK    5  A    between atoms: C_7  and  C_10
REMARK    6  A    between atoms: C_8  and  S_9
REMARK    7  A    between atoms: N_12  and  C_13
REMARK    8  A    between atoms: C_13  and  C_14
REMARK    9  A    between atoms: C_13  and  C_21
REMARK   10  A    between atoms: C_14  and  C_15
REMARK   11  A    between atoms: N_23  and  C_24
REMARK   12  A    between atoms: C_27  and  N_28
REMARK   13  A    between atoms: N_28  and  C_29
REMARK   14  A    between atoms: N_28  and  C_30
REMARK                            x       y       z     vdW  Elec       q    Type
REMARK                         _______ _______ _______ _____ _____    ______ ____
ROOT
ATOM      1  C   UNL     1       7.099   6.518  18.205  0.00  0.00    +0.000 C 
ENDROOT
BRANCH   1   4
ATOM      2  C   UNL     1       4.706   6.020  18.838  0.00  0.00    +0.000 C 
ATOM      3  O   UNL     1       5.036   5.350  19.813  0.00  0.00    +0.000 OA
ATOM      4  N   UNL     1       5.641   6.623  18.033  0.00  0.00    +0.000 N 
ATOM      5  H   UNL     1       5.356   7.318  17.347  0.00  0.00    +0.000 HD
BRANCH   2   9
ATOM      6  C   UNL     1       1.706   3.930  19.609  0.00  0.00    +0.000 C 
ATOM      7  C   UNL     1       2.184   5.084  20.496  0.00  0.00    +0.000 C 
ATOM      8  C   UNL     1       2.338   6.398  19.728  0.00  0.00    +0.000 C 
ATOM      9  C   UNL     1       3.220   6.286  18.454  0.00  0.00    +0.000 C 
ATOM     10  C   UNL     1       2.673   5.121  17.589  0.00  0.00    +0.000 C 
ATOM     11  C   UNL     1       2.592   3.807  18.368  0.00  0.00    +0.000 C 
BRANCH   6  12
ATOM     12  O   UNL     1       1.757   2.678  20.305  0.00  0.00    +0.000 OA
BRANCH  12  14
ATOM     13  C   UNL     1       4.022   2.101  20.847  0.00  0.00    +0.000 C 
ATOM     14  C   UNL     1       2.709   2.655  21.368  0.00  0.00    +0.000 C 
ENDBRANCH  12  14
ENDBRANCH   6  12
BRANCH   9  15
ATOM     15  C   UNL     1       3.223   7.640  17.692  0.00  0.00    +0.000 C 
BRANCH  15  16
ATOM     16  S   UNL     1       1.834   8.785  18.017  0.00  0.00    +0.000 S 
ATOM     17  H   UNL     1       1.573   9.097  16.739  0.00  0.00    +0.000 HD
ENDBRANCH  15  16
ENDBRANCH   9  15
ENDBRANCH   2   9
ENDBRANCH   1   4
BRANCH   1  18
ATOM     18  C   UNL     1       7.650   7.950  18.007  0.00  0.00    +0.000 C 
ATOM     19  O   UNL     1       7.218   8.629  17.077  0.00  0.00    +0.000 OA
ATOM     20  N   UNL     1       8.592   8.387  18.937  0.00  0.00    +0.000 N 
ATOM     21  H   UNL     1       9.022   7.699  19.551  0.00  0.00    +0.000 HD
BRANCH  20  22
ATOM     22  C   UNL     1       9.173   9.679  18.963  0.00  0.00    +0.000 A 
ATOM     23  C   UNL     1       9.569  10.354  17.818  0.00  0.00    +0.000 A 
ATOM     24  C   UNL     1      10.120  11.650  17.884  0.00  0.00    +0.000 A 
ATOM     25  C   UNL     1      10.300  12.336  19.091  0.00  0.00    +0.000 A 
ATOM     26  C   UNL     1       9.920  11.619  20.236  0.00  0.00    +0.000 A 
ATOM     27  C   UNL     1       9.346  10.327  20.183  0.00  0.00    +0.000 A 
BRANCH  25  28
ATOM     28  N   UNL     1      10.883  13.598  19.144  0.00  0.00    +0.000 N 
ATOM     29  C   UNL     1      10.243  14.726  19.831  0.00  0.00    +0.000 C 
ATOM     30  C   UNL     1      12.333  13.768  19.015  0.00  0.00    +0.000 C 
ENDBRANCH  25  28
ENDBRANCH  20  22
ENDBRANCH   1  18
BRANCH   1  31
ATOM     31  C   UNL     1       7.735   5.440  17.310  0.00  0.00    +0.000 C 
BRANCH  31  32
ATOM     32  C   UNL     1       7.001   4.970  16.069  0.00  0.00    +0.000 A 
ATOM     33  C   UNL     1       7.402   5.314  14.771  0.00  0.00    +0.000 A 
ATOM     34  C   UNL     1       6.812   4.716  13.654  0.00  0.00    +0.000 A 
ATOM     35  C   UNL     1       5.806   3.769  13.816  0.00  0.00    +0.000 A 
ATOM     36  C   UNL     1       5.370   3.440  15.095  0.00  0.00    +0.000 A 
ATOM     37  C   UNL     1       5.962   4.036  16.212  0.00  0.00    +0.000 A 
ENDBRANCH  31  32
ENDBRANCH   1  31
TORSDOF 11
ENDMDL
MODEL 5
REMARK VINA RESULT:      -7.5      1.087      1.390
REMARK  Name = 
REMARK  14 active torsions:
REMARK  status: ('A' for Active; 'I' for Inactive)
REMARK    1  A    between atoms: C_1  and  C_2
REMARK    2  A    between atoms: C_2  and  O_3
REMARK    3  A    between atoms: O_3  and  C_4
REMARK    4  A    between atoms: C_7  and  C_8
REMARK    5  A    between atoms: C_7  and  C_10
REMARK    6  A    between atoms: C_8  and  S_9
REMARK    7  A    between atoms: N_12  and  C_13
REMARK    8  A    between atoms: C_13  and  C_14
REMARK    9  A    between atoms: C_13  and  C_21
REMARK   10  A    between atoms: C_14  and  C_15
REMARK   11  A    between atoms: N_23  and  C_24
REMARK   12  A    between atoms: C_27  and  N_28
REMARK   13  A    between atoms: N_28  and  C_29
REMARK   14  A    between atoms: N_28  and  C_30
REMARK                            x       y       z     vdW  Elec       q    Type
REMARK                         _______ _______ _______ _____ _____    ______ ____
ROOT
ATOM      1  C   UNL     1       2.120   6.867  19.037  0.00  0.00    +0.000 C 
ENDROOT
BRANCH   1   4
ATOM      2  C   UNL     1       3.958   5.517  17.952  0.00  0.00    +0.000 C 
ATOM      3  O   UNL     1       3.167   4.730  17.442  0.00  0.00    +0.000 OA
ATOM      4  N   UNL     1       3.527   6.575  18.714  0.00  0.00    +0.000 N 
ATOM      5  H   UNL     1       4.172   7.317  18.974  0.00  0.00    +0.000 HD
BRANCH   2   9
ATOM      6  C   UNL     1       5.836   4.687  14.829  0.00  0.00    +0.000 C 
ATOM      7  C   UNL     1       5.497   6.118  15.259  0.00  0.00    +0.000 C 
ATOM      8  C   UNL     1       5.973   6.442  16.676  0.00  0.00    +0.000 C 
ATOM      9  C   UNL     1       5.501   5.423  17.749  0.00  0.00    +0.000 C 
ATOM     10  C   UNL     1       5.892   4.001  17.271  0.00  0.00    +0.000 C 
ATOM     11  C   UNL     1       5.346   3.685  15.877  0.00  0.00    +0.000 C 
BRANCH   6  12
ATOM     12  O   UNL     1       5.213   4.353  13.583  0.00  0.00    +0.000 OA
BRANCH  12  14
ATOM     13  C   UNL     1       7.057   4.155  12.061  0.00  0.00    +0.000 C 
ATOM     14  C   UNL     1       5.959   3.418  12.805  0.00  0.00    +0.000 C 
ENDBRANCH  12  14
ENDBRANCH   6  12
BRANCH   9  15
ATOM     15  C   UNL     1       6.124   5.779  19.127  0.00  0.00    +0.000 C 
BRANCH  15  16
ATOM     16  S   UNL     1       7.949   5.843  19.226  0.00  0.00    +0.000 S 
ATOM     17  H   UNL     1       8.052   5.617  20.544  0.00  0.00    +0.000 HD
ENDBRANCH  15  16
ENDBRANCH   9  15
ENDBRANCH   2   9
ENDBRANCH   1   4
BRANCH   1  18
ATOM     18  C   UNL     1       1.964   8.399  18.883  0.00  0.00    +0.000 C 
ATOM     19  O   UNL     1       2.535   8.963  17.952  0.00  0.00    +0.000 OA
ATOM     20  N   UNL     1       1.144   9.035  19.815  0.00  0.00    +0.000 N 
ATOM     21  H   UNL     1       0.870   8.522  20.649  0.00  0.00    +0.000 HD
BRANCH  20  22
ATOM     22  C   UNL     1       0.830  10.416  19.813  0.00  0.00    +0.000 A 
ATOM     23  C   UNL     1       0.479  11.111  18.665  0.00  0.00    +0.000 A 
ATOM     24  C   UNL     1       0.149  12.481  18.710  0.00  0.00    +0.000 A 
ATOM     25  C   UNL     1       0.148  13.222  19.897  0.00  0.00    +0.000 A 
ATOM     26  C   UNL     1       0.536  12.503  21.038  0.00  0.00    +0.000 A 
ATOM     27  C   UNL     1       0.849  11.124  21.012  0.00  0.00    +0.000 A 
BRANCH  25  28
ATOM     28  N   UNL     1      -0.142  14.584  19.919  0.00  0.00    +0.000 N 
ATOM     29  C   UNL     1       0.200  15.472  18.802  0.00  0.00    +0.000 C 
ATOM     30  C   UNL     1      -1.228  15.113  20.747  0.00  0.00    +0.000 C 
ENDBRANCH  25  28
ENDBRANCH  20  22
ENDBRANCH   1  18
BRANCH   1  31
ATOM     31  C   UNL     1       1.681   6.294  20.395  0.00  0.00    +0.000 C 
BRANCH  31  32
ATOM     32  C   UNL     1       1.575   4.791  20.573  0.00  0.00    +0.000 A 
ATOM     33  C   UNL     1       0.784   3.981  19.746  0.00  0.00    +0.000 A 
ATOM     34  C   UNL     1       0.854   2.587  19.827  0.00  0.00    +0.000 A 
ATOM     35  C   UNL     1       1.711   1.981  20.739  0.00  0.00    +0.000 A 
ATOM     36  C   UNL     1       2.477   2.767  21.592  0.00  0.00    +0.000 A 
ATOM     37  C   UNL     1       2.409   4.161  21.510  0.00  0.00    +0.000 A 
ENDBRANCH  31  32
ENDBRANCH   1  31
TORSDOF 11
ENDMDL
MODEL 6
REMARK VINA RESULT:      -7.5      2.139      3.600
REMARK  Name = 
REMARK  14 active torsions:
REMARK  status: ('A' for Active; 'I' for Inactive)
REMARK    1  A    between atoms: C_1  and  C_2
REMARK    2  A    between atoms: C_2  and  O_3
REMARK    3  A    between atoms: O_3  and  C_4
REMARK    4  A    between atoms: C_7  and  C_8
REMARK    5  A    between atoms: C_7  and  C_10
REMARK    6  A    between atoms: C_8  and  S_9
REMARK    7  A    between atoms: N_12  and  C_13
REMARK    8  A    between atoms: C_13  and  C_14
REMARK    9  A    between atoms: C_13  and  C_21
REMARK   10  A    between atoms: C_14  and  C_15
REMARK   11  A    between atoms: N_23  and  C_24
REMARK   12  A    between atoms: C_27  and  N_28
REMARK   13  A    between atoms: N_28  and  C_29
REMARK   14  A    between atoms: N_28  and  C_30
REMARK                            x       y       z     vdW  Elec       q    Type
REMARK                         _______ _______ _______ _____ _____    ______ ____
ROOT
ATOM      1  C   UNL     1       2.466   6.698  18.193  0.00  0.00    +0.000 C 
ENDROOT
BRANCH   1   4
ATOM      2  C   UNL     1       4.804   5.747  18.257  0.00  0.00    +0.000 C 
ATOM      3  O   UNL     1       4.779   5.598  19.475  0.00  0.00    +0.000 OA
ATOM      4  N   UNL     1       3.725   6.251  17.575  0.00  0.00    +0.000 N 
ATOM      5  H   UNL     1       3.689   6.198  16.559  0.00  0.00    +0.000 HD
BRANCH   2   9
ATOM      6  C   UNL     1       8.201   7.300  18.143  0.00  0.00    +0.000 C 
ATOM      7  C   UNL     1       7.843   6.112  19.042  0.00  0.00    +0.000 C 
ATOM      8  C   UNL     1       7.233   4.943  18.267  0.00  0.00    +0.000 C 
ATOM      9  C   UNL     1       6.023   5.339  17.376  0.00  0.00    +0.000 C 
ATOM     10  C   UNL     1       6.454   6.525  16.475  0.00  0.00    +0.000 C 
ATOM     11  C   UNL     1       6.999   7.702  17.286  0.00  0.00    +0.000 C 
BRANCH   6  12
ATOM     12  O   UNL     1       8.587   8.444  18.916  0.00  0.00    +0.000 OA
BRANCH  12  14
ATOM     13  C   UNL     1       9.454  10.680  18.852  0.00  0.00    +0.000 C 
ATOM     14  C   UNL     1       8.543   9.668  18.183  0.00  0.00    +0.000 C 
ENDBRANCH  12  14
ENDBRANCH   6  12
BRANCH   9  15
ATOM     15  C   UNL     1       5.548   4.110  16.552  0.00  0.00    +0.000 C 
BRANCH  15  16
ATOM     16  S   UNL     1       5.896   4.124  14.757  0.00  0.00    +0.000 S 
ATOM     17  H   UNL     1       5.339   5.314  14.489  0.00  0.00    +0.000 HD
ENDBRANCH  15  16
ENDBRANCH   9  15
ENDBRANCH   2   9
ENDBRANCH   1   4
BRANCH   1  18
ATOM     18  C   UNL     1       2.499   8.244  18.143  0.00  0.00    +0.000 C 
ATOM     19  O   UNL     1       3.288   8.796  17.380  0.00  0.00    +0.000 OA
ATOM     20  N   UNL     1       1.587   8.910  18.962  0.00  0.00    +0.000 N 
ATOM     21  H   UNL     1       1.111   8.381  19.688  0.00  0.00    +0.000 HD
BRANCH  20  22
ATOM     22  C   UNL     1       1.421  10.316  19.019  0.00  0.00    +0.000 A 
ATOM     23  C   UNL     1       0.555  10.941  19.903  0.00  0.00    +0.000 A 
ATOM     24  C   UNL     1       0.437  12.345  19.946  0.00  0.00    +0.000 A 
ATOM     25  C   UNL     1       1.177  13.193  19.113  0.00  0.00    +0.000 A 
ATOM     26  C   UNL     1       2.022  12.535  18.207  0.00  0.00    +0.000 A 
ATOM     27  C   UNL     1       2.167  11.129  18.168  0.00  0.00    +0.000 A 
BRANCH  25  28
ATOM     28  N   UNL     1       1.019  14.576  19.139  0.00  0.00    +0.000 N 
ATOM     29  C   UNL     1       2.119  15.493  18.819  0.00  0.00    +0.000 C 
ATOM     30  C   UNL     1      -0.298  15.190  18.953  0.00  0.00    +0.000 C 
ENDBRANCH  25  28
ENDBRANCH  20  22
ENDBRANCH   1  18
BRANCH   1  31
ATOM     31  C   UNL     1       2.230   6.090  19.587  0.00  0.00    +0.000 C 
BRANCH  31  32
ATOM     32  C   UNL     1       1.707   4.671  19.704  0.00  0.00    +0.000 A 
ATOM     33  C   UNL     1       1.338   3.900  18.593  0.00  0.00    +0.000 A 
ATOM     34  C   UNL     1       1.036   2.543  18.727  0.00  0.00    +0.000 A 
ATOM     35  C   UNL     1       1.092   1.933  19.976  0.00  0.00    +0.000 A 
ATOM     36  C   UNL     1       1.421   2.688  21.096  0.00  0.00    +0.000 A 
ATOM     37  C   UNL     1       1.726   4.045  20.962  0.00  0.00    +0.000 A 
ENDBRANCH  31  32
ENDBRANCH   1  31
TORSDOF 11
ENDMDL
MODEL 7
REMARK VINA RESULT:      -7.5      3.988      7.662
REMARK  Name = 
REMARK  14 active torsions:
REMARK  status: ('A' for Active; 'I' for Inactive)
REMARK    1  A    between atoms: C_1  and  C_2
REMARK    2  A    between atoms: C_2  and  O_3
REMARK    3  A    between atoms: O_3  and  C_4
REMARK    4  A    between atoms: C_7  and  C_8
REMARK    5  A    between atoms: C_7  and  C_10
REMARK    6  A    between atoms: C_8  and  S_9
REMARK    7  A    between atoms: N_12  and  C_13
REMARK    8  A    between atoms: C_13  and  C_14
REMARK    9  A    between atoms: C_13  and  C_21
REMARK   10  A    between atoms: C_14  and  C_15
REMARK   11  A    between atoms: N_23  and  C_24
REMARK   12  A    between atoms: C_27  and  N_28
REMARK   13  A    between atoms: N_28  and  C_29
REMARK   14  A    between atoms: N_28  and  C_30
REMARK                            x       y       z     vdW  Elec       q    Type
REMARK                         _______ _______ _______ _____ _____    ______ ____
ROOT
ATOM      1  C   UNL     1       7.115   6.394  18.276  0.00  0.00    +0.000 C 
ENDROOT
BRANCH   1   4
ATOM      2  C   UNL     1       4.683   6.012  18.834  0.00  0.00    +0.000 C 
ATOM      3  O   UNL     1       4.949   5.274  19.778  0.00  0.00    +0.000 OA
ATOM      4  N   UNL     1       5.670   6.598  18.081  0.00  0.00    +0.000 N 
ATOM      5  H   UNL     1       5.444   7.343  17.428  0.00  0.00    +0.000 HD
BRANCH   2   9
ATOM      6  C   UNL     1       1.552   4.043  19.374  0.00  0.00    +0.000 C 
ATOM      7  C   UNL     1       2.067   5.101  20.355  0.00  0.00    +0.000 C 
ATOM      8  C   UNL     1       2.314   6.457  19.691  0.00  0.00    +0.000 C 
ATOM      9  C   UNL     1       3.224   6.389  18.434  0.00  0.00    +0.000 C 
ATOM     10  C   UNL     1       2.640   5.322  17.472  0.00  0.00    +0.000 C 
ATOM     11  C   UNL     1       2.466   3.962  18.149  0.00  0.00    +0.000 C 
BRANCH   6  12
ATOM     12  O   UNL     1       1.515   2.744  19.977  0.00  0.00    +0.000 OA
BRANCH  12  14
ATOM     13  C   UNL     1       1.284   2.270  22.318  0.00  0.00    +0.000 C 
ATOM     14  C   UNL     1       2.238   2.664  21.205  0.00  0.00    +0.000 C 
ENDBRANCH  12  14
ENDBRANCH   6  12
BRANCH   9  15
ATOM     15  C   UNL     1       3.323   7.792  17.775  0.00  0.00    +0.000 C 
BRANCH  15  16
ATOM     16  S   UNL     1       1.903   8.922  18.002  0.00  0.00    +0.000 S 
ATOM     17  H   UNL     1       2.429   9.980  17.367  0.00  0.00    +0.000 HD
ENDBRANCH  15  16
ENDBRANCH   9  15
ENDBRANCH   2   9
ENDBRANCH   1   4
BRANCH   1  18
ATOM     18  C   UNL     1       7.775   7.765  17.991  0.00  0.00    +0.000 C 
ATOM     19  O   UNL     1       7.652   8.261  16.874  0.00  0.00    +0.000 OA
ATOM     20  N   UNL     1       8.447   8.363  19.057  0.00  0.00    +0.000 N 
ATOM     21  H   UNL     1       8.654   7.799  19.877  0.00  0.00    +0.000 HD
BRANCH  20  22
ATOM     22  C   UNL     1       9.066   9.637  19.016  0.00  0.00    +0.000 A 
ATOM     23  C   UNL     1       9.455  10.326  20.156  0.00  0.00    +0.000 A 
ATOM     24  C   UNL     1      10.091  11.581  20.071  0.00  0.00    +0.000 A 
ATOM     25  C   UNL     1      10.373  12.208  18.852  0.00  0.00    +0.000 A 
ATOM     26  C   UNL     1       9.940  11.505  17.717  0.00  0.00    +0.000 A 
ATOM     27  C   UNL     1       9.321  10.235  17.785  0.00  0.00    +0.000 A 
BRANCH  25  28
ATOM     28  N   UNL     1      10.964  13.466  18.786  0.00  0.00    +0.000 N 
ATOM     29  C   UNL     1      10.184  14.683  18.538  0.00  0.00    +0.000 C 
ATOM     30  C   UNL     1      12.235  13.740  19.463  0.00  0.00    +0.000 C 
ENDBRANCH  25  28
ENDBRANCH  20  22
ENDBRANCH   1  18
BRANCH   1  31
ATOM     31  C   UNL     1       7.674   5.214  17.462  0.00  0.00    +0.000 C 
BRANCH  31  32
ATOM     32  C   UNL     1       7.041   4.860  16.130  0.00  0.00    +0.000 A 
ATOM     33  C   UNL     1       7.544   5.312  14.902  0.00  0.00    +0.000 A 
ATOM     34  C   UNL     1       7.045   4.818  13.694  0.00  0.00    +0.000 A 
ATOM     35  C   UNL     1       6.029   3.869  13.693  0.00  0.00    +0.000 A 
ATOM     36  C   UNL     1       5.491   3.434  14.899  0.00  0.00    +0.000 A 
ATOM     37  C   UNL     1       5.992   3.925  16.107  0.00  0.00    +0.000 A 
ENDBRANCH  31  32
ENDBRANCH   1  31
TORSDOF 11
ENDMDL
MODEL 8
REMARK VINA RESULT:      -7.4      1.502      1.789
REMARK  Name = 
REMARK  14 active torsions:
REMARK  status: ('A' for Active; 'I' for Inactive)
REMARK    1  A    between atoms: C_1  and  C_2
REMARK    2  A    between atoms: C_2  and  O_3
REMARK    3  A    between atoms: O_3  and  C_4
REMARK    4  A    between atoms: C_7  and  C_8
REMARK    5  A    between atoms: C_7  and  C_10
REMARK    6  A    between atoms: C_8  and  S_9
REMARK    7  A    between atoms: N_12  and  C_13
REMARK    8  A    between atoms: C_13  and  C_14
REMARK    9  A    between atoms: C_13  and  C_21
REMARK   10  A    between atoms: C_14  and  C_15
REMARK   11  A    between atoms: N_23  and  C_24
REMARK   12  A    between atoms: C_27  and  N_28
REMARK   13  A    between atoms: N_28  and  C_29
REMARK   14  A    between atoms: N_28  and  C_30
REMARK                            x       y       z     vdW  Elec       q    Type
REMARK                         _______ _______ _______ _____ _____    ______ ____
ROOT
ATOM      1  C   UNL     1       2.424   5.966  17.623  0.00  0.00    +0.000 C 
ENDROOT
BRANCH   1   4
ATOM      2  C   UNL     1       4.801   6.339  16.859  0.00  0.00    +0.000 C 
ATOM      3  O   UNL     1       4.496   7.310  16.173  0.00  0.00    +0.000 OA
ATOM      4  N   UNL     1       3.864   5.657  17.594  0.00  0.00    +0.000 N 
ATOM      5  H   UNL     1       4.154   4.978  18.293  0.00  0.00    +0.000 HD
BRANCH   2   9
ATOM      6  C   UNL     1       6.542   3.732  14.823  0.00  0.00    +0.000 C 
ATOM      7  C   UNL     1       6.591   5.230  14.502  0.00  0.00    +0.000 C 
ATOM      8  C   UNL     1       7.060   6.076  15.687  0.00  0.00    +0.000 C 
ATOM      9  C   UNL     1       6.266   5.824  16.998  0.00  0.00    +0.000 C 
ATOM     10  C   UNL     1       6.272   4.300  17.282  0.00  0.00    +0.000 C 
ATOM     11  C   UNL     1       5.737   3.486  16.101  0.00  0.00    +0.000 C 
BRANCH   6  12
ATOM     12  O   UNL     1       5.920   2.990  13.767  0.00  0.00    +0.000 OA
BRANCH  12  14
ATOM     13  C   UNL     1       4.832   3.264  11.646  0.00  0.00    +0.000 C 
ATOM     14  C   UNL     1       6.050   3.604  12.486  0.00  0.00    +0.000 C 
ENDBRANCH  12  14
ENDBRANCH   6  12
BRANCH   9  15
ATOM     15  C   UNL     1       6.887   6.647  18.160  0.00  0.00    +0.000 C 
BRANCH  15  16
ATOM     16  S   UNL     1       7.811   8.160  17.711  0.00  0.00    +0.000 S 
ATOM     17  H   UNL     1       7.366   8.258  16.449  0.00  0.00    +0.000 HD
ENDBRANCH  15  16
ENDBRANCH   9  15
ENDBRANCH   2   9
ENDBRANCH   1   4
BRANCH   1  18
ATOM     18  C   UNL     1       2.269   7.153  18.604  0.00  0.00    +0.000 C 
ATOM     19  O   UNL     1       2.753   7.059  19.730  0.00  0.00    +0.000 OA
ATOM     20  N   UNL     1       1.605   8.277  18.115  0.00  0.00    +0.000 N 
ATOM     21  H   UNL     1       1.082   8.193  17.248  0.00  0.00    +0.000 HD
BRANCH  20  22
ATOM     22  C   UNL     1       1.410   9.483  18.834  0.00  0.00    +0.000 A 
ATOM     23  C   UNL     1       0.842   9.527  20.098  0.00  0.00    +0.000 A 
ATOM     24  C   UNL     1       0.688  10.746  20.790  0.00  0.00    +0.000 A 
ATOM     25  C   UNL     1       1.095  11.976  20.260  0.00  0.00    +0.000 A 
ATOM     26  C   UNL     1       1.638  11.906  18.968  0.00  0.00    +0.000 A 
ATOM     27  C   UNL     1       1.818  10.689  18.271  0.00  0.00    +0.000 A 
BRANCH  25  28
ATOM     28  N   UNL     1       0.899  13.175  20.939  0.00  0.00    +0.000 N 
ATOM     29  C   UNL     1      -0.173  13.347  21.925  0.00  0.00    +0.000 C 
ATOM     30  C   UNL     1       2.000  14.123  21.132  0.00  0.00    +0.000 C 
ENDBRANCH  25  28
ENDBRANCH  20  22
ENDBRANCH   1  18
BRANCH   1  31
ATOM     31  C   UNL     1       1.550   4.738  17.933  0.00  0.00    +0.000 C 
BRANCH  31  32
ATOM     32  C   UNL     1       1.887   3.864  19.126  0.00  0.00    +0.000 A 
ATOM     33  C   UNL     1       3.093   3.158  19.237  0.00  0.00    +0.000 A 
ATOM     34  C   UNL     1       3.442   2.513  20.427  0.00  0.00    +0.000 A 
ATOM     35  C   UNL     1       2.587   2.557  21.524  0.00  0.00    +0.000 A 
ATOM     36  C   UNL     1       1.370   3.222  21.422  0.00  0.00    +0.000 A 
ATOM     37  C   UNL     1       1.023   3.869  20.233  0.00  0.00    +0.000 A 
ENDBRANCH  31  32
ENDBRANCH   1  31
TORSDOF 11
ENDMDL
MODEL 9
REMARK VINA RESULT:      -7.4      2.068      3.676
REMARK  Name = 
REMARK  14 active torsions:
REMARK  status: ('A' for Active; 'I' for Inactive)
REMARK    1  A    between atoms: C_1  and  C_2
REMARK    2  A    between atoms: C_2  and  O_3
REMARK    3  A    between atoms: O_3  and  C_4
REMARK    4  A    between atoms: C_7  and  C_8
REMARK    5  A    between atoms: C_7  and  C_10
REMARK    6  A    between atoms: C_8  and  S_9
REMARK    7  A    between atoms: N_12  and  C_13
REMARK    8  A    between atoms: C_13  and  C_14
REMARK    9  A    between atoms: C_13  and  C_21
REMARK   10  A    between atoms: C_14  and  C_15
REMARK   11  A    between atoms: N_23  and  C_24
REMARK   12  A    between atoms: C_27  and  N_28
REMARK   13  A    between atoms: N_28  and  C_29
REMARK   14  A    between atoms: N_28  and  C_30
REMARK                            x       y       z     vdW  Elec       q    Type
REMARK                         _______ _______ _______ _____ _____    ______ ____
ROOT
ATOM      1  C   UNL     1       2.347   6.737  18.362  0.00  0.00    +0.000 C 
ENDROOT
BRANCH   1   4
ATOM      2  C   UNL     1       4.708   5.857  18.201  0.00  0.00    +0.000 C 
ATOM      3  O   UNL     1       4.782   5.650  19.408  0.00  0.00    +0.000 OA
ATOM      4  N   UNL     1       3.566   6.359  17.628  0.00  0.00    +0.000 N 
ATOM      5  H   UNL     1       3.452   6.352  16.617  0.00  0.00    +0.000 HD
BRANCH   2   9
ATOM      6  C   UNL     1       8.122   7.370  18.045  0.00  0.00    +0.000 C 
ATOM      7  C   UNL     1       7.794   6.099  18.835  0.00  0.00    +0.000 C 
ATOM      8  C   UNL     1       7.117   5.026  17.980  0.00  0.00    +0.000 C 
ATOM      9  C   UNL     1       5.865   5.529  17.210  0.00  0.00    +0.000 C 
ATOM     10  C   UNL     1       6.265   6.797  16.413  0.00  0.00    +0.000 C 
ATOM     11  C   UNL     1       6.879   7.876  17.308  0.00  0.00    +0.000 C 
BRANCH   6  12
ATOM     12  O   UNL     1       8.574   8.421  18.908  0.00  0.00    +0.000 OA
BRANCH  12  14
ATOM     13  C   UNL     1       9.518  10.621  19.072  0.00  0.00    +0.000 C 
ATOM     14  C   UNL     1       8.610   9.700  18.277  0.00  0.00    +0.000 C 
ENDBRANCH  12  14
ENDBRANCH   6  12
BRANCH   9  15
ATOM     15  C   UNL     1       5.320   4.399  16.293  0.00  0.00    +0.000 C 
BRANCH  15  16
ATOM     16  S   UNL     1       6.088   4.220  14.642  0.00  0.00    +0.000 S 
ATOM     17  H   UNL     1       6.190   5.528  14.364  0.00  0.00    +0.000 HD
ENDBRANCH  15  16
ENDBRANCH   9  15
ENDBRANCH   2   9
ENDBRANCH   1   4
BRANCH   1  18
ATOM     18  C   UNL     1       2.195   8.265  18.166  0.00  0.00    +0.000 C 
ATOM     19  O   UNL     1       2.733   8.794  17.196  0.00  0.00    +0.000 OA
ATOM     20  N   UNL     1       1.415   8.936  19.106  0.00  0.00    +0.000 N 
ATOM     21  H   UNL     1       1.170   8.453  19.967  0.00  0.00    +0.000 HD
BRANCH  20  22
ATOM     22  C   UNL     1       1.110  10.320  19.072  0.00  0.00    +0.000 A 
ATOM     23  C   UNL     1       2.076  11.311  19.153  0.00  0.00    +0.000 A 
ATOM     24  C   UNL     1       1.733  12.676  19.089  0.00  0.00    +0.000 A 
ATOM     25  C   UNL     1       0.414  13.120  18.939  0.00  0.00    +0.000 A 
ATOM     26  C   UNL     1      -0.547  12.098  18.891  0.00  0.00    +0.000 A 
ATOM     27  C   UNL     1      -0.215  10.724  18.932  0.00  0.00    +0.000 A 
BRANCH  25  28
ATOM     28  N   UNL     1       0.086  14.473  18.919  0.00  0.00    +0.000 N 
ATOM     29  C   UNL     1      -1.027  15.018  19.704  0.00  0.00    +0.000 C 
ATOM     30  C   UNL     1       1.088  15.488  18.582  0.00  0.00    +0.000 C 
ENDBRANCH  25  28
ENDBRANCH  20  22
ENDBRANCH   1  18
BRANCH   1  31
ATOM     31  C   UNL     1       2.351   6.260  19.825  0.00  0.00    +0.000 C 
BRANCH  31  32
ATOM     32  C   UNL     1       2.038   4.809  20.138  0.00  0.00    +0.000 A 
ATOM     33  C   UNL     1       2.230   4.245  21.407  0.00  0.00    +0.000 A 
ATOM     34  C   UNL     1       1.761   2.963  21.702  0.00  0.00    +0.000 A 
ATOM     35  C   UNL     1       1.098   2.219  20.732  0.00  0.00    +0.000 A 
ATOM     36  C   UNL     1       0.929   2.746  19.456  0.00  0.00    +0.000 A 
ATOM     37  C   UNL     1       1.395   4.030  19.162  0.00  0.00    +0.000 A 
ENDBRANCH  31  32
ENDBRANCH   1  31
TORSDOF 11
ENDMDL
