MODEL 1
REMARK VINA RESULT:      -7.3      0.000      0.000
REMARK  Name = 
REMARK  6 active torsions:
REMARK  status: ('A' for Active; 'I' for Inactive)
REMARK    1  A    between atoms: C_1  and  C_2
REMARK    2  A    between atoms: C_2  and  C_3
REMARK    3  A    between atoms: C_2  and  C_4
REMARK    4  A    between atoms: C_4  and  C_5
REMARK    5  A    between atoms: C_5  and  C_7
REMARK    6  A    between atoms: C_8  and  N_9
REMARK                            x       y       z     vdW  Elec       q    Type
REMARK                         _______ _______ _______ _____ _____    ______ ____
ROOT
ATOM      1  N   UNL     1       5.465   4.642  17.635  0.00  0.00    +0.000 N 
ATOM      2  C   UNL     1       6.059   5.205  18.776  0.00  0.00    +0.000 A 
ATOM      3  S   UNL     1       7.604   5.756  19.072  0.00  0.00    +0.000 S 
ATOM      4  O   UNL     1       5.153   5.387  19.820  0.00  0.00    +0.000 OA
ATOM      5  C   UNL     1       3.974   4.931  19.266  0.00  0.00    +0.000 A 
ATOM      6  C   UNL     1       2.769   4.880  19.932  0.00  0.00    +0.000 A 
ATOM      7  C   UNL     1       1.677   4.346  19.247  0.00  0.00    +0.000 A 
ATOM      8  C   UNL     1       1.820   3.887  17.924  0.00  0.00    +0.000 A 
ATOM      9  C   UNL     1       3.053   3.962  17.265  0.00  0.00    +0.000 A 
ATOM     10  C   UNL     1       4.120   4.494  17.963  0.00  0.00    +0.000 A 
ENDROOT
BRANCH   1  12
ATOM     11  C   UNL     1       6.040   5.091  15.327  0.00  0.00    +0.000 C 
ATOM     12  C   UNL     1       6.029   4.316  16.415  0.00  0.00    +0.000 C 
BRANCH  11  13
ATOM     13  C   UNL     1       6.612   4.633  14.031  0.00  0.00    +0.000 C 
ATOM     14  O   UNL     1       7.442   5.305  13.429  0.00  0.00    +0.000 OA
BRANCH  13  15
ATOM     15  C   UNL     1       6.079   3.307  13.509  0.00  0.00    +0.000 C 
BRANCH  15  17
ATOM     16  C   UNL     1       6.476   1.965  11.396  0.00  0.00    +0.000 C 
ATOM     17  C   UNL     1       5.926   3.266  11.984  0.00  0.00    +0.000 C 
ATOM     18  C   UNL     1       4.448   3.415  11.609  0.00  0.00    +0.000 C 
ENDBRANCH  15  17
ENDBRANCH  13  15
ENDBRANCH  11  13
ENDBRANCH   1  12
TORSDOF 4
ENDMDL
MODEL 2
REMARK VINA RESULT:      -7.3      1.766      6.485
REMARK  Name = 
REMARK  6 active torsions:
REMARK  status: ('A' for Active; 'I' for Inactive)
REMARK    1  A    between atoms: C_1  and  C_2
REMARK    2  A    between atoms: C_2  and  C_3
REMARK    3  A    between atoms: C_2  and  C_4
REMARK    4  A    between atoms: C_4  and  C_5
REMARK    5  A    between atoms: C_5  and  C_7
REMARK    6  A    between atoms: C_8  and  N_9
REMARK                            x       y       z     vdW  Elec       q    Type
REMARK                         _______ _______ _______ _____ _____    ______ ____
ROOT
ATOM      1  N   UNL     1       5.763   4.444  15.910  0.00  0.00    +0.000 N 
ATOM      2  C   UNL     1       6.766   5.308  16.376  0.00  0.00    +0.000 A 
ATOM      3  S   UNL     1       7.105   5.909  17.894  0.00  0.00    +0.000 S 
ATOM      4  O   UNL     1       7.674   5.664  15.381  0.00  0.00    +0.000 OA
ATOM      5  C   UNL     1       7.199   4.967  14.289  0.00  0.00    +0.000 A 
ATOM      6  C   UNL     1       7.756   5.017  13.030  0.00  0.00    +0.000 A 
ATOM      7  C   UNL     1       7.127   4.291  12.018  0.00  0.00    +0.000 A 
ATOM      8  C   UNL     1       5.970   3.537  12.294  0.00  0.00    +0.000 A 
ATOM      9  C   UNL     1       5.431   3.493  13.586  0.00  0.00    +0.000 A 
ATOM     10  C   UNL     1       6.071   4.220  14.571  0.00  0.00    +0.000 A 
ENDROOT
BRANCH   1  12
ATOM     11  C   UNL     1       3.666   4.545  17.116  0.00  0.00    +0.000 C 
ATOM     12  C   UNL     1       4.697   3.879  16.589  0.00  0.00    +0.000 C 
BRANCH  11  13
ATOM     13  C   UNL     1       2.593   3.862  17.891  0.00  0.00    +0.000 C 
ATOM     14  O   UNL     1       1.511   3.597  17.379  0.00  0.00    +0.000 OA
BRANCH  13  15
ATOM     15  C   UNL     1       2.926   3.550  19.343  0.00  0.00    +0.000 C 
BRANCH  15  17
ATOM     16  C   UNL     1       1.907   3.034  21.604  0.00  0.00    +0.000 C 
ATOM     17  C   UNL     1       1.773   3.840  20.311  0.00  0.00    +0.000 C 
ATOM     18  C   UNL     1       1.738   5.336  20.640  0.00  0.00    +0.000 C 
ENDBRANCH  15  17
ENDBRANCH  13  15
ENDBRANCH  11  13
ENDBRANCH   1  12
TORSDOF 4
ENDMDL
MODEL 3
REMARK VINA RESULT:      -7.1      1.263      1.281
REMARK  Name = 
REMARK  6 active torsions:
REMARK  status: ('A' for Active; 'I' for Inactive)
REMARK    1  A    between atoms: C_1  and  C_2
REMARK    2  A    between atoms: C_2  and  C_3
REMARK    3  A    between atoms: C_2  and  C_4
REMARK    4  A    between atoms: C_4  and  C_5
REMARK    5  A    between atoms: C_5  and  C_7
REMARK    6  A    between atoms: C_8  and  N_9
REMARK                            x       y       z     vdW  Elec       q    Type
REMARK                         _______ _______ _______ _____ _____    ______ ____
ROOT
ATOM      1  N   UNL     1       5.025   4.051  17.254  0.00  0.00    +0.000 N 
ATOM      2  C   UNL     1       5.932   4.427  18.258  0.00  0.00    +0.000 A 
ATOM      3  S   UNL     1       7.379   5.254  18.200  0.00  0.00    +0.000 S 
ATOM      4  O   UNL     1       5.488   4.096  19.536  0.00  0.00    +0.000 OA
ATOM      5  C   UNL     1       4.261   3.519  19.278  0.00  0.00    +0.000 A 
ATOM      6  C   UNL     1       3.429   2.993  20.243  0.00  0.00    +0.000 A 
ATOM      7  C   UNL     1       2.241   2.398  19.814  0.00  0.00    +0.000 A 
ATOM      8  C   UNL     1       1.921   2.352  18.444  0.00  0.00    +0.000 A 
ATOM      9  C   UNL     1       2.778   2.904  17.485  0.00  0.00    +0.000 A 
ATOM     10  C   UNL     1       3.948   3.487  17.933  0.00  0.00    +0.000 A 
ENDROOT
BRANCH   1  12
ATOM     11  C   UNL     1       6.112   3.780  15.108  0.00  0.00    +0.000 C 
ATOM     12  C   UNL     1       5.110   4.207  15.882  0.00  0.00    +0.000 C 
BRANCH  11  13
ATOM     13  C   UNL     1       6.155   4.051  13.644  0.00  0.00    +0.000 C 
ATOM     14  O   UNL     1       7.172   4.475  13.105  0.00  0.00    +0.000 OA
BRANCH  13  15
ATOM     15  C   UNL     1       4.860   3.792  12.888  0.00  0.00    +0.000 C 
BRANCH  15  17
ATOM     16  C   UNL     1       5.714   1.846  11.507  0.00  0.00    +0.000 C 
ATOM     17  C   UNL     1       5.076   3.237  11.475  0.00  0.00    +0.000 C 
ATOM     18  C   UNL     1       3.737   3.170  10.735  0.00  0.00    +0.000 C 
ENDBRANCH  15  17
ENDBRANCH  13  15
ENDBRANCH  11  13
ENDBRANCH   1  12
TORSDOF 4
ENDMDL
MODEL 4
REMARK VINA RESULT:      -7.1      1.793      6.360
REMARK  Name = 
REMARK  6 active torsions:
REMARK  status: ('A' for Active; 'I' for Inactive)
REMARK    1  A    between atoms: C_1  and  C_2
REMARK    2  A    between atoms: C_2  and  C_3
REMARK    3  A    between atoms: C_2  and  C_4
REMARK    4  A    between atoms: C_4  and  C_5
REMARK    5  A    between atoms: C_5  and  C_7
REMARK    6  A    between atoms: C_8  and  N_9
REMARK                            x       y       z     vdW  Elec       q    Type
REMARK                         _______ _______ _______ _____ _____    ______ ____
ROOT
ATOM      1  N   UNL     1       5.589   4.824  15.767  0.00  0.00    +0.000 N 
ATOM      2  C   UNL     1       6.662   5.611  16.215  0.00  0.00    +0.000 A 
ATOM      3  S   UNL     1       6.985   6.319  17.690  0.00  0.00    +0.000 S 
ATOM      4  O   UNL     1       7.659   5.759  15.254  0.00  0.00    +0.000 OA
ATOM      5  C   UNL     1       7.165   5.014  14.203  0.00  0.00    +0.000 A 
ATOM      6  C   UNL     1       7.793   4.872  12.985  0.00  0.00    +0.000 A 
ATOM      7  C   UNL     1       7.138   4.124  12.005  0.00  0.00    +0.000 A 
ATOM      8  C   UNL     1       5.885   3.539  12.274  0.00  0.00    +0.000 A 
ATOM      9  C   UNL     1       5.274   3.687  13.525  0.00  0.00    +0.000 A 
ATOM     10  C   UNL     1       5.942   4.432  14.477  0.00  0.00    +0.000 A 
ENDROOT
BRANCH   1  12
ATOM     11  C   UNL     1       4.282   3.390  17.213  0.00  0.00    +0.000 C 
ATOM     12  C   UNL     1       4.427   4.456  16.422  0.00  0.00    +0.000 C 
BRANCH  11  13
ATOM     13  C   UNL     1       2.973   3.029  17.828  0.00  0.00    +0.000 C 
ATOM     14  O   UNL     1       2.631   1.858  17.952  0.00  0.00    +0.000 OA
BRANCH  13  15
ATOM     15  C   UNL     1       2.103   4.201  18.256  0.00  0.00    +0.000 C 
BRANCH  15  17
ATOM     16  C   UNL     1       2.183   6.026  20.013  0.00  0.00    +0.000 C 
ATOM     17  C   UNL     1       2.197   4.518  19.754  0.00  0.00    +0.000 C 
ATOM     18  C   UNL     1       1.030   3.859  20.496  0.00  0.00    +0.000 C 
ENDBRANCH  15  17
ENDBRANCH  13  15
ENDBRANCH  11  13
ENDBRANCH   1  12
TORSDOF 4
ENDMDL
MODEL 5
REMARK VINA RESULT:      -6.8      1.137      1.381
REMARK  Name = 
REMARK  6 active torsions:
REMARK  status: ('A' for Active; 'I' for Inactive)
REMARK    1  A    between atoms: C_1  and  C_2
REMARK    2  A    between atoms: C_2  and  C_3
REMARK    3  A    between atoms: C_2  and  C_4
REMARK    4  A    between atoms: C_4  and  C_5
REMARK    5  A    between atoms: C_5  and  C_7
REMARK    6  A    between atoms: C_8  and  N_9
REMARK                            x       y       z     vdW  Elec       q    Type
REMARK                         _______ _______ _______ _____ _____    ______ ____
ROOT
ATOM      1  N   UNL     1       5.348   4.424  17.478  0.00  0.00    +0.000 N 
ATOM      2  C   UNL     1       6.059   4.701  18.656  0.00  0.00    +0.000 A 
ATOM      3  S   UNL     1       7.415   5.626  18.949  0.00  0.00    +0.000 S 
ATOM      4  O   UNL     1       5.466   4.142  19.786  0.00  0.00    +0.000 OA
ATOM      5  C   UNL     1       4.350   3.527  19.256  0.00  0.00    +0.000 A 
ATOM      6  C   UNL     1       3.439   2.799  19.990  0.00  0.00    +0.000 A 
ATOM      7  C   UNL     1       2.388   2.197  19.298  0.00  0.00    +0.000 A 
ATOM      8  C   UNL     1       2.277   2.344  17.901  0.00  0.00    +0.000 A 
ATOM      9  C   UNL     1       3.208   3.100  17.180  0.00  0.00    +0.000 A 
ATOM     10  C   UNL     1       4.240   3.686  17.888  0.00  0.00    +0.000 A 
ENDROOT
BRANCH   1  12
ATOM     11  C   UNL     1       6.630   4.356  15.426  0.00  0.00    +0.000 C 
ATOM     12  C   UNL     1       5.617   4.801  16.174  0.00  0.00    +0.000 C 
BRANCH  11  13
ATOM     13  C   UNL     1       6.885   4.867  14.050  0.00  0.00    +0.000 C 
ATOM     14  O   UNL     1       7.942   5.418  13.763  0.00  0.00    +0.000 OA
BRANCH  13  15
ATOM     15  C   UNL     1       5.748   4.679  13.056  0.00  0.00    +0.000 C 
BRANCH  15  17
ATOM     16  C   UNL     1       4.477   3.101  11.534  0.00  0.00    +0.000 C 
ATOM     17  C   UNL     1       5.689   3.270  12.453  0.00  0.00    +0.000 C 
ATOM     18  C   UNL     1       6.973   2.991  11.666  0.00  0.00    +0.000 C 
ENDBRANCH  15  17
ENDBRANCH  13  15
ENDBRANCH  11  13
ENDBRANCH   1  12
TORSDOF 4
ENDMDL
MODEL 6
REMARK VINA RESULT:      -6.7      2.152      2.649
REMARK  Name = 
REMARK  6 active torsions:
REMARK  status: ('A' for Active; 'I' for Inactive)
REMARK    1  A    between atoms: C_1  and  C_2
REMARK    2  A    between atoms: C_2  and  C_3
REMARK    3  A    between atoms: C_2  and  C_4
REMARK    4  A    between atoms: C_4  and  C_5
REMARK    5  A    between atoms: C_5  and  C_7
REMARK    6  A    between atoms: C_8  and  N_9
REMARK                            x       y       z     vdW  Elec       q    Type
REMARK                         _______ _______ _______ _____ _____    ______ ____
ROOT
ATOM      1  N   UNL     1       3.720   4.269  17.941  0.00  0.00    +0.000 N 
ATOM      2  C   UNL     1       3.349   3.145  18.696  0.00  0.00    +0.000 A 
ATOM      3  S   UNL     1       3.740   1.530  18.559  0.00  0.00    +0.000 S 
ATOM      4  O   UNL     1       2.559   3.473  19.797  0.00  0.00    +0.000 OA
ATOM      5  C   UNL     1       2.479   4.847  19.699  0.00  0.00    +0.000 A 
ATOM      6  C   UNL     1       1.765   5.650  20.563  0.00  0.00    +0.000 A 
ATOM      7  C   UNL     1       1.742   7.020  20.299  0.00  0.00    +0.000 A 
ATOM      8  C   UNL     1       2.433   7.544  19.189  0.00  0.00    +0.000 A 
ATOM      9  C   UNL     1       3.161   6.709  18.333  0.00  0.00    +0.000 A 
ATOM     10  C   UNL     1       3.168   5.356  18.615  0.00  0.00    +0.000 A 
ENDROOT
BRANCH   1  12
ATOM     11  C   UNL     1       5.823   4.412  16.751  0.00  0.00    +0.000 C 
ATOM     12  C   UNL     1       4.490   4.348  16.794  0.00  0.00    +0.000 C 
BRANCH  11  13
ATOM     13  C   UNL     1       6.570   4.564  15.471  0.00  0.00    +0.000 C 
ATOM     14  O   UNL     1       7.789   4.695  15.459  0.00  0.00    +0.000 OA
BRANCH  13  15
ATOM     15  C   UNL     1       5.719   4.569  14.210  0.00  0.00    +0.000 C 
BRANCH  15  17
ATOM     16  C   UNL     1       5.209   3.214  12.130  0.00  0.00    +0.000 C 
ATOM     17  C   UNL     1       6.302   3.718  13.076  0.00  0.00    +0.000 C 
ATOM     18  C   UNL     1       7.325   4.539  12.285  0.00  0.00    +0.000 C 
ENDBRANCH  15  17
ENDBRANCH  13  15
ENDBRANCH  11  13
ENDBRANCH   1  12
TORSDOF 4
ENDMDL
MODEL 7
REMARK VINA RESULT:      -6.7      1.677      5.982
REMARK  Name = 
REMARK  6 active torsions:
REMARK  status: ('A' for Active; 'I' for Inactive)
REMARK    1  A    between atoms: C_1  and  C_2
REMARK    2  A    between atoms: C_2  and  C_3
REMARK    3  A    between atoms: C_2  and  C_4
REMARK    4  A    between atoms: C_4  and  C_5
REMARK    5  A    between atoms: C_5  and  C_7
REMARK    6  A    between atoms: C_8  and  N_9
REMARK                            x       y       z     vdW  Elec       q    Type
REMARK                         _______ _______ _______ _____ _____    ______ ____
ROOT
ATOM      1  N   UNL     1       5.639   5.156  15.969  0.00  0.00    +0.000 N 
ATOM      2  C   UNL     1       6.815   5.861  16.269  0.00  0.00    +0.000 A 
ATOM      3  S   UNL     1       7.316   6.658  17.645  0.00  0.00    +0.000 S 
ATOM      4  O   UNL     1       7.748   5.819  15.235  0.00  0.00    +0.000 OA
ATOM      5  C   UNL     1       7.105   5.040  14.294  0.00  0.00    +0.000 A 
ATOM      6  C   UNL     1       7.622   4.728  13.056  0.00  0.00    +0.000 A 
ATOM      7  C   UNL     1       6.825   3.969  12.197  0.00  0.00    +0.000 A 
ATOM      8  C   UNL     1       5.545   3.545  12.602  0.00  0.00    +0.000 A 
ATOM      9  C   UNL     1       5.047   3.865  13.870  0.00  0.00    +0.000 A 
ATOM     10  C   UNL     1       5.854   4.617  14.702  0.00  0.00    +0.000 A 
ENDROOT
BRANCH   1  12
ATOM     11  C   UNL     1       3.834   5.926  17.385  0.00  0.00    +0.000 C 
ATOM     12  C   UNL     1       4.500   4.970  16.731  0.00  0.00    +0.000 C 
BRANCH  11  13
ATOM     13  C   UNL     1       2.651   5.628  18.240  0.00  0.00    +0.000 C 
ATOM     14  O   UNL     1       2.385   6.316  19.220  0.00  0.00    +0.000 OA
BRANCH  13  15
ATOM     15  C   UNL     1       1.831   4.414  17.828  0.00  0.00    +0.000 C 
BRANCH  15  17
ATOM     16  C   UNL     1       0.798   2.834  19.519  0.00  0.00    +0.000 C 
ATOM     17  C   UNL     1       2.057   3.191  18.724  0.00  0.00    +0.000 C 
ATOM     18  C   UNL     1       2.479   1.993  17.868  0.00  0.00    +0.000 C 
ENDBRANCH  15  17
ENDBRANCH  13  15
ENDBRANCH  11  13
ENDBRANCH   1  12
TORSDOF 4
ENDMDL
MODEL 8
REMARK VINA RESULT:      -6.7      2.116      2.670
REMARK  Name = 
REMARK  6 active torsions:
REMARK  status: ('A' for Active; 'I' for Inactive)
REMARK    1  A    between atoms: C_1  and  C_2
REMARK    2  A    between atoms: C_2  and  C_3
REMARK    3  A    between atoms: C_2  and  C_4
REMARK    4  A    between atoms: C_4  and  C_5
REMARK    5  A    between atoms: C_5  and  C_7
REMARK    6  A    between atoms: C_8  and  N_9
REMARK                            x       y       z     vdW  Elec       q    Type
REMARK                         _______ _______ _______ _____ _____    ______ ____
ROOT
ATOM      1  N   UNL     1       4.075   5.425  18.643  0.00  0.00    +0.000 N 
ATOM      2  C   UNL     1       3.100   6.431  18.735  0.00  0.00    +0.000 A 
ATOM      3  S   UNL     1       2.916   7.883  17.938  0.00  0.00    +0.000 S 
ATOM      4  O   UNL     1       2.070   6.103  19.616  0.00  0.00    +0.000 OA
ATOM      5  C   UNL     1       2.443   4.845  20.044  0.00  0.00    +0.000 A 
ATOM      6  C   UNL     1       1.743   4.097  20.966  0.00  0.00    +0.000 A 
ATOM      7  C   UNL     1       2.279   2.862  21.333  0.00  0.00    +0.000 A 
ATOM      8  C   UNL     1       3.488   2.412  20.767  0.00  0.00    +0.000 A 
ATOM      9  C   UNL     1       4.173   3.186  19.823  0.00  0.00    +0.000 A 
ATOM     10  C   UNL     1       3.623   4.405  19.476  0.00  0.00    +0.000 A 
ENDROOT
BRANCH   1  12
ATOM     11  C   UNL     1       5.290   5.303  16.553  0.00  0.00    +0.000 C 
ATOM     12  C   UNL     1       5.232   5.383  17.885  0.00  0.00    +0.000 C 
BRANCH  11  13
ATOM     13  C   UNL     1       6.583   5.194  15.820  0.00  0.00    +0.000 C 
ATOM     14  O   UNL     1       7.491   5.995  16.012  0.00  0.00    +0.000 OA
BRANCH  13  15
ATOM     15  C   UNL     1       6.676   4.053  14.818  0.00  0.00    +0.000 C 
BRANCH  15  17
ATOM     16  C   UNL     1       7.765   5.115  12.791  0.00  0.00    +0.000 C 
ATOM     17  C   UNL     1       6.486   4.499  13.363  0.00  0.00    +0.000 C 
ATOM     18  C   UNL     1       6.066   3.301  12.506  0.00  0.00    +0.000 C 
ENDBRANCH  15  17
ENDBRANCH  13  15
ENDBRANCH  11  13
ENDBRANCH   1  12
TORSDOF 4
ENDMDL
MODEL 9
REMARK VINA RESULT:      -6.6      1.932      6.205
REMARK  Name = 
REMARK  6 active torsions:
REMARK  status: ('A' for Active; 'I' for Inactive)
REMARK    1  A    between atoms: C_1  and  C_2
REMARK    2  A    between atoms: C_2  and  C_3
REMARK    3  A    between atoms: C_2  and  C_4
REMARK    4  A    between atoms: C_4  and  C_5
REMARK    5  A    between atoms: C_5  and  C_7
REMARK    6  A    between atoms: C_8  and  N_9
REMARK                            x       y       z     vdW  Elec       q    Type
REMARK                         _______ _______ _______ _____ _____    ______ ____
ROOT
ATOM      1  N   UNL     1       5.860   4.446  15.957  0.00  0.00    +0.000 N 
ATOM      2  C   UNL     1       6.850   5.354  16.364  0.00  0.00    +0.000 A 
ATOM      3  S   UNL     1       7.226   6.000  17.854  0.00  0.00    +0.000 S 
ATOM      4  O   UNL     1       7.706   5.717  15.326  0.00  0.00    +0.000 OA
ATOM      5  C   UNL     1       7.213   4.980  14.269  0.00  0.00    +0.000 A 
ATOM      6  C   UNL     1       7.719   5.019  12.988  0.00  0.00    +0.000 A 
ATOM      7  C   UNL     1       7.076   4.249  12.018  0.00  0.00    +0.000 A 
ATOM      8  C   UNL     1       5.958   3.463  12.356  0.00  0.00    +0.000 A 
ATOM      9  C   UNL     1       5.471   3.430  13.669  0.00  0.00    +0.000 A 
ATOM     10  C   UNL     1       6.123   4.202  14.611  0.00  0.00    +0.000 A 
ENDROOT
BRANCH   1  12
ATOM     11  C   UNL     1       3.533   4.063  16.506  0.00  0.00    +0.000 C 
ATOM     12  C   UNL     1       4.841   3.861  16.689  0.00  0.00    +0.000 C 
BRANCH  11  13
ATOM     13  C   UNL     1       2.504   3.443  17.386  0.00  0.00    +0.000 C 
ATOM     14  O   UNL     1       1.334   3.809  17.352  0.00  0.00    +0.000 OA
BRANCH  13  15
ATOM     15  C   UNL     1       3.009   2.361  18.329  0.00  0.00    +0.000 C 
BRANCH  15  17
ATOM     16  C   UNL     1       1.882   2.443  20.597  0.00  0.00    +0.000 C 
ATOM     17  C   UNL     1       3.123   2.824  19.786  0.00  0.00    +0.000 C 
ATOM     18  C   UNL     1       4.366   2.204  20.431  0.00  0.00    +0.000 C 
ENDBRANCH  15  17
ENDBRANCH  13  15
ENDBRANCH  11  13
ENDBRANCH   1  12
TORSDOF 4
ENDMDL
