MODEL 1
REMARK VINA RESULT:      -9.3      0.000      0.000
REMARK  Name = 
REMARK  2 active torsions:
REMARK  status: ('A' for Active; 'I' for Inactive)
REMARK    1  A    between atoms: C_8  and  C_9
REMARK    2  A    between atoms: C_12  and  C_13
REMARK                            x       y       z     vdW  Elec       q    Type
REMARK                         _______ _______ _______ _____ _____    ______ ____
ROOT
ATOM      1  O   UNL     1       1.899   3.601  17.053  0.00  0.00    +0.000 OA
ATOM      2  C   UNL     1       2.748   3.002  17.700  0.00  0.00    +0.000 C 
ATOM      3  C   UNL     1       2.432   1.926  18.710  0.00  0.00    +0.000 C 
ATOM      4  C   UNL     1       2.162   2.459  20.115  0.00  0.00    +0.000 C 
ATOM      5  C   UNL     1       1.332   3.709  20.124  0.00  0.00    +0.000 C 
ATOM      6  C   UNL     1       1.688   4.811  20.796  0.00  0.00    +0.000 C 
ATOM      7  C   UNL     1       0.964   6.121  20.675  0.00  0.00    +0.000 C 
ATOM      8  C   UNL     1       1.926   7.315  20.502  0.00  0.00    +0.000 C 
ATOM      9  C   UNL     1       2.409   7.412  19.056  0.00  0.00    +0.000 C 
ATOM     10  O   UNL     1       2.021   8.225  18.226  0.00  0.00    +0.000 OA
ATOM     11  O   UNL     1       3.355   6.453  18.802  0.00  0.00    +0.000 OA
ATOM     12  C   UNL     1       3.834   6.459  17.450  0.00  0.00    +0.000 C 
ATOM     13  C   UNL     1       4.967   5.445  17.284  0.00  0.00    +0.000 C 
ATOM     14  C   UNL     1       4.521   4.145  16.619  0.00  0.00    +0.000 C 
ATOM     15  O   UNL     1       4.088   3.198  17.607  0.00  0.00    +0.000 OA
ENDROOT
BRANCH   8  16
ATOM     16  C   UNL     1       1.242   8.582  21.007  0.00  0.00    +0.000 A 
ATOM     17  C   UNL     1       0.922   8.709  22.365  0.00  0.00    +0.000 A 
ATOM     18  C   UNL     1       0.194   9.811  22.824  0.00  0.00    +0.000 A 
ATOM     19  C   UNL     1      -0.226  10.835  21.956  0.00  0.00    +0.000 A 
ATOM     20  C   UNL     1       0.127  10.707  20.600  0.00  0.00    +0.000 A 
ATOM     21  C   UNL     1       0.843   9.598  20.135  0.00  0.00    +0.000 A 
BRANCH  19  22
ATOM     22  C   UNL     1      -1.013  11.989  22.448  0.00  0.00    +0.000 A 
ATOM     23  C   UNL     1      -2.241  11.805  23.110  0.00  0.00    +0.000 A 
ATOM     24  C   UNL     1      -3.003  12.887  23.553  0.00  0.00    +0.000 A 
ATOM     25  C   UNL     1      -2.547  14.188  23.358  0.00  0.00    +0.000 A 
ATOM     26  C   UNL     1      -1.332  14.400  22.715  0.00  0.00    +0.000 A 
ATOM     27  C   UNL     1      -0.577  13.313  22.261  0.00  0.00    +0.000 A 
ENDBRANCH  19  22
ENDBRANCH   8  16
TORSDOF 2
ENDMDL
MODEL 2
REMARK VINA RESULT:      -9.2      0.410      1.332
REMARK  Name = 
REMARK  2 active torsions:
REMARK  status: ('A' for Active; 'I' for Inactive)
REMARK    1  A    between atoms: C_8  and  C_9
REMARK    2  A    between atoms: C_12  and  C_13
REMARK                            x       y       z     vdW  Elec       q    Type
REMARK                         _______ _______ _______ _____ _____    ______ ____
ROOT
ATOM      1  O   UNL     1       2.277   3.608  17.070  0.00  0.00    +0.000 OA
ATOM      2  C   UNL     1       3.225   3.155  17.698  0.00  0.00    +0.000 C 
ATOM      3  C   UNL     1       3.103   2.069  18.739  0.00  0.00    +0.000 C 
ATOM      4  C   UNL     1       2.805   2.591  20.142  0.00  0.00    +0.000 C 
ATOM      5  C   UNL     1       1.802   3.708  20.157  0.00  0.00    +0.000 C 
ATOM      6  C   UNL     1       2.015   4.866  20.794  0.00  0.00    +0.000 C 
ATOM      7  C   UNL     1       1.104   6.054  20.674  0.00  0.00    +0.000 C 
ATOM      8  C   UNL     1       1.875   7.370  20.443  0.00  0.00    +0.000 C 
ATOM      9  C   UNL     1       2.291   7.501  18.979  0.00  0.00    +0.000 C 
ATOM     10  O   UNL     1       1.761   8.228  18.148  0.00  0.00    +0.000 OA
ATOM     11  O   UNL     1       3.358   6.683  18.710  0.00  0.00    +0.000 OA
ATOM     12  C   UNL     1       3.786   6.725  17.341  0.00  0.00    +0.000 C 
ATOM     13  C   UNL     1       5.049   5.883  17.154  0.00  0.00    +0.000 C 
ATOM     14  C   UNL     1       4.776   4.516  16.531  0.00  0.00    +0.000 C 
ATOM     15  O   UNL     1       4.519   3.540  17.552  0.00  0.00    +0.000 OA
ENDROOT
BRANCH   8  16
ATOM     16  C   UNL     1       1.031   8.536  20.948  0.00  0.00    +0.000 A 
ATOM     17  C   UNL     1       1.111   9.782  20.312  0.00  0.00    +0.000 A 
ATOM     18  C   UNL     1       0.432  10.890  20.831  0.00  0.00    +0.000 A 
ATOM     19  C   UNL     1      -0.363  10.797  21.987  0.00  0.00    +0.000 A 
ATOM     20  C   UNL     1      -0.455   9.532  22.598  0.00  0.00    +0.000 A 
ATOM     21  C   UNL     1       0.233   8.425  22.089  0.00  0.00    +0.000 A 
BRANCH  19  22
ATOM     22  C   UNL     1      -1.062  11.979  22.539  0.00  0.00    +0.000 A 
ATOM     23  C   UNL     1      -0.500  13.266  22.452  0.00  0.00    +0.000 A 
ATOM     24  C   UNL     1      -1.138  14.383  22.995  0.00  0.00    +0.000 A 
ATOM     25  C   UNL     1      -2.369  14.243  23.627  0.00  0.00    +0.000 A 
ATOM     26  C   UNL     1      -2.956  12.984  23.720  0.00  0.00    +0.000 A 
ATOM     27  C   UNL     1      -2.306  11.866  23.187  0.00  0.00    +0.000 A 
ENDBRANCH  19  22
ENDBRANCH   8  16
TORSDOF 2
ENDMDL
MODEL 3
REMARK VINA RESULT:      -9.1      3.241      9.599
REMARK  Name = 
REMARK  2 active torsions:
REMARK  status: ('A' for Active; 'I' for Inactive)
REMARK    1  A    between atoms: C_8  and  C_9
REMARK    2  A    between atoms: C_12  and  C_13
REMARK                            x       y       z     vdW  Elec       q    Type
REMARK                         _______ _______ _______ _____ _____    ______ ____
ROOT
ATOM      1  O   UNL     1      -0.194  14.653  23.218  0.00  0.00    +0.000 OA
ATOM      2  C   UNL     1      -1.397  14.718  23.002  0.00  0.00    +0.000 C 
ATOM      3  C   UNL     1      -2.444  14.068  23.874  0.00  0.00    +0.000 C 
ATOM      4  C   UNL     1      -2.754  12.623  23.492  0.00  0.00    +0.000 C 
ATOM      5  C   UNL     1      -1.531  11.830  23.138  0.00  0.00    +0.000 C 
ATOM      6  C   UNL     1      -1.432  11.113  22.011  0.00  0.00    +0.000 C 
ATOM      7  C   UNL     1      -0.158  10.458  21.558  0.00  0.00    +0.000 C 
ATOM      8  C   UNL     1       0.131  10.699  20.062  0.00  0.00    +0.000 C 
ATOM      9  C   UNL     1       0.731  12.088  19.847  0.00  0.00    +0.000 C 
ATOM     10  O   UNL     1       1.910  12.330  19.619  0.00  0.00    +0.000 OA
ATOM     11  O   UNL     1      -0.243  13.049  19.941  0.00  0.00    +0.000 OA
ATOM     12  C   UNL     1       0.251  14.387  19.783  0.00  0.00    +0.000 C 
ATOM     13  C   UNL     1      -0.910  15.383  19.780  0.00  0.00    +0.000 C 
ATOM     14  C   UNL     1      -1.083  16.112  21.111  0.00  0.00    +0.000 C 
ATOM     15  O   UNL     1      -1.974  15.384  21.969  0.00  0.00    +0.000 OA
ENDROOT
BRANCH   8  16
ATOM     16  C   UNL     1       1.005   9.565  19.536  0.00  0.00    +0.000 A 
ATOM     17  C   UNL     1       1.337   9.514  18.176  0.00  0.00    +0.000 A 
ATOM     18  C   UNL     1       2.041   8.422  17.657  0.00  0.00    +0.000 A 
ATOM     19  C   UNL     1       2.454   7.352  18.471  0.00  0.00    +0.000 A 
ATOM     20  C   UNL     1       2.137   7.432  19.839  0.00  0.00    +0.000 A 
ATOM     21  C   UNL     1       1.422   8.517  20.359  0.00  0.00    +0.000 A 
BRANCH  19  22
ATOM     22  C   UNL     1       3.182   6.191  17.908  0.00  0.00    +0.000 A 
ATOM     23  C   UNL     1       4.463   6.337  17.345  0.00  0.00    +0.000 A 
ATOM     24  C   UNL     1       5.145   5.254  16.787  0.00  0.00    +0.000 A 
ATOM     25  C   UNL     1       4.567   3.988  16.793  0.00  0.00    +0.000 A 
ATOM     26  C   UNL     1       3.305   3.812  17.353  0.00  0.00    +0.000 A 
ATOM     27  C   UNL     1       2.620   4.902  17.898  0.00  0.00    +0.000 A 
ENDBRANCH  19  22
ENDBRANCH   8  16
TORSDOF 2
ENDMDL
MODEL 4
REMARK VINA RESULT:      -8.9      3.274      9.640
REMARK  Name = 
REMARK  2 active torsions:
REMARK  status: ('A' for Active; 'I' for Inactive)
REMARK    1  A    between atoms: C_8  and  C_9
REMARK    2  A    between atoms: C_12  and  C_13
REMARK                            x       y       z     vdW  Elec       q    Type
REMARK                         _______ _______ _______ _____ _____    ______ ____
ROOT
ATOM      1  O   UNL     1       0.258  15.225  22.891  0.00  0.00    +0.000 OA
ATOM      2  C   UNL     1      -0.944  15.351  22.701  0.00  0.00    +0.000 C 
ATOM      3  C   UNL     1      -2.004  14.826  23.639  0.00  0.00    +0.000 C 
ATOM      4  C   UNL     1      -2.412  13.381  23.364  0.00  0.00    +0.000 C 
ATOM      5  C   UNL     1      -1.249  12.492  23.035  0.00  0.00    +0.000 C 
ATOM      6  C   UNL     1      -1.226  11.697  21.957  0.00  0.00    +0.000 C 
ATOM      7  C   UNL     1      -0.007  10.936  21.520  0.00  0.00    +0.000 C 
ATOM      8  C   UNL     1       0.254  11.059  20.004  0.00  0.00    +0.000 C 
ATOM      9  C   UNL     1       0.930  12.389  19.680  0.00  0.00    +0.000 C 
ATOM     10  O   UNL     1       2.115  12.543  19.408  0.00  0.00    +0.000 OA
ATOM     11  O   UNL     1       0.020  13.414  19.733  0.00  0.00    +0.000 OA
ATOM     12  C   UNL     1       0.590  14.705  19.472  0.00  0.00    +0.000 C 
ATOM     13  C   UNL     1      -0.509  15.769  19.430  0.00  0.00    +0.000 C 
ATOM     14  C   UNL     1      -0.600  16.594  20.712  0.00  0.00    +0.000 C 
ATOM     15  O   UNL     1      -1.509  15.981  21.639  0.00  0.00    +0.000 OA
ENDROOT
BRANCH   8  16
ATOM     16  C   UNL     1       1.043   9.840  19.535  0.00  0.00    +0.000 A 
ATOM     17  C   UNL     1       1.474   9.757  18.205  0.00  0.00    +0.000 A 
ATOM     18  C   UNL     1       2.097   8.599  17.730  0.00  0.00    +0.000 A 
ATOM     19  C   UNL     1       2.330   7.489  18.562  0.00  0.00    +0.000 A 
ATOM     20  C   UNL     1       1.916   7.598  19.902  0.00  0.00    +0.000 A 
ATOM     21  C   UNL     1       1.280   8.751  20.377  0.00  0.00    +0.000 A 
BRANCH  19  22
ATOM     22  C   UNL     1       2.974   6.259  18.045  0.00  0.00    +0.000 A 
ATOM     23  C   UNL     1       2.282   5.034  18.010  0.00  0.00    +0.000 A 
ATOM     24  C   UNL     1       2.889   3.864  17.552  0.00  0.00    +0.000 A 
ATOM     25  C   UNL     1       4.204   3.892  17.098  0.00  0.00    +0.000 A 
ATOM     26  C   UNL     1       4.910   5.091  17.111  0.00  0.00    +0.000 A 
ATOM     27  C   UNL     1       4.302   6.259  17.585  0.00  0.00    +0.000 A 
ENDBRANCH  19  22
ENDBRANCH   8  16
TORSDOF 2
ENDMDL
MODEL 5
REMARK VINA RESULT:      -8.9      3.212      9.497
REMARK  Name = 
REMARK  2 active torsions:
REMARK  status: ('A' for Active; 'I' for Inactive)
REMARK    1  A    between atoms: C_8  and  C_9
REMARK    2  A    between atoms: C_12  and  C_13
REMARK                            x       y       z     vdW  Elec       q    Type
REMARK                         _______ _______ _______ _____ _____    ______ ____
ROOT
ATOM      1  O   UNL     1       0.331  14.768  22.916  0.00  0.00    +0.000 OA
ATOM      2  C   UNL     1      -0.878  14.898  22.780  0.00  0.00    +0.000 C 
ATOM      3  C   UNL     1      -1.898  14.340  23.742  0.00  0.00    +0.000 C 
ATOM      4  C   UNL     1      -2.318  12.905  23.432  0.00  0.00    +0.000 C 
ATOM      5  C   UNL     1      -1.170  12.029  23.025  0.00  0.00    +0.000 C 
ATOM      6  C   UNL     1      -1.191  11.273  21.919  0.00  0.00    +0.000 C 
ATOM      7  C   UNL     1       0.008  10.529  21.405  0.00  0.00    +0.000 C 
ATOM      8  C   UNL     1       0.207  10.706  19.885  0.00  0.00    +0.000 C 
ATOM      9  C   UNL     1       0.870  12.049  19.582  0.00  0.00    +0.000 C 
ATOM     10  O   UNL     1       2.042  12.213  19.267  0.00  0.00    +0.000 OA
ATOM     11  O   UNL     1      -0.037  13.070  19.708  0.00  0.00    +0.000 OA
ATOM     12  C   UNL     1       0.521  14.370  19.470  0.00  0.00    +0.000 C 
ATOM     13  C   UNL     1      -0.577  15.434  19.511  0.00  0.00    +0.000 C 
ATOM     14  C   UNL     1      -0.615  16.212  20.824  0.00  0.00    +0.000 C 
ATOM     15  O   UNL     1      -1.486  15.566  21.766  0.00  0.00    +0.000 OA
ENDROOT
BRANCH   8  16
ATOM     16  C   UNL     1       0.975   9.506  19.341  0.00  0.00    +0.000 A 
ATOM     17  C   UNL     1       1.371   8.480  20.208  0.00  0.00    +0.000 A 
ATOM     18  C   UNL     1       2.174   7.430  19.748  0.00  0.00    +0.000 A 
ATOM     19  C   UNL     1       2.596   7.353  18.409  0.00  0.00    +0.000 A 
ATOM     20  C   UNL     1       2.167   8.377  17.544  0.00  0.00    +0.000 A 
ATOM     21  C   UNL     1       1.376   9.435  18.005  0.00  0.00    +0.000 A 
BRANCH  19  22
ATOM     22  C   UNL     1       3.461   6.248  17.935  0.00  0.00    +0.000 A 
ATOM     23  C   UNL     1       3.314   4.941  18.436  0.00  0.00    +0.000 A 
ATOM     24  C   UNL     1       4.143   3.899  18.017  0.00  0.00    +0.000 A 
ATOM     25  C   UNL     1       5.135   4.135  17.069  0.00  0.00    +0.000 A 
ATOM     26  C   UNL     1       5.298   5.416  16.549  0.00  0.00    +0.000 A 
ATOM     27  C   UNL     1       4.473   6.460  16.982  0.00  0.00    +0.000 A 
ENDBRANCH  19  22
ENDBRANCH   8  16
TORSDOF 2
ENDMDL
MODEL 6
REMARK VINA RESULT:      -8.4      3.466      9.783
REMARK  Name = 
REMARK  2 active torsions:
REMARK  status: ('A' for Active; 'I' for Inactive)
REMARK    1  A    between atoms: C_8  and  C_9
REMARK    2  A    between atoms: C_12  and  C_13
REMARK                            x       y       z     vdW  Elec       q    Type
REMARK                         _______ _______ _______ _____ _____    ______ ____
ROOT
ATOM      1  O   UNL     1      -0.753  14.911  24.435  0.00  0.00    +0.000 OA
ATOM      2  C   UNL     1      -1.835  15.203  23.943  0.00  0.00    +0.000 C 
ATOM      3  C   UNL     1      -3.155  14.654  24.429  0.00  0.00    +0.000 C 
ATOM      4  C   UNL     1      -3.549  13.331  23.778  0.00  0.00    +0.000 C 
ATOM      5  C   UNL     1      -2.398  12.382  23.623  0.00  0.00    +0.000 C 
ATOM      6  C   UNL     1      -2.104  11.780  22.463  0.00  0.00    +0.000 C 
ATOM      7  C   UNL     1      -0.859  10.968  22.247  0.00  0.00    +0.000 C 
ATOM      8  C   UNL     1      -0.154  11.311  20.918  0.00  0.00    +0.000 C 
ATOM      9  C   UNL     1       0.667  12.591  21.059  0.00  0.00    +0.000 C 
ATOM     10  O   UNL     1       1.886  12.651  21.164  0.00  0.00    +0.000 OA
ATOM     11  O   UNL     1      -0.154  13.689  21.050  0.00  0.00    +0.000 OA
ATOM     12  C   UNL     1       0.544  14.932  21.212  0.00  0.00    +0.000 C 
ATOM     13  C   UNL     1      -0.426  16.107  21.069  0.00  0.00    +0.000 C 
ATOM     14  C   UNL     1      -0.843  16.712  22.408  0.00  0.00    +0.000 C 
ATOM     15  O   UNL     1      -2.021  16.061  22.908  0.00  0.00    +0.000 OA
ENDROOT
BRANCH   8  16
ATOM     16  C   UNL     1       0.663  10.105  20.464  0.00  0.00    +0.000 A 
ATOM     17  C   UNL     1       1.130  10.035  19.145  0.00  0.00    +0.000 A 
ATOM     18  C   UNL     1       1.781   8.888  18.681  0.00  0.00    +0.000 A 
ATOM     19  C   UNL     1       2.007   7.776  19.513  0.00  0.00    +0.000 A 
ATOM     20  C   UNL     1       1.557   7.873  20.842  0.00  0.00    +0.000 A 
ATOM     21  C   UNL     1       0.893   9.014  21.306  0.00  0.00    +0.000 A 
BRANCH  19  22
ATOM     22  C   UNL     1       2.680   6.558  19.007  0.00  0.00    +0.000 A 
ATOM     23  C   UNL     1       3.412   6.575  17.805  0.00  0.00    +0.000 A 
ATOM     24  C   UNL     1       4.026   5.425  17.305  0.00  0.00    +0.000 A 
ATOM     25  C   UNL     1       3.938   4.227  18.007  0.00  0.00    +0.000 A 
ATOM     26  C   UNL     1       3.230   4.182  19.204  0.00  0.00    +0.000 A 
ATOM     27  C   UNL     1       2.604   5.334  19.694  0.00  0.00    +0.000 A 
ENDBRANCH  19  22
ENDBRANCH   8  16
TORSDOF 2
ENDMDL
MODEL 7
REMARK VINA RESULT:      -8.3      3.092      9.307
REMARK  Name = 
REMARK  2 active torsions:
REMARK  status: ('A' for Active; 'I' for Inactive)
REMARK    1  A    between atoms: C_8  and  C_9
REMARK    2  A    between atoms: C_12  and  C_13
REMARK                            x       y       z     vdW  Elec       q    Type
REMARK                         _______ _______ _______ _____ _____    ______ ____
ROOT
ATOM      1  O   UNL     1       0.268  13.574  22.288  0.00  0.00    +0.000 OA
ATOM      2  C   UNL     1      -0.938  13.365  22.314  0.00  0.00    +0.000 C 
ATOM      3  C   UNL     1      -1.640  12.629  23.429  0.00  0.00    +0.000 C 
ATOM      4  C   UNL     1      -1.682  11.115  23.238  0.00  0.00    +0.000 C 
ATOM      5  C   UNL     1      -0.395  10.550  22.713  0.00  0.00    +0.000 C 
ATOM      6  C   UNL     1      -0.341   9.734  21.652  0.00  0.00    +0.000 C 
ATOM      7  C   UNL     1       0.945   9.301  21.009  0.00  0.00    +0.000 C 
ATOM      8  C   UNL     1       0.902   9.408  19.470  0.00  0.00    +0.000 C 
ATOM      9  C   UNL     1       1.127  10.852  19.024  0.00  0.00    +0.000 C 
ATOM     10  O   UNL     1       2.162  11.300  18.544  0.00  0.00    +0.000 OA
ATOM     11  O   UNL     1      -0.004  11.599  19.232  0.00  0.00    +0.000 OA
ATOM     12  C   UNL     1       0.141  12.979  18.868  0.00  0.00    +0.000 C 
ATOM     13  C   UNL     1      -1.195  13.710  19.016  0.00  0.00    +0.000 C 
ATOM     14  C   UNL     1      -1.287  14.547  20.289  0.00  0.00    +0.000 C 
ATOM     15  O   UNL     1      -1.824  13.765  21.367  0.00  0.00    +0.000 OA
ENDROOT
BRANCH   8  16
ATOM     16  C   UNL     1       1.900   8.420  18.874  0.00  0.00    +0.000 A 
ATOM     17  C   UNL     1       2.325   7.318  19.628  0.00  0.00    +0.000 A 
ATOM     18  C   UNL     1       3.323   6.467  19.142  0.00  0.00    +0.000 A 
ATOM     19  C   UNL     1       3.922   6.669  17.886  0.00  0.00    +0.000 A 
ATOM     20  C   UNL     1       3.464   7.764  17.129  0.00  0.00    +0.000 A 
ATOM     21  C   UNL     1       2.475   8.625  17.619  0.00  0.00    +0.000 A 
BRANCH  19  22
ATOM     22  C   UNL     1       4.992   5.774  17.388  0.00  0.00    +0.000 A 
ATOM     23  C   UNL     1       6.275   5.781  17.965  0.00  0.00    +0.000 A 
ATOM     24  C   UNL     1       7.298   4.962  17.485  0.00  0.00    +0.000 A 
ATOM     25  C   UNL     1       7.058   4.098  16.421  0.00  0.00    +0.000 A 
ATOM     26  C   UNL     1       5.796   4.062  15.836  0.00  0.00    +0.000 A 
ATOM     27  C   UNL     1       4.777   4.895  16.312  0.00  0.00    +0.000 A 
ENDBRANCH  19  22
ENDBRANCH   8  16
TORSDOF 2
ENDMDL
MODEL 8
REMARK VINA RESULT:      -8.3      2.253      3.858
REMARK  Name = 
REMARK  2 active torsions:
REMARK  status: ('A' for Active; 'I' for Inactive)
REMARK    1  A    between atoms: C_8  and  C_9
REMARK    2  A    between atoms: C_12  and  C_13
REMARK                            x       y       z     vdW  Elec       q    Type
REMARK                         _______ _______ _______ _____ _____    ______ ____
ROOT
ATOM      1  O   UNL     1       5.682   5.009  19.458  0.00  0.00    +0.000 OA
ATOM      2  C   UNL     1       5.362   4.275  18.533  0.00  0.00    +0.000 C 
ATOM      3  C   UNL     1       6.008   4.310  17.169  0.00  0.00    +0.000 C 
ATOM      4  C   UNL     1       5.367   5.308  16.208  0.00  0.00    +0.000 C 
ATOM      5  C   UNL     1       5.011   6.612  16.861  0.00  0.00    +0.000 C 
ATOM      6  C   UNL     1       3.798   7.169  16.755  0.00  0.00    +0.000 C 
ATOM      7  C   UNL     1       3.374   8.377  17.541  0.00  0.00    +0.000 C 
ATOM      8  C   UNL     1       1.973   8.213  18.166  0.00  0.00    +0.000 C 
ATOM      9  C   UNL     1       2.047   7.372  19.439  0.00  0.00    +0.000 C 
ATOM     10  O   UNL     1       1.980   7.801  20.585  0.00  0.00    +0.000 OA
ATOM     11  O   UNL     1       2.200   6.046  19.128  0.00  0.00    +0.000 OA
ATOM     12  C   UNL     1       2.311   5.193  20.277  0.00  0.00    +0.000 C 
ATOM     13  C   UNL     1       2.355   3.726  19.845  0.00  0.00    +0.000 C 
ATOM     14  C   UNL     1       3.763   3.135  19.860  0.00  0.00    +0.000 C 
ATOM     15  O   UNL     1       4.399   3.319  18.587  0.00  0.00    +0.000 OA
ENDROOT
BRANCH   8  16
ATOM     16  C   UNL     1       1.359   9.594  18.378  0.00  0.00    +0.000 A 
ATOM     17  C   UNL     1       2.166  10.736  18.304  0.00  0.00    +0.000 A 
ATOM     18  C   UNL     1       1.643  11.997  18.607  0.00  0.00    +0.000 A 
ATOM     19  C   UNL     1       0.298  12.172  18.978  0.00  0.00    +0.000 A 
ATOM     20  C   UNL     1      -0.507  11.018  19.021  0.00  0.00    +0.000 A 
ATOM     21  C   UNL     1       0.017   9.753  18.731  0.00  0.00    +0.000 A 
BRANCH  19  22
ATOM     22  C   UNL     1      -0.242  13.509  19.316  0.00  0.00    +0.000 A 
ATOM     23  C   UNL     1       0.157  14.657  18.607  0.00  0.00    +0.000 A 
ATOM     24  C   UNL     1      -0.324  15.925  18.937  0.00  0.00    +0.000 A 
ATOM     25  C   UNL     1      -1.235  16.076  19.978  0.00  0.00    +0.000 A 
ATOM     26  C   UNL     1      -1.656  14.957  20.691  0.00  0.00    +0.000 A 
ATOM     27  C   UNL     1      -1.160  13.690  20.366  0.00  0.00    +0.000 A 
ENDBRANCH  19  22
ENDBRANCH   8  16
TORSDOF 2
ENDMDL
MODEL 9
REMARK VINA RESULT:      -8.2      3.390      9.835
REMARK  Name = 
REMARK  2 active torsions:
REMARK  status: ('A' for Active; 'I' for Inactive)
REMARK    1  A    between atoms: C_8  and  C_9
REMARK    2  A    between atoms: C_12  and  C_13
REMARK                            x       y       z     vdW  Elec       q    Type
REMARK                         _______ _______ _______ _____ _____    ______ ____
ROOT
ATOM      1  O   UNL     1      -1.431  15.686  19.598  0.00  0.00    +0.000 OA
ATOM      2  C   UNL     1      -1.261  15.947  20.782  0.00  0.00    +0.000 C 
ATOM      3  C   UNL     1      -0.051  16.671  21.319  0.00  0.00    +0.000 C 
ATOM      4  C   UNL     1       1.118  15.751  21.660  0.00  0.00    +0.000 C 
ATOM      5  C   UNL     1       1.330  14.665  20.647  0.00  0.00    +0.000 C 
ATOM      6  C   UNL     1       1.443  13.373  20.981  0.00  0.00    +0.000 C 
ATOM      7  C   UNL     1       1.480  12.260  19.973  0.00  0.00    +0.000 C 
ATOM      8  C   UNL     1       0.557  11.085  20.356  0.00  0.00    +0.000 C 
ATOM      9  C   UNL     1      -0.894  11.402  19.999  0.00  0.00    +0.000 C 
ATOM     10  O   UNL     1      -1.513  10.946  19.045  0.00  0.00    +0.000 OA
ATOM     11  O   UNL     1      -1.429  12.280  20.907  0.00  0.00    +0.000 OA
ATOM     12  C   UNL     1      -2.784  12.653  20.619  0.00  0.00    +0.000 C 
ATOM     13  C   UNL     1      -3.341  13.533  21.740  0.00  0.00    +0.000 C 
ATOM     14  C   UNL     1      -3.357  15.019  21.388  0.00  0.00    +0.000 C 
ATOM     15  O   UNL     1      -2.126  15.642  21.784  0.00  0.00    +0.000 OA
ENDROOT
BRANCH   8  16
ATOM     16  C   UNL     1       1.083   9.807  19.707  0.00  0.00    +0.000 A 
ATOM     17  C   UNL     1       1.304   8.668  20.490  0.00  0.00    +0.000 A 
ATOM     18  C   UNL     1       1.892   7.526  19.934  0.00  0.00    +0.000 A 
ATOM     19  C   UNL     1       2.265   7.471  18.579  0.00  0.00    +0.000 A 
ATOM     20  C   UNL     1       2.011   8.614  17.799  0.00  0.00    +0.000 A 
ATOM     21  C   UNL     1       1.435   9.762  18.356  0.00  0.00    +0.000 A 
BRANCH  19  22
ATOM     22  C   UNL     1       2.905   6.265  18.004  0.00  0.00    +0.000 A 
ATOM     23  C   UNL     1       2.247   5.021  18.002  0.00  0.00    +0.000 A 
ATOM     24  C   UNL     1       2.852   3.873  17.488  0.00  0.00    +0.000 A 
ATOM     25  C   UNL     1       4.131   3.944  16.945  0.00  0.00    +0.000 A 
ATOM     26  C   UNL     1       4.803   5.163  16.923  0.00  0.00    +0.000 A 
ATOM     27  C   UNL     1       4.197   6.308  17.452  0.00  0.00    +0.000 A 
ENDBRANCH  19  22
ENDBRANCH   8  16
TORSDOF 2
ENDMDL
