MODEL 1
REMARK VINA RESULT:      -8.8      0.000      0.000
REMARK  Name = 
REMARK  6 active torsions:
REMARK  status: ('A' for Active; 'I' for Inactive)
REMARK    1  A    between atoms: C_1  and  C_2
REMARK    2  A    between atoms: C_4  and  N_5
REMARK    3  A    between atoms: C_6  and  C_8
REMARK    4  A    between atoms: C_8  and  N_9
REMARK    5  A    between atoms: C_12  and  C_13
REMARK    6  A    between atoms: N_22  and  C_23
REMARK                            x       y       z     vdW  Elec       q    Type
REMARK                         _______ _______ _______ _____ _____    ______ ____
ROOT
ATOM      1  N   UNL     1       4.954   5.536  17.380  0.00  0.00    +0.000 N 
ATOM      2  C   UNL     1       6.230   5.306  18.044  0.00  0.00    +0.000 C 
ATOM      3  O   UNL     1       6.372   5.584  19.228  0.00  0.00    +0.000 OA
ATOM      4  H   UNL     1       4.858   5.241  16.412  0.00  0.00    +0.000 HD
ENDROOT
BRANCH   1   8
ATOM      5  C   UNL     1       1.557   8.854  18.913  0.00  0.00    +0.000 C 
ATOM      6  C   UNL     1       2.361   7.624  18.724  0.00  0.00    +0.000 A 
ATOM      7  C   UNL     1       3.562   7.492  17.997  0.00  0.00    +0.000 A 
ATOM      8  C   UNL     1       3.870   6.148  18.011  0.00  0.00    +0.000 A 
ATOM      9  N   UNL     1       2.814   5.552  18.687  0.00  0.00    +0.000 N 
ATOM     10  N   UNL     1       1.957   6.450  19.215  0.00  0.00    +0.000 NA
BRANCH   9  11
ATOM     11  C   UNL     1       2.427   4.139  18.648  0.00  0.00    +0.000 C 
ATOM     12  C   UNL     1       3.557   3.117  18.909  0.00  0.00    +0.000 C 
ATOM     13  C   UNL     1       3.871   2.839  20.384  0.00  0.00    +0.000 C 
ATOM     14  C   UNL     1       2.615   2.608  21.217  0.00  0.00    +0.000 C 
ATOM     15  C   UNL     1       1.606   3.732  21.040  0.00  0.00    +0.000 C 
ATOM     16  C   UNL     1       1.220   3.906  19.571  0.00  0.00    +0.000 C 
ENDBRANCH   9  11
ENDBRANCH   1   8
BRANCH   2  17
ATOM     17  C   UNL     1       7.300   4.618  17.265  0.00  0.00    +0.000 C 
BRANCH  17  18
ATOM     18  N   UNL     1       7.013   4.690  15.863  0.00  0.00    +0.000 N 
ATOM     19  N   UNL     1       7.594   5.587  15.065  0.00  0.00    +0.000 NA
ATOM     20  N   UNL     1       7.218   5.246  13.841  0.00  0.00    +0.000 NA
ATOM     21  C   UNL     1       6.421   4.132  13.964  0.00  0.00    +0.000 A 
ATOM     22  N   UNL     1       6.258   3.755  15.251  0.00  0.00    +0.000 NA
BRANCH  21  23
ATOM     23  C   UNL     1       5.825   3.455  12.822  0.00  0.00    +0.000 A 
ATOM     24  C   UNL     1       4.837   4.085  12.053  0.00  0.00    +0.000 A 
ATOM     25  C   UNL     1       4.261   3.417  10.969  0.00  0.00    +0.000 A 
ATOM     26 CL   UNL     1       3.047   4.199  10.037  0.00  0.00    +0.000 Cl
ATOM     27  C   UNL     1       4.656   2.123  10.640  0.00  0.00    +0.000 A 
ATOM     28  C   UNL     1       5.642   1.500  11.398  0.00  0.00    +0.000 A 
ATOM     29 CL   UNL     1       6.142  -0.098  11.013  0.00  0.00    +0.000 Cl
ATOM     30  C   UNL     1       6.229   2.159  12.479  0.00  0.00    +0.000 A 
ENDBRANCH  21  23
ENDBRANCH  17  18
ENDBRANCH   2  17
TORSDOF 5
ENDMDL
MODEL 2
REMARK VINA RESULT:      -8.5      0.863      2.143
REMARK  Name = 
REMARK  6 active torsions:
REMARK  status: ('A' for Active; 'I' for Inactive)
REMARK    1  A    between atoms: C_1  and  C_2
REMARK    2  A    between atoms: C_4  and  N_5
REMARK    3  A    between atoms: C_6  and  C_8
REMARK    4  A    between atoms: C_8  and  N_9
REMARK    5  A    between atoms: C_12  and  C_13
REMARK    6  A    between atoms: N_22  and  C_23
REMARK                            x       y       z     vdW  Elec       q    Type
REMARK                         _______ _______ _______ _____ _____    ______ ____
ROOT
ATOM      1  N   UNL     1       5.083   5.627  17.438  0.00  0.00    +0.000 N 
ATOM      2  C   UNL     1       6.473   6.063  17.418  0.00  0.00    +0.000 C 
ATOM      3  O   UNL     1       6.808   7.096  17.982  0.00  0.00    +0.000 OA
ATOM      4  H   UNL     1       4.854   4.735  17.006  0.00  0.00    +0.000 HD
ENDROOT
BRANCH   1   8
ATOM      5  C   UNL     1       1.472   8.977  18.233  0.00  0.00    +0.000 C 
ATOM      6  C   UNL     1       2.463   7.887  18.393  0.00  0.00    +0.000 A 
ATOM      7  C   UNL     1       3.470   7.508  17.482  0.00  0.00    +0.000 A 
ATOM      8  C   UNL     1       4.060   6.381  18.014  0.00  0.00    +0.000 A 
ATOM      9  N   UNL     1       3.338   6.119  19.171  0.00  0.00    +0.000 N 
ATOM     10  N   UNL     1       2.445   7.087  19.461  0.00  0.00    +0.000 NA
BRANCH   9  11
ATOM     11  C   UNL     1       3.272   4.850  19.900  0.00  0.00    +0.000 C 
ATOM     12  C   UNL     1       2.162   4.737  20.970  0.00  0.00    +0.000 C 
ATOM     13  C   UNL     1       0.776   4.340  20.448  0.00  0.00    +0.000 C 
ATOM     14  C   UNL     1       0.829   3.166  19.477  0.00  0.00    +0.000 C 
ATOM     15  C   UNL     1       1.826   3.407  18.353  0.00  0.00    +0.000 C 
ATOM     16  C   UNL     1       3.226   3.680  18.903  0.00  0.00    +0.000 C 
ENDBRANCH   9  11
ENDBRANCH   1   8
BRANCH   2  17
ATOM     17  C   UNL     1       7.474   5.149  16.792  0.00  0.00    +0.000 C 
BRANCH  17  18
ATOM     18  N   UNL     1       7.206   5.008  15.392  0.00  0.00    +0.000 N 
ATOM     19  N   UNL     1       7.920   5.649  14.465  0.00  0.00    +0.000 NA
ATOM     20  N   UNL     1       7.501   5.152  13.311  0.00  0.00    +0.000 NA
ATOM     21  C   UNL     1       6.542   4.211  13.606  0.00  0.00    +0.000 A 
ATOM     22  N   UNL     1       6.319   4.101  14.933  0.00  0.00    +0.000 NA
BRANCH  21  23
ATOM     23  C   UNL     1       5.854   3.435  12.585  0.00  0.00    +0.000 A 
ATOM     24  C   UNL     1       6.238   2.114  12.311  0.00  0.00    +0.000 A 
ATOM     25  C   UNL     1       5.580   1.386  11.316  0.00  0.00    +0.000 A 
ATOM     26 CL   UNL     1       6.062  -0.231  10.988  0.00  0.00    +0.000 Cl
ATOM     27  C   UNL     1       4.542   1.958  10.585  0.00  0.00    +0.000 A 
ATOM     28  C   UNL     1       4.157   3.266  10.860  0.00  0.00    +0.000 A 
ATOM     29 CL   UNL     1       2.882   3.994   9.967  0.00  0.00    +0.000 Cl
ATOM     30  C   UNL     1       4.801   4.001  11.856  0.00  0.00    +0.000 A 
ENDBRANCH  21  23
ENDBRANCH  17  18
ENDBRANCH   2  17
TORSDOF 5
ENDMDL
MODEL 3
REMARK VINA RESULT:      -8.5      4.623      8.880
REMARK  Name = 
REMARK  6 active torsions:
REMARK  status: ('A' for Active; 'I' for Inactive)
REMARK    1  A    between atoms: C_1  and  C_2
REMARK    2  A    between atoms: C_4  and  N_5
REMARK    3  A    between atoms: C_6  and  C_8
REMARK    4  A    between atoms: C_8  and  N_9
REMARK    5  A    between atoms: C_12  and  C_13
REMARK    6  A    between atoms: N_22  and  C_23
REMARK                            x       y       z     vdW  Elec       q    Type
REMARK                         _______ _______ _______ _____ _____    ______ ____
ROOT
ATOM      1  N   UNL     1       2.635   6.975  19.236  0.00  0.00    +0.000 N 
ATOM      2  C   UNL     1       1.772   7.190  20.389  0.00  0.00    +0.000 C 
ATOM      3  O   UNL     1       1.363   6.240  21.044  0.00  0.00    +0.000 OA
ATOM      4  H   UNL     1       2.999   7.791  18.751  0.00  0.00    +0.000 HD
ENDROOT
BRANCH   1   8
ATOM      5  C   UNL     1       2.433   2.246  17.658  0.00  0.00    +0.000 C 
ATOM      6  C   UNL     1       2.902   3.585  18.085  0.00  0.00    +0.000 A 
ATOM      7  C   UNL     1       2.127   4.622  18.642  0.00  0.00    +0.000 A 
ATOM      8  C   UNL     1       2.972   5.704  18.767  0.00  0.00    +0.000 A 
ATOM      9  N   UNL     1       4.176   5.274  18.226  0.00  0.00    +0.000 N 
ATOM     10  N   UNL     1       4.170   3.961  17.913  0.00  0.00    +0.000 NA
BRANCH   9  11
ATOM     11  C   UNL     1       5.277   6.113  17.745  0.00  0.00    +0.000 C 
ATOM     12  C   UNL     1       6.702   5.554  17.957  0.00  0.00    +0.000 C 
ATOM     13  C   UNL     1       7.189   4.562  16.893  0.00  0.00    +0.000 C 
ATOM     14  C   UNL     1       6.912   5.042  15.474  0.00  0.00    +0.000 C 
ATOM     15  C   UNL     1       5.452   5.427  15.283  0.00  0.00    +0.000 C 
ATOM     16  C   UNL     1       5.029   6.506  16.279  0.00  0.00    +0.000 C 
ENDBRANCH   9  11
ENDBRANCH   1   8
BRANCH   2  17
ATOM     17  C   UNL     1       1.510   8.600  20.803  0.00  0.00    +0.000 C 
BRANCH  17  18
ATOM     18  N   UNL     1       0.878   9.317  19.736  0.00  0.00    +0.000 N 
ATOM     19  N   UNL     1       1.536   9.670  18.631  0.00  0.00    +0.000 NA
ATOM     20  N   UNL     1       0.604  10.154  17.822  0.00  0.00    +0.000 NA
ATOM     21  C   UNL     1      -0.593  10.058  18.490  0.00  0.00    +0.000 A 
ATOM     22  N   UNL     1      -0.453   9.537  19.728  0.00  0.00    +0.000 NA
BRANCH  21  23
ATOM     23  C   UNL     1      -1.859  10.484  17.910  0.00  0.00    +0.000 A 
ATOM     24  C   UNL     1      -2.785  11.213  18.671  0.00  0.00    +0.000 A 
ATOM     25  C   UNL     1      -4.003  11.600  18.107  0.00  0.00    +0.000 A 
ATOM     26 CL   UNL     1      -5.131  12.490  19.051  0.00  0.00    +0.000 Cl
ATOM     27  C   UNL     1      -4.316  11.268  16.792  0.00  0.00    +0.000 A 
ATOM     28  C   UNL     1      -3.395  10.551  16.034  0.00  0.00    +0.000 A 
ATOM     29 CL   UNL     1      -3.761  10.126  14.410  0.00  0.00    +0.000 Cl
ATOM     30  C   UNL     1      -2.172  10.164  16.584  0.00  0.00    +0.000 A 
ENDBRANCH  21  23
ENDBRANCH  17  18
ENDBRANCH   2  17
TORSDOF 5
ENDMDL
MODEL 4
REMARK VINA RESULT:      -8.1      3.797      8.159
REMARK  Name = 
REMARK  6 active torsions:
REMARK  status: ('A' for Active; 'I' for Inactive)
REMARK    1  A    between atoms: C_1  and  C_2
REMARK    2  A    between atoms: C_4  and  N_5
REMARK    3  A    between atoms: C_6  and  C_8
REMARK    4  A    between atoms: C_8  and  N_9
REMARK    5  A    between atoms: C_12  and  C_13
REMARK    6  A    between atoms: N_22  and  C_23
REMARK                            x       y       z     vdW  Elec       q    Type
REMARK                         _______ _______ _______ _____ _____    ______ ____
ROOT
ATOM      1  N   UNL     1       4.031   3.839  16.803  0.00  0.00    +0.000 N 
ATOM      2  C   UNL     1       4.101   3.056  18.029  0.00  0.00    +0.000 C 
ATOM      3  O   UNL     1       5.177   2.851  18.575  0.00  0.00    +0.000 OA
ATOM      4  H   UNL     1       3.114   4.035  16.411  0.00  0.00    +0.000 HD
ENDROOT
BRANCH   1   8
ATOM      5  C   UNL     1       7.468   4.910  13.348  0.00  0.00    +0.000 C 
ATOM      6  C   UNL     1       6.720   4.785  14.621  0.00  0.00    +0.000 A 
ATOM      7  C   UNL     1       5.548   4.037  14.853  0.00  0.00    +0.000 A 
ATOM      8  C   UNL     1       5.165   4.321  16.146  0.00  0.00    +0.000 A 
ATOM      9  N   UNL     1       6.086   5.261  16.588  0.00  0.00    +0.000 N 
ATOM     10  N   UNL     1       7.090   5.462  15.709  0.00  0.00    +0.000 NA
BRANCH   9  11
ATOM     11  C   UNL     1       5.932   6.185  17.714  0.00  0.00    +0.000 C 
ATOM     12  C   UNL     1       6.627   5.774  19.032  0.00  0.00    +0.000 C 
ATOM     13  C   UNL     1       8.115   6.130  19.135  0.00  0.00    +0.000 C 
ATOM     14  C   UNL     1       8.408   7.559  18.694  0.00  0.00    +0.000 C 
ATOM     15  C   UNL     1       7.835   7.853  17.316  0.00  0.00    +0.000 C 
ATOM     16  C   UNL     1       6.327   7.606  17.278  0.00  0.00    +0.000 C 
ENDBRANCH   9  11
ENDBRANCH   1   8
BRANCH   2  17
ATOM     17  C   UNL     1       2.812   2.623  18.645  0.00  0.00    +0.000 C 
BRANCH  17  18
ATOM     18  N   UNL     1       2.292   3.663  19.483  0.00  0.00    +0.000 N 
ATOM     19  N   UNL     1       2.086   3.485  20.789  0.00  0.00    +0.000 NA
ATOM     20  N   UNL     1       1.769   4.686  21.249  0.00  0.00    +0.000 NA
ATOM     21  C   UNL     1       1.810   5.547  20.178  0.00  0.00    +0.000 A 
ATOM     22  N   UNL     1       2.131   4.921  19.025  0.00  0.00    +0.000 NA
BRANCH  21  23
ATOM     23  C   UNL     1       1.530   6.971  20.296  0.00  0.00    +0.000 A 
ATOM     24  C   UNL     1       0.935   7.489  21.455  0.00  0.00    +0.000 A 
ATOM     25  C   UNL     1       0.656   8.855  21.548  0.00  0.00    +0.000 A 
ATOM     26 CL   UNL     1      -0.077   9.477  22.973  0.00  0.00    +0.000 Cl
ATOM     27  C   UNL     1       0.960   9.716  20.497  0.00  0.00    +0.000 A 
ATOM     28  C   UNL     1       1.557   9.204  19.349  0.00  0.00    +0.000 A 
ATOM     29 CL   UNL     1       1.937  10.247  18.038  0.00  0.00    +0.000 Cl
ATOM     30  C   UNL     1       1.847   7.843  19.247  0.00  0.00    +0.000 A 
ENDBRANCH  21  23
ENDBRANCH  17  18
ENDBRANCH   2  17
TORSDOF 5
ENDMDL
MODEL 5
REMARK VINA RESULT:      -8.0      4.715      9.044
REMARK  Name = 
REMARK  6 active torsions:
REMARK  status: ('A' for Active; 'I' for Inactive)
REMARK    1  A    between atoms: C_1  and  C_2
REMARK    2  A    between atoms: C_4  and  N_5
REMARK    3  A    between atoms: C_6  and  C_8
REMARK    4  A    between atoms: C_8  and  N_9
REMARK    5  A    between atoms: C_12  and  C_13
REMARK    6  A    between atoms: N_22  and  C_23
REMARK                            x       y       z     vdW  Elec       q    Type
REMARK                         _______ _______ _______ _____ _____    ______ ____
ROOT
ATOM      1  N   UNL     1       2.875   7.018  19.128  0.00  0.00    +0.000 N 
ATOM      2  C   UNL     1       2.615   8.146  18.244  0.00  0.00    +0.000 C 
ATOM      3  O   UNL     1       2.551   7.983  17.032  0.00  0.00    +0.000 OA
ATOM      4  H   UNL     1       2.865   7.184  20.131  0.00  0.00    +0.000 HD
ENDROOT
BRANCH   1   8
ATOM      5  C   UNL     1       2.429   2.283  17.619  0.00  0.00    +0.000 C 
ATOM      6  C   UNL     1       2.965   3.609  18.006  0.00  0.00    +0.000 A 
ATOM      7  C   UNL     1       2.256   4.679  18.590  0.00  0.00    +0.000 A 
ATOM      8  C   UNL     1       3.143   5.732  18.658  0.00  0.00    +0.000 A 
ATOM      9  N   UNL     1       4.302   5.254  18.061  0.00  0.00    +0.000 N 
ATOM     10  N   UNL     1       4.235   3.940  17.765  0.00  0.00    +0.000 NA
BRANCH   9  11
ATOM     11  C   UNL     1       5.405   6.049  17.514  0.00  0.00    +0.000 C 
ATOM     12  C   UNL     1       6.830   5.528  17.806  0.00  0.00    +0.000 C 
ATOM     13  C   UNL     1       7.343   4.437  16.858  0.00  0.00    +0.000 C 
ATOM     14  C   UNL     1       7.086   4.765  15.392  0.00  0.00    +0.000 C 
ATOM     15  C   UNL     1       5.627   5.115  15.139  0.00  0.00    +0.000 C 
ATOM     16  C   UNL     1       5.179   6.288  16.012  0.00  0.00    +0.000 C 
ENDBRANCH   9  11
ENDBRANCH   1   8
BRANCH   2  17
ATOM     17  C   UNL     1       2.316   9.465  18.876  0.00  0.00    +0.000 C 
BRANCH  17  18
ATOM     18  N   UNL     1       0.900   9.662  18.958  0.00  0.00    +0.000 N 
ATOM     19  N   UNL     1       0.267   9.778  20.127  0.00  0.00    +0.000 NA
ATOM     20  N   UNL     1      -0.975  10.111  19.809  0.00  0.00    +0.000 NA
ATOM     21  C   UNL     1      -1.028  10.189  18.437  0.00  0.00    +0.000 A 
ATOM     22  N   UNL     1       0.156   9.894  17.857  0.00  0.00    +0.000 NA
BRANCH  21  23
ATOM     23  C   UNL     1      -2.238  10.546  17.710  0.00  0.00    +0.000 A 
ATOM     24  C   UNL     1      -2.397  10.184  16.365  0.00  0.00    +0.000 A 
ATOM     25  C   UNL     1      -3.556  10.549  15.675  0.00  0.00    +0.000 A 
ATOM     26 CL   UNL     1      -3.737  10.102  14.025  0.00  0.00    +0.000 Cl
ATOM     27  C   UNL     1      -4.563  11.272  16.308  0.00  0.00    +0.000 A 
ATOM     28  C   UNL     1      -4.409  11.625  17.645  0.00  0.00    +0.000 A 
ATOM     29 CL   UNL     1      -5.637  12.522  18.445  0.00  0.00    +0.000 Cl
ATOM     30  C   UNL     1      -3.259  11.262  18.346  0.00  0.00    +0.000 A 
ENDBRANCH  21  23
ENDBRANCH  17  18
ENDBRANCH   2  17
TORSDOF 5
ENDMDL
MODEL 6
REMARK VINA RESULT:      -7.9      3.855      8.102
REMARK  Name = 
REMARK  6 active torsions:
REMARK  status: ('A' for Active; 'I' for Inactive)
REMARK    1  A    between atoms: C_1  and  C_2
REMARK    2  A    between atoms: C_4  and  N_5
REMARK    3  A    between atoms: C_6  and  C_8
REMARK    4  A    between atoms: C_8  and  N_9
REMARK    5  A    between atoms: C_12  and  C_13
REMARK    6  A    between atoms: N_22  and  C_23
REMARK                            x       y       z     vdW  Elec       q    Type
REMARK                         _______ _______ _______ _____ _____    ______ ____
ROOT
ATOM      1  N   UNL     1       3.488   3.604  17.527  0.00  0.00    +0.000 N 
ATOM      2  C   UNL     1       3.283   2.275  18.087  0.00  0.00    +0.000 C 
ATOM      3  O   UNL     1       4.113   1.393  17.912  0.00  0.00    +0.000 OA
ATOM      4  H   UNL     1       2.804   4.325  17.741  0.00  0.00    +0.000 HD
ENDROOT
BRANCH   1   8
ATOM      5  C   UNL     1       6.589   4.030  13.641  0.00  0.00    +0.000 C 
ATOM      6  C   UNL     1       5.979   4.100  14.990  0.00  0.00    +0.000 A 
ATOM      7  C   UNL     1       4.792   3.475  15.423  0.00  0.00    +0.000 A 
ATOM      8  C   UNL     1       4.572   3.923  16.708  0.00  0.00    +0.000 A 
ATOM      9  N   UNL     1       5.598   4.828  16.944  0.00  0.00    +0.000 N 
ATOM     10  N   UNL     1       6.511   4.857  15.951  0.00  0.00    +0.000 NA
BRANCH   9  11
ATOM     11  C   UNL     1       5.630   5.876  17.969  0.00  0.00    +0.000 C 
ATOM     12  C   UNL     1       6.436   5.552  19.247  0.00  0.00    +0.000 C 
ATOM     13  C   UNL     1       7.947   5.798  19.158  0.00  0.00    +0.000 C 
ATOM     14  C   UNL     1       8.286   7.146  18.530  0.00  0.00    +0.000 C 
ATOM     15  C   UNL     1       7.586   7.338  17.193  0.00  0.00    +0.000 C 
ATOM     16  C   UNL     1       6.070   7.207  17.337  0.00  0.00    +0.000 C 
ENDBRANCH   9  11
ENDBRANCH   1   8
BRANCH   2  17
ATOM     17  C   UNL     1       2.096   2.073  18.969  0.00  0.00    +0.000 C 
BRANCH  17  18
ATOM     18  N   UNL     1       1.891   3.229  19.791  0.00  0.00    +0.000 N 
ATOM     19  N   UNL     1       2.120   3.213  21.105  0.00  0.00    +0.000 NA
ATOM     20  N   UNL     1       1.985   4.475  21.488  0.00  0.00    +0.000 NA
ATOM     21  C   UNL     1       1.683   5.203  20.361  0.00  0.00    +0.000 A 
ATOM     22  N   UNL     1       1.603   4.432  19.255  0.00  0.00    +0.000 NA
BRANCH  21  23
ATOM     23  C   UNL     1       1.473   6.643  20.382  0.00  0.00    +0.000 A 
ATOM     24  C   UNL     1       1.806   7.430  19.270  0.00  0.00    +0.000 A 
ATOM     25  C   UNL     1       1.615   8.814  19.310  0.00  0.00    +0.000 A 
ATOM     26 CL   UNL     1       2.030   9.769  17.942  0.00  0.00    +0.000 Cl
ATOM     27  C   UNL     1       1.097   9.428  20.447  0.00  0.00    +0.000 A 
ATOM     28  C   UNL     1       0.760   8.646  21.548  0.00  0.00    +0.000 A 
ATOM     29 CL   UNL     1       0.124   9.383  22.964  0.00  0.00    +0.000 Cl
ATOM     30  C   UNL     1       0.940   7.263  21.518  0.00  0.00    +0.000 A 
ENDBRANCH  21  23
ENDBRANCH  17  18
ENDBRANCH   2  17
TORSDOF 5
ENDMDL
MODEL 7
REMARK VINA RESULT:      -7.9      4.786      9.031
REMARK  Name = 
REMARK  6 active torsions:
REMARK  status: ('A' for Active; 'I' for Inactive)
REMARK    1  A    between atoms: C_1  and  C_2
REMARK    2  A    between atoms: C_4  and  N_5
REMARK    3  A    between atoms: C_6  and  C_8
REMARK    4  A    between atoms: C_8  and  N_9
REMARK    5  A    between atoms: C_12  and  C_13
REMARK    6  A    between atoms: N_22  and  C_23
REMARK                            x       y       z     vdW  Elec       q    Type
REMARK                         _______ _______ _______ _____ _____    ______ ____
ROOT
ATOM      1  N   UNL     1       2.734   7.158  19.120  0.00  0.00    +0.000 N 
ATOM      2  C   UNL     1       2.549   8.284  18.214  0.00  0.00    +0.000 C 
ATOM      3  O   UNL     1       2.552   8.113  17.002  0.00  0.00    +0.000 OA
ATOM      4  H   UNL     1       2.670   7.332  20.119  0.00  0.00    +0.000 HD
ENDROOT
BRANCH   1   8
ATOM      5  C   UNL     1       2.283   2.399  17.689  0.00  0.00    +0.000 C 
ATOM      6  C   UNL     1       2.820   3.730  18.057  0.00  0.00    +0.000 A 
ATOM      7  C   UNL     1       2.111   4.812  18.617  0.00  0.00    +0.000 A 
ATOM      8  C   UNL     1       3.001   5.863  18.674  0.00  0.00    +0.000 A 
ATOM      9  N   UNL     1       4.163   5.370  18.095  0.00  0.00    +0.000 N 
ATOM     10  N   UNL     1       4.094   4.051  17.821  0.00  0.00    +0.000 NA
BRANCH   9  11
ATOM     11  C   UNL     1       5.274   6.152  17.545  0.00  0.00    +0.000 C 
ATOM     12  C   UNL     1       6.684   5.790  18.063  0.00  0.00    +0.000 C 
ATOM     13  C   UNL     1       7.364   4.607  17.363  0.00  0.00    +0.000 C 
ATOM     14  C   UNL     1       7.258   4.685  15.844  0.00  0.00    +0.000 C 
ATOM     15  C   UNL     1       5.819   4.882  15.388  0.00  0.00    +0.000 C 
ATOM     16  C   UNL     1       5.208   6.138  16.009  0.00  0.00    +0.000 C 
ENDBRANCH   9  11
ENDBRANCH   1   8
BRANCH   2  17
ATOM     17  C   UNL     1       2.243   9.614  18.820  0.00  0.00    +0.000 C 
BRANCH  17  18
ATOM     18  N   UNL     1       0.825   9.796  18.917  0.00  0.00    +0.000 N 
ATOM     19  N   UNL     1       0.203   9.897  20.092  0.00  0.00    +0.000 NA
ATOM     20  N   UNL     1      -1.046  10.220  19.788  0.00  0.00    +0.000 NA
ATOM     21  C   UNL     1      -1.112  10.307  18.417  0.00  0.00    +0.000 A 
ATOM     22  N   UNL     1       0.069  10.029  17.825  0.00  0.00    +0.000 NA
BRANCH  21  23
ATOM     23  C   UNL     1      -2.333  10.657  17.705  0.00  0.00    +0.000 A 
ATOM     24  C   UNL     1      -3.356  11.369  18.347  0.00  0.00    +0.000 A 
ATOM     25  C   UNL     1      -4.530  11.683  17.656  0.00  0.00    +0.000 A 
ATOM     26 CL   UNL     1      -5.778  12.554  18.455  0.00  0.00    +0.000 Cl
ATOM     27  C   UNL     1      -4.700  11.295  16.330  0.00  0.00    +0.000 A 
ATOM     28  C   UNL     1      -3.682  10.594  15.690  0.00  0.00    +0.000 A 
ATOM     29 CL   UNL     1      -3.873  10.101  14.055  0.00  0.00    +0.000 Cl
ATOM     30  C   UNL     1      -2.503  10.281  16.367  0.00  0.00    +0.000 A 
ENDBRANCH  21  23
ENDBRANCH  17  18
ENDBRANCH   2  17
TORSDOF 5
ENDMDL
MODEL 8
REMARK VINA RESULT:      -7.9      4.767      8.957
REMARK  Name = 
REMARK  6 active torsions:
REMARK  status: ('A' for Active; 'I' for Inactive)
REMARK    1  A    between atoms: C_1  and  C_2
REMARK    2  A    between atoms: C_4  and  N_5
REMARK    3  A    between atoms: C_6  and  C_8
REMARK    4  A    between atoms: C_8  and  N_9
REMARK    5  A    between atoms: C_12  and  C_13
REMARK    6  A    between atoms: N_22  and  C_23
REMARK                            x       y       z     vdW  Elec       q    Type
REMARK                         _______ _______ _______ _____ _____    ______ ____
ROOT
ATOM      1  N   UNL     1       2.463   6.730  17.684  0.00  0.00    +0.000 N 
ATOM      2  C   UNL     1       2.454   7.662  18.802  0.00  0.00    +0.000 C 
ATOM      3  O   UNL     1       2.686   7.272  19.938  0.00  0.00    +0.000 OA
ATOM      4  H   UNL     1       2.321   7.102  16.748  0.00  0.00    +0.000 HD
ENDROOT
BRANCH   1   8
ATOM      5  C   UNL     1       1.750   1.884  18.635  0.00  0.00    +0.000 C 
ATOM      6  C   UNL     1       2.351   3.193  18.289  0.00  0.00    +0.000 A 
ATOM      7  C   UNL     1       1.745   4.462  18.382  0.00  0.00    +0.000 A 
ATOM      8  C   UNL     1       2.646   5.355  17.844  0.00  0.00    +0.000 A 
ATOM      9  N   UNL     1       3.704   4.568  17.409  0.00  0.00    +0.000 N 
ATOM     10  N   UNL     1       3.580   3.275  17.774  0.00  0.00    +0.000 NA
BRANCH   9  11
ATOM     11  C   UNL     1       4.730   4.933  16.428  0.00  0.00    +0.000 C 
ATOM     12  C   UNL     1       5.062   6.439  16.318  0.00  0.00    +0.000 C 
ATOM     13  C   UNL     1       6.066   6.972  17.348  0.00  0.00    +0.000 C 
ATOM     14  C   UNL     1       7.287   6.073  17.495  0.00  0.00    +0.000 C 
ATOM     15  C   UNL     1       6.895   4.627  17.763  0.00  0.00    +0.000 C 
ATOM     16  C   UNL     1       5.991   4.084  16.655  0.00  0.00    +0.000 C 
ENDBRANCH   9  11
ENDBRANCH   1   8
BRANCH   2  17
ATOM     17  C   UNL     1       2.273   9.111  18.491  0.00  0.00    +0.000 C 
BRANCH  17  18
ATOM     18  N   UNL     1       0.909   9.494  18.704  0.00  0.00    +0.000 N 
ATOM     19  N   UNL     1       0.451   9.848  19.906  0.00  0.00    +0.000 NA
ATOM     20  N   UNL     1      -0.779  10.287  19.685  0.00  0.00    +0.000 NA
ATOM     21  C   UNL     1      -1.002  10.183  18.332  0.00  0.00    +0.000 A 
ATOM     22  N   UNL     1       0.057   9.665  17.673  0.00  0.00    +0.000 NA
BRANCH  21  23
ATOM     23  C   UNL     1      -2.252  10.586  17.703  0.00  0.00    +0.000 A 
ATOM     24  C   UNL     1      -3.186  11.363  18.403  0.00  0.00    +0.000 A 
ATOM     25  C   UNL     1      -4.389  11.728  17.792  0.00  0.00    +0.000 A 
ATOM     26 CL   UNL     1      -5.528  12.678  18.662  0.00  0.00    +0.000 Cl
ATOM     27  C   UNL     1      -4.676  11.328  16.491  0.00  0.00    +0.000 A 
ATOM     28  C   UNL     1      -3.747  10.563  15.793  0.00  0.00    +0.000 A 
ATOM     29 CL   UNL     1      -4.083  10.053  14.187  0.00  0.00    +0.000 Cl
ATOM     30  C   UNL     1      -2.539  10.197  16.389  0.00  0.00    +0.000 A 
ENDBRANCH  21  23
ENDBRANCH  17  18
ENDBRANCH   2  17
TORSDOF 5
ENDMDL
MODEL 9
REMARK VINA RESULT:      -7.8      3.882      7.994
REMARK  Name = 
REMARK  6 active torsions:
REMARK  status: ('A' for Active; 'I' for Inactive)
REMARK    1  A    between atoms: C_1  and  C_2
REMARK    2  A    between atoms: C_4  and  N_5
REMARK    3  A    between atoms: C_6  and  C_8
REMARK    4  A    between atoms: C_8  and  N_9
REMARK    5  A    between atoms: C_12  and  C_13
REMARK    6  A    between atoms: N_22  and  C_23
REMARK                            x       y       z     vdW  Elec       q    Type
REMARK                         _______ _______ _______ _____ _____    ______ ____
ROOT
ATOM      1  N   UNL     1       4.005   4.330  16.262  0.00  0.00    +0.000 N 
ATOM      2  C   UNL     1       3.875   3.202  17.173  0.00  0.00    +0.000 C 
ATOM      3  O   UNL     1       4.849   2.516  17.455  0.00  0.00    +0.000 OA
ATOM      4  H   UNL     1       3.186   4.909  16.095  0.00  0.00    +0.000 HD
ENDROOT
BRANCH   1   8
ATOM      5  C   UNL     1       7.603   4.796  12.835  0.00  0.00    +0.000 C 
ATOM      6  C   UNL     1       6.822   4.835  14.094  0.00  0.00    +0.000 A 
ATOM      7  C   UNL     1       5.570   4.236  14.341  0.00  0.00    +0.000 A 
ATOM      8  C   UNL     1       5.197   4.642  15.605  0.00  0.00    +0.000 A 
ATOM      9  N   UNL     1       6.209   5.500  16.012  0.00  0.00    +0.000 N 
ATOM     10  N   UNL     1       7.246   5.534  15.149  0.00  0.00    +0.000 NA
BRANCH   9  11
ATOM     11  C   UNL     1       6.138   6.505  17.077  0.00  0.00    +0.000 C 
ATOM     12  C   UNL     1       5.245   6.152  18.288  0.00  0.00    +0.000 C 
ATOM     13  C   UNL     1       5.901   5.275  19.361  0.00  0.00    +0.000 C 
ATOM     14  C   UNL     1       7.299   5.754  19.735  0.00  0.00    +0.000 C 
ATOM     15  C   UNL     1       8.183   5.929  18.509  0.00  0.00    +0.000 C 
ATOM     16  C   UNL     1       7.558   6.904  17.510  0.00  0.00    +0.000 C 
ENDBRANCH   9  11
ENDBRANCH   1   8
BRANCH   2  17
ATOM     17  C   UNL     1       2.551   2.993  17.830  0.00  0.00    +0.000 C 
BRANCH  17  18
ATOM     18  N   UNL     1       2.337   3.992  18.835  0.00  0.00    +0.000 N 
ATOM     19  N   UNL     1       2.715   3.814  20.102  0.00  0.00    +0.000 NA
ATOM     20  N   UNL     1       2.511   4.987  20.684  0.00  0.00    +0.000 NA
ATOM     21  C   UNL     1       2.018   5.832  19.717  0.00  0.00    +0.000 A 
ATOM     22  N   UNL     1       1.881   5.221  18.520  0.00  0.00    +0.000 NA
BRANCH  21  23
ATOM     23  C   UNL     1       1.682   7.224  19.979  0.00  0.00    +0.000 A 
ATOM     24  C   UNL     1       1.893   8.206  19.001  0.00  0.00    +0.000 A 
ATOM     25  C   UNL     1       1.582   9.541  19.272  0.00  0.00    +0.000 A 
ATOM     26 CL   UNL     1       1.848  10.736  18.065  0.00  0.00    +0.000 Cl
ATOM     27  C   UNL     1       1.063   9.914  20.508  0.00  0.00    +0.000 A 
ATOM     28  C   UNL     1       0.848   8.939  21.477  0.00  0.00    +0.000 A 
ATOM     29 CL   UNL     1       0.213   9.377  23.013  0.00  0.00    +0.000 Cl
ATOM     30  C   UNL     1       1.148   7.601  21.216  0.00  0.00    +0.000 A 
ENDBRANCH  21  23
ENDBRANCH  17  18
ENDBRANCH   2  17
TORSDOF 5
ENDMDL
