MODEL 1
REMARK VINA RESULT:      -7.5      0.000      0.000
REMARK  Name = 
REMARK  6 active torsions:
REMARK  status: ('A' for Active; 'I' for Inactive)
REMARK    1  A    between atoms: C_4  and  C_5
REMARK    2  A    between atoms: C_5  and  N_6
REMARK    3  A    between atoms: N_9  and  C_10
REMARK    4  A    between atoms: C_10  and  C_11
REMARK    5  A    between atoms: C_22  and  O_23
REMARK    6  A    between atoms: C_24  and  O_25
REMARK                            x       y       z     vdW  Elec       q    Type
REMARK                         _______ _______ _______ _____ _____    ______ ____
ROOT
ATOM      1  O   UNL     1       4.352   7.144  16.976  0.00  0.00    +0.000 OA
ATOM      2  C   UNL     1       3.657   6.534  17.781  0.00  0.00    +0.000 A 
ATOM      3  C   UNL     1       2.914   7.258  18.818  0.00  0.00    +0.000 A 
ATOM      4  C   UNL     1       2.090   6.679  19.712  0.00  0.00    +0.000 A 
ATOM      5  C   UNL     1       1.941   5.212  19.639  0.00  0.00    +0.000 A 
ATOM      6  C   UNL     1       1.105   4.470  20.487  0.00  0.00    +0.000 A 
ATOM      7  C   UNL     1       1.009   3.072  20.379  0.00  0.00    +0.000 A 
ATOM      8  C   UNL     1       1.753   2.405  19.414  0.00  0.00    +0.000 A 
ATOM      9  C   UNL     1       2.579   3.119  18.555  0.00  0.00    +0.000 A 
ATOM     10  C   UNL     1       2.668   4.504  18.669  0.00  0.00    +0.000 A 
ATOM     11  O   UNL     1       3.516   5.165  17.758  0.00  0.00    +0.000 OA
ENDROOT
BRANCH   8  12
ATOM     12  O   UNL     1       1.708   1.044  19.267  0.00  0.00    +0.000 OA
ATOM     13  H   UNL     1       0.810   0.795  18.995  0.00  0.00    +0.000 HD
ENDBRANCH   8  12
BRANCH   9  14
ATOM     14  O   UNL     1       3.299   2.446  17.607  0.00  0.00    +0.000 OA
ATOM     15  H   UNL     1       3.793   3.135  17.123  0.00  0.00    +0.000 HD
ENDBRANCH   9  14
BRANCH   4  16
ATOM     16  C   UNL     1       1.281   7.553  20.654  0.00  0.00    +0.000 C 
BRANCH  16  17
ATOM     17  N   UNL     1       1.723   8.945  20.853  0.00  0.00    +0.000 NA
ATOM     18  C   UNL     1       0.975   9.927  20.042  0.00  0.00    +0.000 C 
ATOM     19  C   UNL     1      -0.490  10.178  20.486  0.00  0.00    +0.000 C 
ATOM     20  N   UNL     1      -0.694  10.466  21.921  0.00  0.00    +0.000 NA
ATOM     21  C   UNL     1       0.110   9.546  22.750  0.00  0.00    +0.000 C 
ATOM     22  C   UNL     1       1.574   9.334  22.277  0.00  0.00    +0.000 C 
BRANCH  20  23
ATOM     23  C   UNL     1      -0.428  11.870  22.272  0.00  0.00    +0.000 C 
BRANCH  23  24
ATOM     24  C   UNL     1      -1.551  12.537  23.041  0.00  0.00    +0.000 A 
ATOM     25  C   UNL     1      -2.761  11.868  23.283  0.00  0.00    +0.000 A 
ATOM     26  C   UNL     1      -3.787  12.492  23.999  0.00  0.00    +0.000 A 
ATOM     27  C   UNL     1      -3.613  13.787  24.481  0.00  0.00    +0.000 A 
ATOM     28  C   UNL     1      -2.416  14.461  24.251  0.00  0.00    +0.000 A 
ATOM     29  C   UNL     1      -1.391  13.840  23.537  0.00  0.00    +0.000 A 
ENDBRANCH  23  24
ENDBRANCH  20  23
ENDBRANCH  16  17
ENDBRANCH   4  16
TORSDOF 6
ENDMDL
MODEL 2
REMARK VINA RESULT:      -7.5      1.605      1.934
REMARK  Name = 
REMARK  6 active torsions:
REMARK  status: ('A' for Active; 'I' for Inactive)
REMARK    1  A    between atoms: C_4  and  C_5
REMARK    2  A    between atoms: C_5  and  N_6
REMARK    3  A    between atoms: N_9  and  C_10
REMARK    4  A    between atoms: C_10  and  C_11
REMARK    5  A    between atoms: C_22  and  O_23
REMARK    6  A    between atoms: C_24  and  O_25
REMARK                            x       y       z     vdW  Elec       q    Type
REMARK                         _______ _______ _______ _____ _____    ______ ____
ROOT
ATOM      1  O   UNL     1       5.398   6.715  16.054  0.00  0.00    +0.000 OA
ATOM      2  C   UNL     1       4.648   6.494  16.998  0.00  0.00    +0.000 A 
ATOM      3  C   UNL     1       3.600   7.457  17.355  0.00  0.00    +0.000 A 
ATOM      4  C   UNL     1       2.703   7.277  18.342  0.00  0.00    +0.000 A 
ATOM      5  C   UNL     1       2.797   6.026  19.119  0.00  0.00    +0.000 A 
ATOM      6  C   UNL     1       1.921   5.688  20.163  0.00  0.00    +0.000 A 
ATOM      7  C   UNL     1       2.064   4.485  20.876  0.00  0.00    +0.000 A 
ATOM      8  C   UNL     1       3.089   3.608  20.545  0.00  0.00    +0.000 A 
ATOM      9  C   UNL     1       3.961   3.914  19.508  0.00  0.00    +0.000 A 
ATOM     10  C   UNL     1       3.812   5.108  18.807  0.00  0.00    +0.000 A 
ATOM     11  O   UNL     1       4.724   5.350  17.760  0.00  0.00    +0.000 OA
ENDROOT
BRANCH   8  12
ATOM     12  O   UNL     1       3.283   2.426  21.209  0.00  0.00    +0.000 OA
ATOM     13  H   UNL     1       4.006   1.944  20.775  0.00  0.00    +0.000 HD
ENDBRANCH   8  12
BRANCH   9  14
ATOM     14  O   UNL     1       4.960   3.035  19.192  0.00  0.00    +0.000 OA
ATOM     15  H   UNL     1       4.959   2.378  19.913  0.00  0.00    +0.000 HD
ENDBRANCH   9  14
BRANCH   4  16
ATOM     16  C   UNL     1       1.588   8.292  18.529  0.00  0.00    +0.000 C 
BRANCH  16  17
ATOM     17  N   UNL     1       1.877   9.492  19.336  0.00  0.00    +0.000 NA
ATOM     18  C   UNL     1       1.424  10.751  18.710  0.00  0.00    +0.000 C 
ATOM     19  C   UNL     1      -0.113  10.964  18.684  0.00  0.00    +0.000 C 
ATOM     20  N   UNL     1      -0.819  10.768  19.967  0.00  0.00    +0.000 NA
ATOM     21  C   UNL     1      -0.320   9.557  20.649  0.00  0.00    +0.000 C 
ATOM     22  C   UNL     1       1.223   9.390  20.663  0.00  0.00    +0.000 C 
BRANCH  20  23
ATOM     23  C   UNL     1      -0.747  11.944  20.850  0.00  0.00    +0.000 C 
BRANCH  23  24
ATOM     24  C   UNL     1      -2.038  12.240  21.588  0.00  0.00    +0.000 A 
ATOM     25  C   UNL     1      -2.132  12.077  22.978  0.00  0.00    +0.000 A 
ATOM     26  C   UNL     1      -3.327  12.360  23.648  0.00  0.00    +0.000 A 
ATOM     27  C   UNL     1      -4.436  12.810  22.935  0.00  0.00    +0.000 A 
ATOM     28  C   UNL     1      -4.354  12.980  21.555  0.00  0.00    +0.000 A 
ATOM     29  C   UNL     1      -3.163  12.699  20.885  0.00  0.00    +0.000 A 
ENDBRANCH  23  24
ENDBRANCH  20  23
ENDBRANCH  16  17
ENDBRANCH   4  16
TORSDOF 6
ENDMDL
MODEL 3
REMARK VINA RESULT:      -7.4      1.491      1.828
REMARK  Name = 
REMARK  6 active torsions:
REMARK  status: ('A' for Active; 'I' for Inactive)
REMARK    1  A    between atoms: C_4  and  C_5
REMARK    2  A    between atoms: C_5  and  N_6
REMARK    3  A    between atoms: N_9  and  C_10
REMARK    4  A    between atoms: C_10  and  C_11
REMARK    5  A    between atoms: C_22  and  O_23
REMARK    6  A    between atoms: C_24  and  O_25
REMARK                            x       y       z     vdW  Elec       q    Type
REMARK                         _______ _______ _______ _____ _____    ______ ____
ROOT
ATOM      1  O   UNL     1       5.815   7.074  16.312  0.00  0.00    +0.000 OA
ATOM      2  C   UNL     1       4.870   6.548  16.891  0.00  0.00    +0.000 A 
ATOM      3  C   UNL     1       3.783   7.371  17.434  0.00  0.00    +0.000 A 
ATOM      4  C   UNL     1       2.685   6.881  18.040  0.00  0.00    +0.000 A 
ATOM      5  C   UNL     1       2.586   5.413  18.171  0.00  0.00    +0.000 A 
ATOM      6  C   UNL     1       1.495   4.754  18.760  0.00  0.00    +0.000 A 
ATOM      7  C   UNL     1       1.458   3.354  18.866  0.00  0.00    +0.000 A 
ATOM      8  C   UNL     1       2.519   2.600  18.379  0.00  0.00    +0.000 A 
ATOM      9  C   UNL     1       3.604   3.228  17.782  0.00  0.00    +0.000 A 
ATOM     10  C   UNL     1       3.633   4.617  17.681  0.00  0.00    +0.000 A 
ATOM     11  O   UNL     1       4.758   5.187  17.053  0.00  0.00    +0.000 OA
ENDROOT
BRANCH   8  12
ATOM     12  O   UNL     1       2.543   1.233  18.463  0.00  0.00    +0.000 OA
ATOM     13  H   UNL     1       2.175   0.971  19.322  0.00  0.00    +0.000 HD
ENDBRANCH   8  12
BRANCH   9  14
ATOM     14  O   UNL     1       4.636   2.469  17.303  0.00  0.00    +0.000 OA
ATOM     15  H   UNL     1       5.379   2.632  17.914  0.00  0.00    +0.000 HD
ENDBRANCH   9  14
BRANCH   4  16
ATOM     16  C   UNL     1       1.572   7.830  18.446  0.00  0.00    +0.000 C 
BRANCH  16  17
ATOM     17  N   UNL     1       1.946   9.066  19.158  0.00  0.00    +0.000 NA
ATOM     18  C   UNL     1       1.492  10.299  18.484  0.00  0.00    +0.000 C 
ATOM     19  C   UNL     1      -0.036  10.562  18.536  0.00  0.00    +0.000 C 
ATOM     20  N   UNL     1      -0.667  10.467  19.869  0.00  0.00    +0.000 NA
ATOM     21  C   UNL     1      -0.164   9.283  20.593  0.00  0.00    +0.000 C 
ATOM     22  C   UNL     1       1.372   9.066  20.526  0.00  0.00    +0.000 C 
BRANCH  20  23
ATOM     23  C   UNL     1      -0.507  11.691  20.671  0.00  0.00    +0.000 C 
BRANCH  23  24
ATOM     24  C   UNL     1      -1.755  12.099  21.428  0.00  0.00    +0.000 A 
ATOM     25  C   UNL     1      -2.843  12.692  20.767  0.00  0.00    +0.000 A 
ATOM     26  C   UNL     1      -3.991  13.058  21.476  0.00  0.00    +0.000 A 
ATOM     27  C   UNL     1      -4.065  12.833  22.848  0.00  0.00    +0.000 A 
ATOM     28  C   UNL     1      -2.994  12.242  23.515  0.00  0.00    +0.000 A 
ATOM     29  C   UNL     1      -1.847  11.876  22.810  0.00  0.00    +0.000 A 
ENDBRANCH  23  24
ENDBRANCH  20  23
ENDBRANCH  16  17
ENDBRANCH   4  16
TORSDOF 6
ENDMDL
MODEL 4
REMARK VINA RESULT:      -7.4      1.380      3.033
REMARK  Name = 
REMARK  6 active torsions:
REMARK  status: ('A' for Active; 'I' for Inactive)
REMARK    1  A    between atoms: C_4  and  C_5
REMARK    2  A    between atoms: C_5  and  N_6
REMARK    3  A    between atoms: N_9  and  C_10
REMARK    4  A    between atoms: C_10  and  C_11
REMARK    5  A    between atoms: C_22  and  O_23
REMARK    6  A    between atoms: C_24  and  O_25
REMARK                            x       y       z     vdW  Elec       q    Type
REMARK                         _______ _______ _______ _____ _____    ______ ____
ROOT
ATOM      1  O   UNL     1       2.559   2.922  21.940  0.00  0.00    +0.000 OA
ATOM      2  C   UNL     1       2.654   3.809  21.100  0.00  0.00    +0.000 A 
ATOM      3  C   UNL     1       1.756   4.968  21.139  0.00  0.00    +0.000 A 
ATOM      4  C   UNL     1       1.818   6.011  20.290  0.00  0.00    +0.000 A 
ATOM      5  C   UNL     1       2.859   5.968  19.245  0.00  0.00    +0.000 A 
ATOM      6  C   UNL     1       3.061   6.988  18.301  0.00  0.00    +0.000 A 
ATOM      7  C   UNL     1       4.063   6.889  17.322  0.00  0.00    +0.000 A 
ATOM      8  C   UNL     1       4.876   5.762  17.281  0.00  0.00    +0.000 A 
ATOM      9  C   UNL     1       4.703   4.745  18.210  0.00  0.00    +0.000 A 
ATOM     10  C   UNL     1       3.708   4.852  19.178  0.00  0.00    +0.000 A 
ATOM     11  O   UNL     1       3.596   3.789  20.097  0.00  0.00    +0.000 OA
ENDROOT
BRANCH   8  12
ATOM     12  O   UNL     1       5.862   5.606  16.344  0.00  0.00    +0.000 OA
ATOM     13  H   UNL     1       6.128   4.672  16.330  0.00  0.00    +0.000 HD
ENDBRANCH   8  12
BRANCH   9  14
ATOM     14  O   UNL     1       5.517   3.647  18.159  0.00  0.00    +0.000 OA
ATOM     15  H   UNL     1       4.912   2.882  18.133  0.00  0.00    +0.000 HD
ENDBRANCH   9  14
BRANCH   4  16
ATOM     16  C   UNL     1       0.912   7.209  20.514  0.00  0.00    +0.000 C 
BRANCH  16  17
ATOM     17  N   UNL     1       1.546   8.509  20.798  0.00  0.00    +0.000 NA
ATOM     18  C   UNL     1       1.071   9.604  19.929  0.00  0.00    +0.000 C 
ATOM     19  C   UNL     1      -0.377  10.090  20.203  0.00  0.00    +0.000 C 
ATOM     20  N   UNL     1      -0.703  10.400  21.610  0.00  0.00    +0.000 NA
ATOM     21  C   UNL     1      -0.165   9.357  22.505  0.00  0.00    +0.000 C 
ATOM     22  C   UNL     1       1.291   8.910  22.204  0.00  0.00    +0.000 C 
BRANCH  20  23
ATOM     23  C   UNL     1      -0.257  11.740  22.025  0.00  0.00    +0.000 C 
BRANCH  23  24
ATOM     24  C   UNL     1      -1.294  12.520  22.810  0.00  0.00    +0.000 A 
ATOM     25  C   UNL     1      -1.023  13.813  23.284  0.00  0.00    +0.000 A 
ATOM     26  C   UNL     1      -1.990  14.524  24.000  0.00  0.00    +0.000 A 
ATOM     27  C   UNL     1      -3.235  13.952  24.247  0.00  0.00    +0.000 A 
ATOM     28  C   UNL     1      -3.519  12.671  23.778  0.00  0.00    +0.000 A 
ATOM     29  C   UNL     1      -2.555  11.960  23.063  0.00  0.00    +0.000 A 
ENDBRANCH  23  24
ENDBRANCH  20  23
ENDBRANCH  16  17
ENDBRANCH   4  16
TORSDOF 6
ENDMDL
MODEL 5
REMARK VINA RESULT:      -7.4      4.329      9.319
REMARK  Name = 
REMARK  6 active torsions:
REMARK  status: ('A' for Active; 'I' for Inactive)
REMARK    1  A    between atoms: C_4  and  C_5
REMARK    2  A    between atoms: C_5  and  N_6
REMARK    3  A    between atoms: N_9  and  C_10
REMARK    4  A    between atoms: C_10  and  C_11
REMARK    5  A    between atoms: C_22  and  O_23
REMARK    6  A    between atoms: C_24  and  O_25
REMARK                            x       y       z     vdW  Elec       q    Type
REMARK                         _______ _______ _______ _____ _____    ______ ____
ROOT
ATOM      1  O   UNL     1       0.160   9.758  23.980  0.00  0.00    +0.000 OA
ATOM      2  C   UNL     1       0.483   9.638  22.804  0.00  0.00    +0.000 A 
ATOM      3  C   UNL     1       0.629   8.305  22.207  0.00  0.00    +0.000 A 
ATOM      4  C   UNL     1       0.932   8.076  20.916  0.00  0.00    +0.000 A 
ATOM      5  C   UNL     1       1.140   9.256  20.053  0.00  0.00    +0.000 A 
ATOM      6  C   UNL     1       1.441   9.179  18.684  0.00  0.00    +0.000 A 
ATOM      7  C   UNL     1       1.638  10.337  17.913  0.00  0.00    +0.000 A 
ATOM      8  C   UNL     1       1.534  11.587  18.511  0.00  0.00    +0.000 A 
ATOM      9  C   UNL     1       1.226  11.690  19.861  0.00  0.00    +0.000 A 
ATOM     10  C   UNL     1       1.031  10.537  20.618  0.00  0.00    +0.000 A 
ATOM     11  O   UNL     1       0.710  10.715  21.978  0.00  0.00    +0.000 OA
ENDROOT
BRANCH   8  12
ATOM     12  O   UNL     1       1.724  12.749  17.812  0.00  0.00    +0.000 OA
ATOM     13  H   UNL     1       1.644  12.555  16.864  0.00  0.00    +0.000 HD
ENDBRANCH   8  12
BRANCH   9  14
ATOM     14  O   UNL     1       1.120  12.928  20.430  0.00  0.00    +0.000 OA
ATOM     15  H   UNL     1       1.771  12.932  21.157  0.00  0.00    +0.000 HD
ENDBRANCH   9  14
BRANCH   4  16
ATOM     16  C   UNL     1       0.930   6.651  20.391  0.00  0.00    +0.000 C 
BRANCH  16  17
ATOM     17  N   UNL     1       2.123   5.822  20.644  0.00  0.00    +0.000 NA
ATOM     18  C   UNL     1       1.871   4.371  20.534  0.00  0.00    +0.000 C 
ATOM     19  C   UNL     1       1.635   3.844  19.094  0.00  0.00    +0.000 C 
ATOM     20  N   UNL     1       2.632   4.251  18.082  0.00  0.00    +0.000 NA
ATOM     21  C   UNL     1       2.960   5.683  18.228  0.00  0.00    +0.000 C 
ATOM     22  C   UNL     1       3.201   6.164  19.684  0.00  0.00    +0.000 C 
BRANCH  20  23
ATOM     23  C   UNL     1       3.848   3.421  18.104  0.00  0.00    +0.000 C 
BRANCH  23  24
ATOM     24  C   UNL     1       4.988   3.977  17.274  0.00  0.00    +0.000 A 
ATOM     25  C   UNL     1       6.162   4.451  17.879  0.00  0.00    +0.000 A 
ATOM     26  C   UNL     1       7.209   4.954  17.101  0.00  0.00    +0.000 A 
ATOM     27  C   UNL     1       7.094   4.986  15.714  0.00  0.00    +0.000 A 
ATOM     28  C   UNL     1       5.936   4.515  15.100  0.00  0.00    +0.000 A 
ATOM     29  C   UNL     1       4.890   4.011  15.874  0.00  0.00    +0.000 A 
ENDBRANCH  23  24
ENDBRANCH  20  23
ENDBRANCH  16  17
ENDBRANCH   4  16
TORSDOF 6
ENDMDL
MODEL 6
REMARK VINA RESULT:      -7.3      2.002      3.456
REMARK  Name = 
REMARK  6 active torsions:
REMARK  status: ('A' for Active; 'I' for Inactive)
REMARK    1  A    between atoms: C_4  and  C_5
REMARK    2  A    between atoms: C_5  and  N_6
REMARK    3  A    between atoms: N_9  and  C_10
REMARK    4  A    between atoms: C_10  and  C_11
REMARK    5  A    between atoms: C_22  and  O_23
REMARK    6  A    between atoms: C_24  and  O_25
REMARK                            x       y       z     vdW  Elec       q    Type
REMARK                         _______ _______ _______ _____ _____    ______ ____
ROOT
ATOM      1  O   UNL     1       2.391   3.886  21.264  0.00  0.00    +0.000 OA
ATOM      2  C   UNL     1       2.809   4.569  20.336  0.00  0.00    +0.000 A 
ATOM      3  C   UNL     1       2.029   5.710  19.844  0.00  0.00    +0.000 A 
ATOM      4  C   UNL     1       2.429   6.543  18.865  0.00  0.00    +0.000 A 
ATOM      5  C   UNL     1       3.741   6.273  18.245  0.00  0.00    +0.000 A 
ATOM      6  C   UNL     1       4.302   7.063  17.229  0.00  0.00    +0.000 A 
ATOM      7  C   UNL     1       5.552   6.752  16.668  0.00  0.00    +0.000 A 
ATOM      8  C   UNL     1       6.254   5.643  17.125  0.00  0.00    +0.000 A 
ATOM      9  C   UNL     1       5.725   4.853  18.137  0.00  0.00    +0.000 A 
ATOM     10  C   UNL     1       4.486   5.168  18.687  0.00  0.00    +0.000 A 
ATOM     11  O   UNL     1       4.015   4.330  19.719  0.00  0.00    +0.000 OA
ENDROOT
BRANCH   8  12
ATOM     12  O   UNL     1       7.472   5.286  16.610  0.00  0.00    +0.000 OA
ATOM     13  H   UNL     1       7.329   4.625  15.913  0.00  0.00    +0.000 HD
ENDBRANCH   8  12
BRANCH   9  14
ATOM     14  O   UNL     1       6.433   3.769  18.577  0.00  0.00    +0.000 OA
ATOM     15  H   UNL     1       6.004   2.997  18.163  0.00  0.00    +0.000 HD
ENDBRANCH   9  14
BRANCH   4  16
ATOM     16  C   UNL     1       1.587   7.762  18.534  0.00  0.00    +0.000 C 
BRANCH  16  17
ATOM     17  N   UNL     1       1.937   9.039  19.183  0.00  0.00    +0.000 NA
ATOM     18  C   UNL     1       1.471  10.228  18.442  0.00  0.00    +0.000 C 
ATOM     19  C   UNL     1      -0.061  10.471  18.468  0.00  0.00    +0.000 C 
ATOM     20  N   UNL     1      -0.702  10.437  19.799  0.00  0.00    +0.000 NA
ATOM     21  C   UNL     1      -0.189   9.300  20.588  0.00  0.00    +0.000 C 
ATOM     22  C   UNL     1       1.351   9.101  20.545  0.00  0.00    +0.000 C 
BRANCH  20  23
ATOM     23  C   UNL     1      -0.566  11.702  20.538  0.00  0.00    +0.000 C 
BRANCH  23  24
ATOM     24  C   UNL     1      -1.791  12.077  21.349  0.00  0.00    +0.000 A 
ATOM     25  C   UNL     1      -1.844  11.842  22.732  0.00  0.00    +0.000 A 
ATOM     26  C   UNL     1      -2.977  12.198  23.470  0.00  0.00    +0.000 A 
ATOM     27  C   UNL     1      -4.064  12.795  22.835  0.00  0.00    +0.000 A 
ATOM     28  C   UNL     1      -4.022  13.037  21.464  0.00  0.00    +0.000 A 
ATOM     29  C   UNL     1      -2.892  12.683  20.725  0.00  0.00    +0.000 A 
ENDBRANCH  23  24
ENDBRANCH  20  23
ENDBRANCH  16  17
ENDBRANCH   4  16
TORSDOF 6
ENDMDL
MODEL 7
REMARK VINA RESULT:      -7.3      3.019      3.716
REMARK  Name = 
REMARK  6 active torsions:
REMARK  status: ('A' for Active; 'I' for Inactive)
REMARK    1  A    between atoms: C_4  and  C_5
REMARK    2  A    between atoms: C_5  and  N_6
REMARK    3  A    between atoms: N_9  and  C_10
REMARK    4  A    between atoms: C_10  and  C_11
REMARK    5  A    between atoms: C_22  and  O_23
REMARK    6  A    between atoms: C_24  and  O_25
REMARK                            x       y       z     vdW  Elec       q    Type
REMARK                         _______ _______ _______ _____ _____    ______ ____
ROOT
ATOM      1  O   UNL     1       6.013   6.821  16.126  0.00  0.00    +0.000 OA
ATOM      2  C   UNL     1       5.077   6.441  16.821  0.00  0.00    +0.000 A 
ATOM      3  C   UNL     1       4.186   7.415  17.460  0.00  0.00    +0.000 A 
ATOM      4  C   UNL     1       3.108   7.092  18.200  0.00  0.00    +0.000 A 
ATOM      5  C   UNL     1       2.821   5.655  18.382  0.00  0.00    +0.000 A 
ATOM      6  C   UNL     1       1.725   5.164  19.107  0.00  0.00    +0.000 A 
ATOM      7  C   UNL     1       1.505   3.784  19.255  0.00  0.00    +0.000 A 
ATOM      8  C   UNL     1       2.387   2.882  18.673  0.00  0.00    +0.000 A 
ATOM      9  C   UNL     1       3.473   3.344  17.940  0.00  0.00    +0.000 A 
ATOM     10  C   UNL     1       3.682   4.713  17.798  0.00  0.00    +0.000 A 
ATOM     11  O   UNL     1       4.797   5.111  17.032  0.00  0.00    +0.000 OA
ENDROOT
BRANCH   8  12
ATOM     12  O   UNL     1       2.230   1.527  18.791  0.00  0.00    +0.000 OA
ATOM     13  H   UNL     1       2.384   1.279  19.717  0.00  0.00    +0.000 HD
ENDBRANCH   8  12
BRANCH   9  14
ATOM     14  O   UNL     1       4.326   2.441  17.369  0.00  0.00    +0.000 OA
ATOM     15  H   UNL     1       4.290   1.654  17.945  0.00  0.00    +0.000 HD
ENDBRANCH   9  14
BRANCH   4  16
ATOM     16  C   UNL     1       2.192   8.194  18.703  0.00  0.00    +0.000 C 
BRANCH  16  17
ATOM     17  N   UNL     1       1.597   9.103  17.707  0.00  0.00    +0.000 NA
ATOM     18  C   UNL     1       0.121   9.056  17.667  0.00  0.00    +0.000 C 
ATOM     19  C   UNL     1      -0.598   9.690  18.887  0.00  0.00    +0.000 C 
ATOM     20  N   UNL     1      -0.158  11.049  19.266  0.00  0.00    +0.000 NA
ATOM     21  C   UNL     1       1.315  11.142  19.232  0.00  0.00    +0.000 C 
ATOM     22  C   UNL     1       1.993  10.506  17.988  0.00  0.00    +0.000 C 
BRANCH  20  23
ATOM     23  C   UNL     1      -0.777  12.105  18.448  0.00  0.00    +0.000 C 
BRANCH  23  24
ATOM     24  C   UNL     1      -2.220  11.828  18.073  0.00  0.00    +0.000 A 
ATOM     25  C   UNL     1      -3.257  12.013  19.000  0.00  0.00    +0.000 A 
ATOM     26  C   UNL     1      -4.585  11.760  18.640  0.00  0.00    +0.000 A 
ATOM     27  C   UNL     1      -4.887  11.325  17.352  0.00  0.00    +0.000 A 
ATOM     28  C   UNL     1      -3.867  11.142  16.422  0.00  0.00    +0.000 A 
ATOM     29  C   UNL     1      -2.542  11.394  16.779  0.00  0.00    +0.000 A 
ENDBRANCH  23  24
ENDBRANCH  20  23
ENDBRANCH  16  17
ENDBRANCH   4  16
TORSDOF 6
ENDMDL
MODEL 8
REMARK VINA RESULT:      -7.2      3.158      5.317
REMARK  Name = 
REMARK  6 active torsions:
REMARK  status: ('A' for Active; 'I' for Inactive)
REMARK    1  A    between atoms: C_4  and  C_5
REMARK    2  A    between atoms: C_5  and  N_6
REMARK    3  A    between atoms: N_9  and  C_10
REMARK    4  A    between atoms: C_10  and  C_11
REMARK    5  A    between atoms: C_22  and  O_23
REMARK    6  A    between atoms: C_24  and  O_25
REMARK                            x       y       z     vdW  Elec       q    Type
REMARK                         _______ _______ _______ _____ _____    ______ ____
ROOT
ATOM      1  O   UNL     1       8.186   7.487  18.513  0.00  0.00    +0.000 OA
ATOM      2  C   UNL     1       7.482   6.650  17.959  0.00  0.00    +0.000 A 
ATOM      3  C   UNL     1       6.384   6.006  18.687  0.00  0.00    +0.000 A 
ATOM      4  C   UNL     1       5.532   5.113  18.149  0.00  0.00    +0.000 A 
ATOM      5  C   UNL     1       5.734   4.759  16.730  0.00  0.00    +0.000 A 
ATOM      6  C   UNL     1       4.916   3.862  16.025  0.00  0.00    +0.000 A 
ATOM      7  C   UNL     1       5.161   3.555  14.676  0.00  0.00    +0.000 A 
ATOM      8  C   UNL     1       6.233   4.149  14.020  0.00  0.00    +0.000 A 
ATOM      9  C   UNL     1       7.049   5.049  14.692  0.00  0.00    +0.000 A 
ATOM     10  C   UNL     1       6.798   5.348  16.029  0.00  0.00    +0.000 A 
ATOM     11  O   UNL     1       7.659   6.278  16.646  0.00  0.00    +0.000 OA
ENDROOT
BRANCH   8  12
ATOM     12  O   UNL     1       6.526   3.882  12.709  0.00  0.00    +0.000 OA
ATOM     13  H   UNL     1       7.184   4.527  12.404  0.00  0.00    +0.000 HD
ENDBRANCH   8  12
BRANCH   9  14
ATOM     14  O   UNL     1       8.094   5.629  14.028  0.00  0.00    +0.000 OA
ATOM     15  H   UNL     1       7.993   5.351  13.098  0.00  0.00    +0.000 HD
ENDBRANCH   9  14
BRANCH   4  16
ATOM     16  C   UNL     1       4.358   4.613  18.972  0.00  0.00    +0.000 C 
BRANCH  16  17
ATOM     17  N   UNL     1       3.000   4.978  18.530  0.00  0.00    +0.000 NA
ATOM     18  C   UNL     1       1.933   4.503  19.433  0.00  0.00    +0.000 C 
ATOM     19  C   UNL     1       1.840   5.237  20.797  0.00  0.00    +0.000 C 
ATOM     20  N   UNL     1       1.817   6.714  20.740  0.00  0.00    +0.000 NA
ATOM     21  C   UNL     1       2.823   7.207  19.779  0.00  0.00    +0.000 C 
ATOM     22  C   UNL     1       2.873   6.453  18.422  0.00  0.00    +0.000 C 
BRANCH  20  23
ATOM     23  C   UNL     1       0.483   7.259  20.442  0.00  0.00    +0.000 C 
BRANCH  23  24
ATOM     24  C   UNL     1       0.206   8.601  21.092  0.00  0.00    +0.000 A 
ATOM     25  C   UNL     1      -0.333   8.682  22.385  0.00  0.00    +0.000 A 
ATOM     26  C   UNL     1      -0.577   9.926  22.975  0.00  0.00    +0.000 A 
ATOM     27  C   UNL     1      -0.282  11.097  22.282  0.00  0.00    +0.000 A 
ATOM     28  C   UNL     1       0.257  11.030  21.000  0.00  0.00    +0.000 A 
ATOM     29  C   UNL     1       0.502   9.790  20.408  0.00  0.00    +0.000 A 
ENDBRANCH  23  24
ENDBRANCH  20  23
ENDBRANCH  16  17
ENDBRANCH   4  16
TORSDOF 6
ENDMDL
MODEL 9
REMARK VINA RESULT:      -7.2      3.059      4.510
REMARK  Name = 
REMARK  6 active torsions:
REMARK  status: ('A' for Active; 'I' for Inactive)
REMARK    1  A    between atoms: C_4  and  C_5
REMARK    2  A    between atoms: C_5  and  N_6
REMARK    3  A    between atoms: N_9  and  C_10
REMARK    4  A    between atoms: C_10  and  C_11
REMARK    5  A    between atoms: C_22  and  O_23
REMARK    6  A    between atoms: C_24  and  O_25
REMARK                            x       y       z     vdW  Elec       q    Type
REMARK                         _______ _______ _______ _____ _____    ______ ____
ROOT
ATOM      1  O   UNL     1       1.337   3.581  21.276  0.00  0.00    +0.000 OA
ATOM      2  C   UNL     1       1.875   4.305  20.446  0.00  0.00    +0.000 A 
ATOM      3  C   UNL     1       1.680   5.758  20.492  0.00  0.00    +0.000 A 
ATOM      4  C   UNL     1       2.267   6.634  19.655  0.00  0.00    +0.000 A 
ATOM      5  C   UNL     1       3.158   6.080  18.616  0.00  0.00    +0.000 A 
ATOM      6  C   UNL     1       3.856   6.866  17.686  0.00  0.00    +0.000 A 
ATOM      7  C   UNL     1       4.685   6.283  16.712  0.00  0.00    +0.000 A 
ATOM      8  C   UNL     1       4.822   4.901  16.665  0.00  0.00    +0.000 A 
ATOM      9  C   UNL     1       4.151   4.103  17.582  0.00  0.00    +0.000 A 
ATOM     10  C   UNL     1       3.332   4.689  18.544  0.00  0.00    +0.000 A 
ATOM     11  O   UNL     1       2.691   3.820  19.450  0.00  0.00    +0.000 OA
ENDROOT
BRANCH   8  12
ATOM     12  O   UNL     1       5.608   4.277  15.733  0.00  0.00    +0.000 OA
ATOM     13  H   UNL     1       5.157   3.466  15.446  0.00  0.00    +0.000 HD
ENDBRANCH   8  12
BRANCH   9  14
ATOM     14  O   UNL     1       4.304   2.745  17.524  0.00  0.00    +0.000 OA
ATOM     15  H   UNL     1       3.397   2.385  17.533  0.00  0.00    +0.000 HD
ENDBRANCH   9  14
BRANCH   4  16
ATOM     16  C   UNL     1       2.083   8.124  19.885  0.00  0.00    +0.000 C 
BRANCH  16  17
ATOM     17  N   UNL     1       0.879   8.765  19.324  0.00  0.00    +0.000 NA
ATOM     18  C   UNL     1       0.217   9.701  20.253  0.00  0.00    +0.000 C 
ATOM     19  C   UNL     1       0.976  11.029  20.513  0.00  0.00    +0.000 C 
ATOM     20  N   UNL     1       1.432  11.763  19.314  0.00  0.00    +0.000 NA
ATOM     21  C   UNL     1       2.024  10.831  18.335  0.00  0.00    +0.000 C 
ATOM     22  C   UNL     1       1.225   9.521  18.095  0.00  0.00    +0.000 C 
BRANCH  20  23
ATOM     23  C   UNL     1       0.372  12.578  18.700  0.00  0.00    +0.000 C 
BRANCH  23  24
ATOM     24  C   UNL     1       0.661  14.067  18.699  0.00  0.00    +0.000 A 
ATOM     25  C   UNL     1      -0.377  15.008  18.772  0.00  0.00    +0.000 A 
ATOM     26  C   UNL     1      -0.096  16.377  18.777  0.00  0.00    +0.000 A 
ATOM     27  C   UNL     1       1.223  16.819  18.712  0.00  0.00    +0.000 A 
ATOM     28  C   UNL     1       2.263  15.895  18.643  0.00  0.00    +0.000 A 
ATOM     29  C   UNL     1       1.985  14.528  18.638  0.00  0.00    +0.000 A 
ENDBRANCH  23  24
ENDBRANCH  20  23
ENDBRANCH  16  17
ENDBRANCH   4  16
TORSDOF 6
ENDMDL
