MODEL 1
REMARK VINA RESULT:      -6.8      0.000      0.000
REMARK  Name = 
REMARK  2 active torsions:
REMARK  status: ('A' for Active; 'I' for Inactive)
REMARK    1  A    between atoms: C_1  and  C_2
REMARK    2  A    between atoms: C_7  and  C_8
REMARK                            x       y       z     vdW  Elec       q    Type
REMARK                         _______ _______ _______ _____ _____    ______ ____
ROOT
ATOM      1  C   UNL     1       2.598   6.719  18.125  0.00  0.00    +0.000 C 
ATOM      2  C   UNL     1       2.791   5.235  17.961  0.00  0.00    +0.000 A 
ATOM      3  C   UNL     1       1.689   4.399  18.226  0.00  0.00    +0.000 A 
ATOM      4  C   UNL     1       1.779   3.019  18.077  0.00  0.00    +0.000 A 
ATOM      5  C   UNL     1       2.968   2.450  17.641  0.00  0.00    +0.000 A 
ATOM      6  C   UNL     1       4.078   3.258  17.391  0.00  0.00    +0.000 A 
ATOM      7  C   UNL     1       4.024   4.655  17.577  0.00  0.00    +0.000 A 
ENDROOT
BRANCH   7   8
ATOM      8  C   UNL     1       5.297   5.479  17.415  0.00  0.00    +0.000 C 
ATOM      9  C   UNL     1       6.546   4.753  17.939  0.00  0.00    +0.000 C 
ATOM     10  N   UNL     1       7.396   4.569  16.803  0.00  0.00    +0.000 N 
ATOM     11  C   UNL     1       6.953   5.209  15.674  0.00  0.00    +0.000 C 
ATOM     12  O   UNL     1       7.563   5.256  14.621  0.00  0.00    +0.000 OA
ATOM     13  C   UNL     1       5.627   5.862  15.961  0.00  0.00    +0.000 C 
ATOM     14  H   UNL     1       8.309   4.132  16.816  0.00  0.00    +0.000 HD
ENDBRANCH   7   8
TORSDOF 1
ENDMDL
MODEL 2
REMARK VINA RESULT:      -6.6      1.074      1.084
REMARK  Name = 
REMARK  2 active torsions:
REMARK  status: ('A' for Active; 'I' for Inactive)
REMARK    1  A    between atoms: C_1  and  C_2
REMARK    2  A    between atoms: C_7  and  C_8
REMARK                            x       y       z     vdW  Elec       q    Type
REMARK                         _______ _______ _______ _____ _____    ______ ____
ROOT
ATOM      1  C   UNL     1       2.438   6.273  19.596  0.00  0.00    +0.000 C 
ATOM      2  C   UNL     1       2.507   4.930  18.916  0.00  0.00    +0.000 A 
ATOM      3  C   UNL     1       1.412   4.060  19.077  0.00  0.00    +0.000 A 
ATOM      4  C   UNL     1       1.389   2.810  18.464  0.00  0.00    +0.000 A 
ATOM      5  C   UNL     1       2.453   2.417  17.664  0.00  0.00    +0.000 A 
ATOM      6  C   UNL     1       3.557   3.257  17.508  0.00  0.00    +0.000 A 
ATOM      7  C   UNL     1       3.622   4.509  18.154  0.00  0.00    +0.000 A 
ENDROOT
BRANCH   7   8
ATOM      8  C   UNL     1       4.902   5.333  18.056  0.00  0.00    +0.000 C 
ATOM      9  C   UNL     1       5.987   4.864  19.036  0.00  0.00    +0.000 C 
ATOM     10  N   UNL     1       7.081   4.422  18.227  0.00  0.00    +0.000 N 
ATOM     11  C   UNL     1       6.921   4.689  16.892  0.00  0.00    +0.000 C 
ATOM     12  O   UNL     1       7.763   4.477  16.038  0.00  0.00    +0.000 OA
ATOM     13  C   UNL     1       5.568   5.311  16.668  0.00  0.00    +0.000 C 
ATOM     14  H   UNL     1       7.963   4.065  18.573  0.00  0.00    +0.000 HD
ENDBRANCH   7   8
TORSDOF 1
ENDMDL
MODEL 3
REMARK VINA RESULT:      -6.5      3.587      5.028
REMARK  Name = 
REMARK  2 active torsions:
REMARK  status: ('A' for Active; 'I' for Inactive)
REMARK    1  A    between atoms: C_1  and  C_2
REMARK    2  A    between atoms: C_7  and  C_8
REMARK                            x       y       z     vdW  Elec       q    Type
REMARK                         _______ _______ _______ _____ _____    ______ ____
ROOT
ATOM      1  C   UNL     1       2.663   7.532  18.290  0.00  0.00    +0.000 C 
ATOM      2  C   UNL     1       3.399   6.316  17.791  0.00  0.00    +0.000 A 
ATOM      3  C   UNL     1       4.440   6.518  16.864  0.00  0.00    +0.000 A 
ATOM      4  C   UNL     1       5.183   5.450  16.371  0.00  0.00    +0.000 A 
ATOM      5  C   UNL     1       4.911   4.162  16.810  0.00  0.00    +0.000 A 
ATOM      6  C   UNL     1       3.870   3.938  17.713  0.00  0.00    +0.000 A 
ATOM      7  C   UNL     1       3.075   4.999  18.193  0.00  0.00    +0.000 A 
ENDROOT
BRANCH   7   8
ATOM      8  C   UNL     1       1.871   4.689  19.076  0.00  0.00    +0.000 C 
ATOM      9  C   UNL     1       1.290   3.290  18.819  0.00  0.00    +0.000 C 
ATOM     10  N   UNL     1       1.448   2.569  20.044  0.00  0.00    +0.000 N 
ATOM     11  C   UNL     1       1.891   3.343  21.085  0.00  0.00    +0.000 C 
ATOM     12  O   UNL     1       2.014   2.955  22.233  0.00  0.00    +0.000 OA
ATOM     13  C   UNL     1       2.161   4.739  20.588  0.00  0.00    +0.000 C 
ATOM     14  H   UNL     1       1.150   1.616  20.208  0.00  0.00    +0.000 HD
ENDBRANCH   7   8
TORSDOF 1
ENDMDL
MODEL 4
REMARK VINA RESULT:      -6.3      1.641      1.945
REMARK  Name = 
REMARK  2 active torsions:
REMARK  status: ('A' for Active; 'I' for Inactive)
REMARK    1  A    between atoms: C_1  and  C_2
REMARK    2  A    between atoms: C_7  and  C_8
REMARK                            x       y       z     vdW  Elec       q    Type
REMARK                         _______ _______ _______ _____ _____    ______ ____
ROOT
ATOM      1  C   UNL     1       1.743   5.657  20.659  0.00  0.00    +0.000 C 
ATOM      2  C   UNL     1       1.902   4.503  19.703  0.00  0.00    +0.000 A 
ATOM      3  C   UNL     1       0.975   3.447  19.794  0.00  0.00    +0.000 A 
ATOM      4  C   UNL     1       1.039   2.356  18.934  0.00  0.00    +0.000 A 
ATOM      5  C   UNL     1       2.021   2.310  17.953  0.00  0.00    +0.000 A 
ATOM      6  C   UNL     1       2.961   3.337  17.858  0.00  0.00    +0.000 A 
ATOM      7  C   UNL     1       2.942   4.432  18.747  0.00  0.00    +0.000 A 
ENDROOT
BRANCH   7   8
ATOM      8  C   UNL     1       4.065   5.462  18.685  0.00  0.00    +0.000 C 
ATOM      9  C   UNL     1       5.454   4.820  18.549  0.00  0.00    +0.000 C 
ATOM     10  N   UNL     1       5.970   5.264  17.291  0.00  0.00    +0.000 N 
ATOM     11  C   UNL     1       5.193   6.216  16.683  0.00  0.00    +0.000 C 
ATOM     12  O   UNL     1       5.486   6.792  15.651  0.00  0.00    +0.000 OA
ATOM     13  C   UNL     1       3.957   6.452  17.510  0.00  0.00    +0.000 C 
ATOM     14  H   UNL     1       6.878   5.028  16.911  0.00  0.00    +0.000 HD
ENDBRANCH   7   8
TORSDOF 1
ENDMDL
MODEL 5
REMARK VINA RESULT:      -6.2      1.718      1.855
REMARK  Name = 
REMARK  2 active torsions:
REMARK  status: ('A' for Active; 'I' for Inactive)
REMARK    1  A    between atoms: C_1  and  C_2
REMARK    2  A    between atoms: C_7  and  C_8
REMARK                            x       y       z     vdW  Elec       q    Type
REMARK                         _______ _______ _______ _____ _____    ______ ____
ROOT
ATOM      1  C   UNL     1       2.585   8.074  17.885  0.00  0.00    +0.000 C 
ATOM      2  C   UNL     1       3.052   6.758  18.448  0.00  0.00    +0.000 A 
ATOM      3  C   UNL     1       2.391   6.264  19.589  0.00  0.00    +0.000 A 
ATOM      4  C   UNL     1       2.748   5.045  20.157  0.00  0.00    +0.000 A 
ATOM      5  C   UNL     1       3.760   4.288  19.583  0.00  0.00    +0.000 A 
ATOM      6  C   UNL     1       4.441   4.769  18.463  0.00  0.00    +0.000 A 
ATOM      7  C   UNL     1       4.126   6.021  17.895  0.00  0.00    +0.000 A 
ENDROOT
BRANCH   7   8
ATOM      8  C   UNL     1       4.982   6.559  16.753  0.00  0.00    +0.000 C 
ATOM      9  C   UNL     1       6.330   7.118  17.233  0.00  0.00    +0.000 C 
ATOM     10  N   UNL     1       7.332   6.300  16.623  0.00  0.00    +0.000 N 
ATOM     11  C   UNL     1       6.835   5.412  15.704  0.00  0.00    +0.000 C 
ATOM     12  O   UNL     1       7.516   4.682  15.007  0.00  0.00    +0.000 OA
ATOM     13  C   UNL     1       5.333   5.517  15.675  0.00  0.00    +0.000 C 
ATOM     14  H   UNL     1       8.333   6.418  16.728  0.00  0.00    +0.000 HD
ENDBRANCH   7   8
TORSDOF 1
ENDMDL
MODEL 6
REMARK VINA RESULT:      -6.2      3.078      5.001
REMARK  Name = 
REMARK  2 active torsions:
REMARK  status: ('A' for Active; 'I' for Inactive)
REMARK    1  A    between atoms: C_1  and  C_2
REMARK    2  A    between atoms: C_7  and  C_8
REMARK                            x       y       z     vdW  Elec       q    Type
REMARK                         _______ _______ _______ _____ _____    ______ ____
ROOT
ATOM      1  C   UNL     1       5.826   3.955  15.256  0.00  0.00    +0.000 C 
ATOM      2  C   UNL     1       6.003   4.413  16.680  0.00  0.00    +0.000 A 
ATOM      3  C   UNL     1       7.278   4.871  17.064  0.00  0.00    +0.000 A 
ATOM      4  C   UNL     1       7.518   5.332  18.355  0.00  0.00    +0.000 A 
ATOM      5  C   UNL     1       6.484   5.359  19.280  0.00  0.00    +0.000 A 
ATOM      6  C   UNL     1       5.218   4.891  18.925  0.00  0.00    +0.000 A 
ATOM      7  C   UNL     1       4.961   4.379  17.636  0.00  0.00    +0.000 A 
ENDROOT
BRANCH   7   8
ATOM      8  C   UNL     1       3.599   3.762  17.336  0.00  0.00    +0.000 C 
ATOM      9  C   UNL     1       3.487   2.307  17.816  0.00  0.00    +0.000 C 
ATOM     10  N   UNL     1       2.454   2.300  18.806  0.00  0.00    +0.000 N 
ATOM     11  C   UNL     1       1.784   3.491  18.911  0.00  0.00    +0.000 C 
ATOM     12  O   UNL     1       0.816   3.681  19.626  0.00  0.00    +0.000 OA
ATOM     13  C   UNL     1       2.410   4.498  17.983  0.00  0.00    +0.000 C 
ATOM     14  H   UNL     1       2.126   1.485  19.309  0.00  0.00    +0.000 HD
ENDBRANCH   7   8
TORSDOF 1
ENDMDL
MODEL 7
REMARK VINA RESULT:      -6.2      1.930      2.071
REMARK  Name = 
REMARK  2 active torsions:
REMARK  status: ('A' for Active; 'I' for Inactive)
REMARK    1  A    between atoms: C_1  and  C_2
REMARK    2  A    between atoms: C_7  and  C_8
REMARK                            x       y       z     vdW  Elec       q    Type
REMARK                         _______ _______ _______ _____ _____    ______ ____
ROOT
ATOM      1  C   UNL     1       2.258   7.029  19.630  0.00  0.00    +0.000 C 
ATOM      2  C   UNL     1       2.422   5.556  19.898  0.00  0.00    +0.000 A 
ATOM      3  C   UNL     1       1.460   4.929  20.713  0.00  0.00    +0.000 A 
ATOM      4  C   UNL     1       1.528   3.567  20.991  0.00  0.00    +0.000 A 
ATOM      5  C   UNL     1       2.550   2.804  20.443  0.00  0.00    +0.000 A 
ATOM      6  C   UNL     1       3.524   3.409  19.648  0.00  0.00    +0.000 A 
ATOM      7  C   UNL     1       3.501   4.795  19.389  0.00  0.00    +0.000 A 
ENDROOT
BRANCH   7   8
ATOM      8  C   UNL     1       4.657   5.430  18.623  0.00  0.00    +0.000 C 
ATOM      9  C   UNL     1       6.031   5.014  19.168  0.00  0.00    +0.000 C 
ATOM     10  N   UNL     1       6.677   4.309  18.103  0.00  0.00    +0.000 N 
ATOM     11  C   UNL     1       5.992   4.356  16.917  0.00  0.00    +0.000 C 
ATOM     12  O   UNL     1       6.399   3.899  15.864  0.00  0.00    +0.000 OA
ATOM     13  C   UNL     1       4.691   5.087  17.122  0.00  0.00    +0.000 C 
ATOM     14  H   UNL     1       7.609   3.915  18.138  0.00  0.00    +0.000 HD
ENDBRANCH   7   8
TORSDOF 1
ENDMDL
MODEL 8
REMARK VINA RESULT:      -6.1      2.921      4.245
REMARK  Name = 
REMARK  2 active torsions:
REMARK  status: ('A' for Active; 'I' for Inactive)
REMARK    1  A    between atoms: C_1  and  C_2
REMARK    2  A    between atoms: C_7  and  C_8
REMARK                            x       y       z     vdW  Elec       q    Type
REMARK                         _______ _______ _______ _____ _____    ______ ____
ROOT
ATOM      1  C   UNL     1       2.890   6.546  18.878  0.00  0.00    +0.000 C 
ATOM      2  C   UNL     1       3.763   5.999  17.779  0.00  0.00    +0.000 A 
ATOM      3  C   UNL     1       4.307   6.916  16.859  0.00  0.00    +0.000 A 
ATOM      4  C   UNL     1       5.140   6.493  15.828  0.00  0.00    +0.000 A 
ATOM      5  C   UNL     1       5.460   5.148  15.709  0.00  0.00    +0.000 A 
ATOM      6  C   UNL     1       4.916   4.220  16.598  0.00  0.00    +0.000 A 
ATOM      7  C   UNL     1       4.034   4.619  17.625  0.00  0.00    +0.000 A 
ENDROOT
BRANCH   7   8
ATOM      8  C   UNL     1       3.366   3.554  18.489  0.00  0.00    +0.000 C 
ATOM      9  C   UNL     1       3.528   2.137  17.918  0.00  0.00    +0.000 C 
ATOM     10  N   UNL     1       4.281   1.408  18.892  0.00  0.00    +0.000 N 
ATOM     11  C   UNL     1       4.481   2.094  20.061  0.00  0.00    +0.000 C 
ATOM     12  O   UNL     1       5.020   1.633  21.051  0.00  0.00    +0.000 OA
ATOM     13  C   UNL     1       3.900   3.477  19.931  0.00  0.00    +0.000 C 
ATOM     14  H   UNL     1       4.545   0.433  18.821  0.00  0.00    +0.000 HD
ENDBRANCH   7   8
TORSDOF 1
ENDMDL
MODEL 9
REMARK VINA RESULT:      -6.0      3.203      4.939
REMARK  Name = 
REMARK  2 active torsions:
REMARK  status: ('A' for Active; 'I' for Inactive)
REMARK    1  A    between atoms: C_1  and  C_2
REMARK    2  A    between atoms: C_7  and  C_8
REMARK                            x       y       z     vdW  Elec       q    Type
REMARK                         _______ _______ _______ _____ _____    ______ ____
ROOT
ATOM      1  C   UNL     1       5.811   3.668  15.643  0.00  0.00    +0.000 C 
ATOM      2  C   UNL     1       5.090   4.761  16.387  0.00  0.00    +0.000 A 
ATOM      3  C   UNL     1       5.474   6.091  16.128  0.00  0.00    +0.000 A 
ATOM      4  C   UNL     1       4.842   7.159  16.758  0.00  0.00    +0.000 A 
ATOM      5  C   UNL     1       3.803   6.917  17.645  0.00  0.00    +0.000 A 
ATOM      6  C   UNL     1       3.420   5.606  17.931  0.00  0.00    +0.000 A 
ATOM      7  C   UNL     1       4.074   4.506  17.338  0.00  0.00    +0.000 A 
ENDROOT
BRANCH   7   8
ATOM      8  C   UNL     1       3.706   3.093  17.780  0.00  0.00    +0.000 C 
ATOM      9  C   UNL     1       3.801   2.902  19.301  0.00  0.00    +0.000 C 
ATOM     10  N   UNL     1       2.474   2.596  19.740  0.00  0.00    +0.000 N 
ATOM     11  C   UNL     1       1.585   2.404  18.715  0.00  0.00    +0.000 C 
ATOM     12  O   UNL     1       0.428   2.051  18.858  0.00  0.00    +0.000 OA
ATOM     13  C   UNL     1       2.277   2.660  17.402  0.00  0.00    +0.000 C 
ATOM     14  H   UNL     1       2.201   2.399  20.695  0.00  0.00    +0.000 HD
ENDBRANCH   7   8
TORSDOF 1
ENDMDL
