MODEL 1
REMARK VINA RESULT:      -8.9      0.000      0.000
REMARK  Name = 
REMARK  4 active torsions:
REMARK  status: ('A' for Active; 'I' for Inactive)
REMARK    1  A    between atoms: C_2  and  C_3
REMARK    2  A    between atoms: C_3  and  C_4
REMARK    3  A    between atoms: C_11  and  C_12
REMARK    4  A    between atoms: C_15  and  N_16
REMARK                            x       y       z     vdW  Elec       q    Type
REMARK                         _______ _______ _______ _____ _____    ______ ____
ROOT
ATOM      1  C   UNL     1       1.585   8.488  19.391  0.00  0.00    +0.000 A 
ATOM      2  C   UNL     1       1.033   9.448  18.528  0.00  0.00    +0.000 A 
ATOM      3  C   UNL     1       0.123  10.408  18.986  0.00  0.00    +0.000 A 
ATOM      4  C   UNL     1      -0.281  10.418  20.318  0.00  0.00    +0.000 A 
ATOM      5  C   UNL     1       0.250   9.463  21.188  0.00  0.00    +0.000 A 
ATOM      6  C   UNL     1       1.163   8.502  20.727  0.00  0.00    +0.000 A 
ENDROOT
BRANCH   4   7
ATOM      7  N   UNL     1      -1.189  11.367  20.838  0.00  0.00    +0.000 N 
ATOM      8  C   UNL     1      -0.881  12.430  21.657  0.00  0.00    +0.000 C 
ATOM      9  O   UNL     1       0.252  12.796  21.957  0.00  0.00    +0.000 OA
ATOM     10  N   UNL     1      -1.980  13.119  22.119  0.00  0.00    +0.000 N 
ATOM     11  C   UNL     1      -1.778  14.347  22.884  0.00  0.00    +0.000 C 
ATOM     12  C   UNL     1      -3.164  14.735  23.276  0.00  0.00    +0.000 A 
ATOM     13  C   UNL     1      -3.600  15.864  23.939  0.00  0.00    +0.000 A 
ATOM     14  C   UNL     1      -4.962  15.947  24.184  0.00  0.00    +0.000 A 
ATOM     15  N   UNL     1      -5.869  14.999  23.820  0.00  0.00    +0.000 NA
ATOM     16  C   UNL     1      -5.403  13.906  23.174  0.00  0.00    +0.000 A 
ATOM     17  C   UNL     1      -4.069  13.750  22.881  0.00  0.00    +0.000 A 
ATOM     18  C   UNL     1      -3.364  12.642  22.181  0.00  0.00    +0.000 C 
ATOM     19  H   UNL     1      -2.078  11.425  20.368  0.00  0.00    +0.000 HD
ENDBRANCH   4   7
BRANCH   1  25
ATOM     20  O   UNL     1       6.173   4.074  18.727  0.00  0.00    +0.000 OA
ATOM     21  C   UNL     1       5.898   5.031  18.003  0.00  0.00    +0.000 C 
ATOM     22  N   UNL     1       4.728   5.777  18.155  0.00  0.00    +0.000 N 
ATOM     23  C   UNL     1       4.378   6.857  17.245  0.00  0.00    +0.000 C 
ATOM     24  C   UNL     1       3.302   7.736  17.790  0.00  0.00    +0.000 C 
ATOM     25  C   UNL     1       2.583   7.503  18.905  0.00  0.00    +0.000 C 
ATOM     26  C   UNL     1       2.843   6.253  19.712  0.00  0.00    +0.000 C 
ATOM     27  C   UNL     1       3.637   5.198  18.934  0.00  0.00    +0.000 C 
BRANCH  21  28
ATOM     28  C   UNL     1       6.803   5.435  16.848  0.00  0.00    +0.000 C 
BRANCH  28  29
ATOM     29  C   UNL     1       6.880   4.421  15.715  0.00  0.00    +0.000 C 
ATOM     30  C   UNL     1       5.509   3.903  15.202  0.00  0.00    +0.000 C 
ATOM     31  C   UNL     1       6.122   3.914  13.787  0.00  0.00    +0.000 C 
ATOM     32  C   UNL     1       7.089   5.004  14.292  0.00  0.00    +0.000 C 
ENDBRANCH  28  29
ENDBRANCH  21  28
ENDBRANCH   1  25
TORSDOF 4
ENDMDL
MODEL 2
REMARK VINA RESULT:      -8.7      1.250      2.003
REMARK  Name = 
REMARK  4 active torsions:
REMARK  status: ('A' for Active; 'I' for Inactive)
REMARK    1  A    between atoms: C_2  and  C_3
REMARK    2  A    between atoms: C_3  and  C_4
REMARK    3  A    between atoms: C_11  and  C_12
REMARK    4  A    between atoms: C_15  and  N_16
REMARK                            x       y       z     vdW  Elec       q    Type
REMARK                         _______ _______ _______ _____ _____    ______ ____
ROOT
ATOM      1  C   UNL     1       1.320   8.468  20.084  0.00  0.00    +0.000 A 
ATOM      2  C   UNL     1       0.897   8.493  21.423  0.00  0.00    +0.000 A 
ATOM      3  C   UNL     1       0.062   9.506  21.909  0.00  0.00    +0.000 A 
ATOM      4  C   UNL     1      -0.355  10.538  21.074  0.00  0.00    +0.000 A 
ATOM      5  C   UNL     1       0.066  10.536  19.741  0.00  0.00    +0.000 A 
ATOM      6  C   UNL     1       0.903   9.519  19.256  0.00  0.00    +0.000 A 
ENDROOT
BRANCH   4   7
ATOM      7  N   UNL     1      -1.203  11.582  21.507  0.00  0.00    +0.000 N 
ATOM      8  C   UNL     1      -0.821  12.714  22.193  0.00  0.00    +0.000 C 
ATOM      9  O   UNL     1       0.336  13.055  22.422  0.00  0.00    +0.000 OA
ATOM     10  N   UNL     1      -1.873  13.503  22.602  0.00  0.00    +0.000 N 
ATOM     11  C   UNL     1      -1.591  14.797  23.218  0.00  0.00    +0.000 C 
ATOM     12  C   UNL     1      -2.946  15.294  23.598  0.00  0.00    +0.000 A 
ATOM     13  C   UNL     1      -3.309  16.510  24.141  0.00  0.00    +0.000 A 
ATOM     14  C   UNL     1      -4.657  16.686  24.409  0.00  0.00    +0.000 A 
ATOM     15  N   UNL     1      -5.617  15.750  24.177  0.00  0.00    +0.000 NA
ATOM     16  C   UNL     1      -5.222  14.570  23.646  0.00  0.00    +0.000 A 
ATOM     17  C   UNL     1      -3.906  14.317  23.340  0.00  0.00    +0.000 A 
ATOM     18  C   UNL     1      -3.275  13.104  22.752  0.00  0.00    +0.000 C 
ATOM     19  H   UNL     1      -2.101  11.631  21.056  0.00  0.00    +0.000 HD
ENDBRANCH   4   7
BRANCH   1  25
ATOM     20  O   UNL     1       5.356   3.568  19.269  0.00  0.00    +0.000 OA
ATOM     21  C   UNL     1       5.127   4.524  18.528  0.00  0.00    +0.000 C 
ATOM     22  N   UNL     1       4.057   5.396  18.734  0.00  0.00    +0.000 N 
ATOM     23  C   UNL     1       3.752   6.477  17.808  0.00  0.00    +0.000 C 
ATOM     24  C   UNL     1       2.819   7.484  18.393  0.00  0.00    +0.000 C 
ATOM     25  C   UNL     1       2.168   7.366  19.567  0.00  0.00    +0.000 C 
ATOM     26  C   UNL     1       2.359   6.124  20.404  0.00  0.00    +0.000 C 
ATOM     27  C   UNL     1       2.975   4.964  19.615  0.00  0.00    +0.000 C 
BRANCH  21  28
ATOM     28  C   UNL     1       5.977   4.790  17.293  0.00  0.00    +0.000 C 
BRANCH  28  29
ATOM     29  C   UNL     1       7.279   5.529  17.564  0.00  0.00    +0.000 C 
ATOM     30  C   UNL     1       7.229   7.062  17.322  0.00  0.00    +0.000 C 
ATOM     31  C   UNL     1       8.147   7.209  18.552  0.00  0.00    +0.000 C 
ATOM     32  C   UNL     1       7.575   5.866  19.050  0.00  0.00    +0.000 C 
ENDBRANCH  28  29
ENDBRANCH  21  28
ENDBRANCH   1  25
TORSDOF 4
ENDMDL
MODEL 3
REMARK VINA RESULT:      -8.6      1.284      1.841
REMARK  Name = 
REMARK  4 active torsions:
REMARK  status: ('A' for Active; 'I' for Inactive)
REMARK    1  A    between atoms: C_2  and  C_3
REMARK    2  A    between atoms: C_3  and  C_4
REMARK    3  A    between atoms: C_11  and  C_12
REMARK    4  A    between atoms: C_15  and  N_16
REMARK                            x       y       z     vdW  Elec       q    Type
REMARK                         _______ _______ _______ _____ _____    ______ ____
ROOT
ATOM      1  C   UNL     1       1.320   8.432  19.733  0.00  0.00    +0.000 A 
ATOM      2  C   UNL     1       1.065   9.518  18.880  0.00  0.00    +0.000 A 
ATOM      3  C   UNL     1       0.250  10.586  19.275  0.00  0.00    +0.000 A 
ATOM      4  C   UNL     1      -0.355  10.584  20.528  0.00  0.00    +0.000 A 
ATOM      5  C   UNL     1      -0.123   9.505  21.385  0.00  0.00    +0.000 A 
ATOM      6  C   UNL     1       0.695   8.437  20.987  0.00  0.00    +0.000 A 
ENDROOT
BRANCH   4   7
ATOM      7  N   UNL     1      -1.181  11.635  20.984  0.00  0.00    +0.000 N 
ATOM      8  C   UNL     1      -1.225  12.144  22.263  0.00  0.00    +0.000 C 
ATOM      9  O   UNL     1      -0.459  11.849  23.177  0.00  0.00    +0.000 OA
ATOM     10  N   UNL     1      -2.214  13.081  22.460  0.00  0.00    +0.000 N 
ATOM     11  C   UNL     1      -2.274  13.793  23.735  0.00  0.00    +0.000 C 
ATOM     12  C   UNL     1      -3.503  14.628  23.600  0.00  0.00    +0.000 A 
ATOM     13  C   UNL     1      -4.014  15.575  24.464  0.00  0.00    +0.000 A 
ATOM     14  C   UNL     1      -5.196  16.187  24.078  0.00  0.00    +0.000 A 
ATOM     15  N   UNL     1      -5.866  15.910  22.926  0.00  0.00    +0.000 NA
ATOM     16  C   UNL     1      -5.334  14.974  22.105  0.00  0.00    +0.000 A 
ATOM     17  C   UNL     1      -4.160  14.328  22.407  0.00  0.00    +0.000 A 
ATOM     18  C   UNL     1      -3.415  13.288  21.646  0.00  0.00    +0.000 C 
ATOM     19  H   UNL     1      -1.571  12.227  20.269  0.00  0.00    +0.000 HD
ENDBRANCH   4   7
BRANCH   1  25
ATOM     20  O   UNL     1       5.525   3.620  19.390  0.00  0.00    +0.000 OA
ATOM     21  C   UNL     1       5.301   4.521  18.582  0.00  0.00    +0.000 C 
ATOM     22  N   UNL     1       4.199   5.370  18.689  0.00  0.00    +0.000 N 
ATOM     23  C   UNL     1       3.903   6.382  17.687  0.00  0.00    +0.000 C 
ATOM     24  C   UNL     1       2.917   7.393  18.169  0.00  0.00    +0.000 C 
ATOM     25  C   UNL     1       2.221   7.327  19.321  0.00  0.00    +0.000 C 
ATOM     26  C   UNL     1       2.411   6.145  20.240  0.00  0.00    +0.000 C 
ATOM     27  C   UNL     1       3.093   4.959  19.551  0.00  0.00    +0.000 C 
BRANCH  21  28
ATOM     28  C   UNL     1       6.196   4.737  17.369  0.00  0.00    +0.000 C 
BRANCH  28  29
ATOM     29  C   UNL     1       7.453   5.549  17.643  0.00  0.00    +0.000 C 
ATOM     30  C   UNL     1       7.342   7.064  17.324  0.00  0.00    +0.000 C 
ATOM     31  C   UNL     1       8.212   7.313  18.572  0.00  0.00    +0.000 C 
ATOM     32  C   UNL     1       7.685   5.970  19.118  0.00  0.00    +0.000 C 
ENDBRANCH  28  29
ENDBRANCH  21  28
ENDBRANCH   1  25
TORSDOF 4
ENDMDL
MODEL 4
REMARK VINA RESULT:      -8.6      0.958      1.305
REMARK  Name = 
REMARK  4 active torsions:
REMARK  status: ('A' for Active; 'I' for Inactive)
REMARK    1  A    between atoms: C_2  and  C_3
REMARK    2  A    between atoms: C_3  and  C_4
REMARK    3  A    between atoms: C_11  and  C_12
REMARK    4  A    between atoms: C_15  and  N_16
REMARK                            x       y       z     vdW  Elec       q    Type
REMARK                         _______ _______ _______ _____ _____    ______ ____
ROOT
ATOM      1  C   UNL     1       1.505   8.644  19.147  0.00  0.00    +0.000 A 
ATOM      2  C   UNL     1       1.024   8.745  20.463  0.00  0.00    +0.000 A 
ATOM      3  C   UNL     1       0.039   9.675  20.814  0.00  0.00    +0.000 A 
ATOM      4  C   UNL     1      -0.476  10.550  19.861  0.00  0.00    +0.000 A 
ATOM      5  C   UNL     1      -0.001  10.471  18.550  0.00  0.00    +0.000 A 
ATOM      6  C   UNL     1       0.987   9.538  18.200  0.00  0.00    +0.000 A 
ENDROOT
BRANCH   4   7
ATOM      7  N   UNL     1      -1.476  11.504  20.155  0.00  0.00    +0.000 N 
ATOM      8  C   UNL     1      -1.479  12.385  21.214  0.00  0.00    +0.000 C 
ATOM      9  O   UNL     1      -0.548  12.568  21.994  0.00  0.00    +0.000 OA
ATOM     10  N   UNL     1      -2.640  13.115  21.332  0.00  0.00    +0.000 N 
ATOM     11  C   UNL     1      -2.711  14.179  22.332  0.00  0.00    +0.000 C 
ATOM     12  C   UNL     1      -4.120  14.657  22.219  0.00  0.00    +0.000 A 
ATOM     13  C   UNL     1      -4.737  15.712  22.860  0.00  0.00    +0.000 A 
ATOM     14  C   UNL     1      -6.077  15.911  22.567  0.00  0.00    +0.000 A 
ATOM     15  N   UNL     1      -6.800  15.141  21.708  0.00  0.00    +0.000 NA
ATOM     16  C   UNL     1      -6.160  14.116  21.100  0.00  0.00    +0.000 A 
ATOM     17  C   UNL     1      -4.830  13.855  21.326  0.00  0.00    +0.000 A 
ATOM     18  C   UNL     1      -3.951  12.795  20.761  0.00  0.00    +0.000 C 
ATOM     19  H   UNL     1      -2.096  11.735  19.397  0.00  0.00    +0.000 HD
ENDBRANCH   4   7
BRANCH   1  25
ATOM     20  O   UNL     1       6.052   4.142  19.001  0.00  0.00    +0.000 OA
ATOM     21  C   UNL     1       5.844   5.069  18.218  0.00  0.00    +0.000 C 
ATOM     22  N   UNL     1       4.680   5.837  18.254  0.00  0.00    +0.000 N 
ATOM     23  C   UNL     1       4.411   6.879  17.275  0.00  0.00    +0.000 C 
ATOM     24  C   UNL     1       3.315   7.797  17.704  0.00  0.00    +0.000 C 
ATOM     25  C   UNL     1       2.517   7.624  18.776  0.00  0.00    +0.000 C 
ATOM     26  C   UNL     1       2.700   6.409  19.654  0.00  0.00    +0.000 C 
ATOM     27  C   UNL     1       3.528   5.309  18.981  0.00  0.00    +0.000 C 
BRANCH  21  28
ATOM     28  C   UNL     1       6.834   5.407  17.111  0.00  0.00    +0.000 C 
BRANCH  28  29
ATOM     29  C   UNL     1       6.893   4.392  15.979  0.00  0.00    +0.000 C 
ATOM     30  C   UNL     1       5.518   3.847  15.510  0.00  0.00    +0.000 C 
ATOM     31  C   UNL     1       6.086   3.865  14.076  0.00  0.00    +0.000 C 
ATOM     32  C   UNL     1       7.049   4.973  14.549  0.00  0.00    +0.000 C 
ENDBRANCH  28  29
ENDBRANCH  21  28
ENDBRANCH   1  25
TORSDOF 4
ENDMDL
MODEL 5
REMARK VINA RESULT:      -8.6      1.445      1.923
REMARK  Name = 
REMARK  4 active torsions:
REMARK  status: ('A' for Active; 'I' for Inactive)
REMARK    1  A    between atoms: C_2  and  C_3
REMARK    2  A    between atoms: C_3  and  C_4
REMARK    3  A    between atoms: C_11  and  C_12
REMARK    4  A    between atoms: C_15  and  N_16
REMARK                            x       y       z     vdW  Elec       q    Type
REMARK                         _______ _______ _______ _____ _____    ______ ____
ROOT
ATOM      1  C   UNL     1       2.741   7.703  18.586  0.00  0.00    +0.000 A 
ATOM      2  C   UNL     1       2.243   8.855  17.955  0.00  0.00    +0.000 A 
ATOM      3  C   UNL     1       1.364   9.727  18.609  0.00  0.00    +0.000 A 
ATOM      4  C   UNL     1       0.938   9.457  19.906  0.00  0.00    +0.000 A 
ATOM      5  C   UNL     1       1.415   8.309  20.545  0.00  0.00    +0.000 A 
ATOM      6  C   UNL     1       2.296   7.437  19.888  0.00  0.00    +0.000 A 
ENDROOT
BRANCH   4   7
ATOM      7  N   UNL     1       0.059  10.304  20.618  0.00  0.00    +0.000 N 
ATOM      8  C   UNL     1       0.377  11.516  21.191  0.00  0.00    +0.000 C 
ATOM      9  O   UNL     1       1.443  12.111  21.059  0.00  0.00    +0.000 OA
ATOM     10  N   UNL     1      -0.642  12.068  21.934  0.00  0.00    +0.000 N 
ATOM     11  C   UNL     1      -0.474  13.414  22.477  0.00  0.00    +0.000 C 
ATOM     12  C   UNL     1      -1.717  13.614  23.278  0.00  0.00    +0.000 A 
ATOM     13  C   UNL     1      -2.152  14.739  23.949  0.00  0.00    +0.000 A 
ATOM     14  C   UNL     1      -3.353  14.624  24.630  0.00  0.00    +0.000 A 
ATOM     15  N   UNL     1      -4.107  13.491  24.676  0.00  0.00    +0.000 NA
ATOM     16  C   UNL     1      -3.647  12.409  24.007  0.00  0.00    +0.000 A 
ATOM     17  C   UNL     1      -2.471  12.441  23.298  0.00  0.00    +0.000 A 
ATOM     18  C   UNL     1      -1.803  11.376  22.500  0.00  0.00    +0.000 C 
ATOM     19  H   UNL     1      -0.922  10.138  20.472  0.00  0.00    +0.000 HD
ENDBRANCH   4   7
BRANCH   1  25
ATOM     20  O   UNL     1       7.745   4.135  16.799  0.00  0.00    +0.000 OA
ATOM     21  C   UNL     1       6.968   4.794  16.108  0.00  0.00    +0.000 C 
ATOM     22  N   UNL     1       5.788   5.340  16.615  0.00  0.00    +0.000 N 
ATOM     23  C   UNL     1       4.840   6.051  15.771  0.00  0.00    +0.000 C 
ATOM     24  C   UNL     1       3.856   6.847  16.562  0.00  0.00    +0.000 C 
ATOM     25  C   UNL     1       3.707   6.809  17.900  0.00  0.00    +0.000 C 
ATOM     26  C   UNL     1       4.582   5.895  18.723  0.00  0.00    +0.000 C 
ATOM     27  C   UNL     1       5.275   4.819  17.880  0.00  0.00    +0.000 C 
BRANCH  21  28
ATOM     28  C   UNL     1       7.221   5.013  14.622  0.00  0.00    +0.000 C 
BRANCH  28  29
ATOM     29  C   UNL     1       6.812   3.851  13.729  0.00  0.00    +0.000 C 
ATOM     30  C   UNL     1       5.304   3.799  13.365  0.00  0.00    +0.000 C 
ATOM     31  C   UNL     1       5.737   3.310  11.968  0.00  0.00    +0.000 C 
ATOM     32  C   UNL     1       7.079   4.031  12.211  0.00  0.00    +0.000 C 
ENDBRANCH  28  29
ENDBRANCH  21  28
ENDBRANCH   1  25
TORSDOF 4
ENDMDL
MODEL 6
REMARK VINA RESULT:      -8.5      1.764      2.758
REMARK  Name = 
REMARK  4 active torsions:
REMARK  status: ('A' for Active; 'I' for Inactive)
REMARK    1  A    between atoms: C_2  and  C_3
REMARK    2  A    between atoms: C_3  and  C_4
REMARK    3  A    between atoms: C_11  and  C_12
REMARK    4  A    between atoms: C_15  and  N_16
REMARK                            x       y       z     vdW  Elec       q    Type
REMARK                         _______ _______ _______ _____ _____    ______ ____
ROOT
ATOM      1  C   UNL     1       3.088   7.593  18.188  0.00  0.00    +0.000 A 
ATOM      2  C   UNL     1       2.591   8.770  17.606  0.00  0.00    +0.000 A 
ATOM      3  C   UNL     1       1.691   9.600  18.285  0.00  0.00    +0.000 A 
ATOM      4  C   UNL     1       1.243   9.261  19.559  0.00  0.00    +0.000 A 
ATOM      5  C   UNL     1       1.720   8.087  20.149  0.00  0.00    +0.000 A 
ATOM      6  C   UNL     1       2.622   7.257  19.466  0.00  0.00    +0.000 A 
ENDROOT
BRANCH   4   7
ATOM      7  N   UNL     1       0.342  10.062  20.295  0.00  0.00    +0.000 N 
ATOM      8  C   UNL     1       0.584  11.328  20.782  0.00  0.00    +0.000 C 
ATOM      9  O   UNL     1       1.576  12.010  20.538  0.00  0.00    +0.000 OA
ATOM     10  N   UNL     1      -0.425  11.826  21.575  0.00  0.00    +0.000 N 
ATOM     11  C   UNL     1      -0.347  13.210  22.036  0.00  0.00    +0.000 C 
ATOM     12  C   UNL     1      -1.542  13.341  22.922  0.00  0.00    +0.000 A 
ATOM     13  C   UNL     1      -2.031  14.457  23.569  0.00  0.00    +0.000 A 
ATOM     14  C   UNL     1      -3.162  14.271  24.347  0.00  0.00    +0.000 A 
ATOM     15  N   UNL     1      -3.799  13.078  24.507  0.00  0.00    +0.000 NA
ATOM     16  C   UNL     1      -3.289  12.006  23.858  0.00  0.00    +0.000 A 
ATOM     17  C   UNL     1      -2.176  12.106  23.057  0.00  0.00    +0.000 A 
ATOM     18  C   UNL     1      -1.471  11.064  22.263  0.00  0.00    +0.000 C 
ATOM     19  H   UNL     1      -0.627   9.799  20.235  0.00  0.00    +0.000 HD
ENDBRANCH   4   7
BRANCH   1  25
ATOM     20  O   UNL     1       7.780   5.212  14.544  0.00  0.00    +0.000 OA
ATOM     21  C   UNL     1       6.692   4.718  14.838  0.00  0.00    +0.000 C 
ATOM     22  N   UNL     1       5.865   5.255  15.825  0.00  0.00    +0.000 N 
ATOM     23  C   UNL     1       4.617   4.619  16.217  0.00  0.00    +0.000 C 
ATOM     24  C   UNL     1       3.735   5.529  17.006  0.00  0.00    +0.000 C 
ATOM     25  C   UNL     1       4.076   6.744  17.476  0.00  0.00    +0.000 C 
ATOM     26  C   UNL     1       5.464   7.281  17.218  0.00  0.00    +0.000 C 
ATOM     27  C   UNL     1       6.450   6.193  16.780  0.00  0.00    +0.000 C 
BRANCH  21  28
ATOM     28  C   UNL     1       6.196   3.441  14.173  0.00  0.00    +0.000 C 
BRANCH  28  29
ATOM     29  C   UNL     1       5.918   3.568  12.682  0.00  0.00    +0.000 C 
ATOM     30  C   UNL     1       5.965   2.235  11.888  0.00  0.00    +0.000 C 
ATOM     31  C   UNL     1       4.786   2.778  11.055  0.00  0.00    +0.000 C 
ATOM     32  C   UNL     1       4.423   3.653  12.273  0.00  0.00    +0.000 C 
ENDBRANCH  28  29
ENDBRANCH  21  28
ENDBRANCH   1  25
TORSDOF 4
ENDMDL
MODEL 7
REMARK VINA RESULT:      -8.4      1.077      1.077
REMARK  Name = 
REMARK  4 active torsions:
REMARK  status: ('A' for Active; 'I' for Inactive)
REMARK    1  A    between atoms: C_2  and  C_3
REMARK    2  A    between atoms: C_3  and  C_4
REMARK    3  A    between atoms: C_11  and  C_12
REMARK    4  A    between atoms: C_15  and  N_16
REMARK                            x       y       z     vdW  Elec       q    Type
REMARK                         _______ _______ _______ _____ _____    ______ ____
ROOT
ATOM      1  C   UNL     1       1.529   8.575  19.009  0.00  0.00    +0.000 A 
ATOM      2  C   UNL     1       0.918   9.324  17.990  0.00  0.00    +0.000 A 
ATOM      3  C   UNL     1      -0.033  10.310  18.275  0.00  0.00    +0.000 A 
ATOM      4  C   UNL     1      -0.420  10.558  19.589  0.00  0.00    +0.000 A 
ATOM      5  C   UNL     1       0.170   9.814  20.615  0.00  0.00    +0.000 A 
ATOM      6  C   UNL     1       1.124   8.826  20.327  0.00  0.00    +0.000 A 
ENDROOT
BRANCH   4   7
ATOM      7  N   UNL     1      -1.369  11.545  19.938  0.00  0.00    +0.000 N 
ATOM      8  C   UNL     1      -1.099  12.845  20.304  0.00  0.00    +0.000 C 
ATOM      9  O   UNL     1       0.002  13.387  20.257  0.00  0.00    +0.000 OA
ATOM     10  N   UNL     1      -2.205  13.553  20.716  0.00  0.00    +0.000 N 
ATOM     11  C   UNL     1      -2.071  14.980  20.997  0.00  0.00    +0.000 C 
ATOM     12  C   UNL     1      -3.426  15.358  21.494  0.00  0.00    +0.000 A 
ATOM     13  C   UNL     1      -3.917  16.603  21.831  0.00  0.00    +0.000 A 
ATOM     14  C   UNL     1      -5.226  16.647  22.283  0.00  0.00    +0.000 A 
ATOM     15  N   UNL     1      -6.032  15.558  22.415  0.00  0.00    +0.000 NA
ATOM     16  C   UNL     1      -5.515  14.354  22.077  0.00  0.00    +0.000 A 
ATOM     17  C   UNL     1      -4.229  14.223  21.608  0.00  0.00    +0.000 A 
ATOM     18  C   UNL     1      -3.484  13.008  21.182  0.00  0.00    +0.000 C 
ATOM     19  H   UNL     1      -2.315  11.364  19.647  0.00  0.00    +0.000 HD
ENDBRANCH   4   7
BRANCH   1  25
ATOM     20  O   UNL     1       6.133   4.130  19.134  0.00  0.00    +0.000 OA
ATOM     21  C   UNL     1       5.949   5.043  18.329  0.00  0.00    +0.000 C 
ATOM     22  N   UNL     1       4.774   5.796  18.301  0.00  0.00    +0.000 N 
ATOM     23  C   UNL     1       4.538   6.821  17.296  0.00  0.00    +0.000 C 
ATOM     24  C   UNL     1       3.412   7.730  17.661  0.00  0.00    +0.000 C 
ATOM     25  C   UNL     1       2.570   7.563  18.699  0.00  0.00    +0.000 C 
ATOM     26  C   UNL     1       2.728   6.364  19.602  0.00  0.00    +0.000 C 
ATOM     27  C   UNL     1       3.598   5.265  18.984  0.00  0.00    +0.000 C 
BRANCH  21  28
ATOM     28  C   UNL     1       6.983   5.377  17.262  0.00  0.00    +0.000 C 
BRANCH  28  29
ATOM     29  C   UNL     1       7.050   4.387  16.109  0.00  0.00    +0.000 C 
ATOM     30  C   UNL     1       5.695   3.741  15.715  0.00  0.00    +0.000 C 
ATOM     31  C   UNL     1       6.167   3.825  14.250  0.00  0.00    +0.000 C 
ATOM     32  C   UNL     1       7.067   5.000  14.684  0.00  0.00    +0.000 C 
ENDBRANCH  28  29
ENDBRANCH  21  28
ENDBRANCH   1  25
TORSDOF 4
ENDMDL
MODEL 8
REMARK VINA RESULT:      -8.3      1.801      2.881
REMARK  Name = 
REMARK  4 active torsions:
REMARK  status: ('A' for Active; 'I' for Inactive)
REMARK    1  A    between atoms: C_2  and  C_3
REMARK    2  A    between atoms: C_3  and  C_4
REMARK    3  A    between atoms: C_11  and  C_12
REMARK    4  A    between atoms: C_15  and  N_16
REMARK                            x       y       z     vdW  Elec       q    Type
REMARK                         _______ _______ _______ _____ _____    ______ ____
ROOT
ATOM      1  C   UNL     1       1.142   8.957  19.981  0.00  0.00    +0.000 A 
ATOM      2  C   UNL     1       0.666   8.896  21.300  0.00  0.00    +0.000 A 
ATOM      3  C   UNL     1      -0.217   9.858  21.806  0.00  0.00    +0.000 A 
ATOM      4  C   UNL     1      -0.629  10.923  21.011  0.00  0.00    +0.000 A 
ATOM      5  C   UNL     1      -0.156  11.006  19.699  0.00  0.00    +0.000 A 
ATOM      6  C   UNL     1       0.729  10.041  19.194  0.00  0.00    +0.000 A 
ENDROOT
BRANCH   4   7
ATOM      7  N   UNL     1      -1.524  11.919  21.464  0.00  0.00    +0.000 N 
ATOM      8  C   UNL     1      -1.276  12.856  22.443  0.00  0.00    +0.000 C 
ATOM      9  O   UNL     1      -0.191  13.056  22.983  0.00  0.00    +0.000 OA
ATOM     10  N   UNL     1      -2.370  13.623  22.775  0.00  0.00    +0.000 N 
ATOM     11  C   UNL     1      -2.199  14.741  23.700  0.00  0.00    +0.000 C 
ATOM     12  C   UNL     1      -3.590  15.251  23.877  0.00  0.00    +0.000 A 
ATOM     13  C   UNL     1      -4.032  16.355  24.576  0.00  0.00    +0.000 A 
ATOM     14  C   UNL     1      -5.401  16.575  24.579  0.00  0.00    +0.000 A 
ATOM     15  N   UNL     1      -6.309  15.779  23.950  0.00  0.00    +0.000 NA
ATOM     16  C   UNL     1      -5.838  14.705  23.277  0.00  0.00    +0.000 A 
ATOM     17  C   UNL     1      -4.494  14.421  23.214  0.00  0.00    +0.000 A 
ATOM     18  C   UNL     1      -3.780  13.309  22.530  0.00  0.00    +0.000 C 
ATOM     19  H   UNL     1      -2.295  12.126  20.852  0.00  0.00    +0.000 HD
ENDBRANCH   4   7
BRANCH   1  25
ATOM     20  O   UNL     1       4.370   4.764  16.380  0.00  0.00    +0.000 OA
ATOM     21  C   UNL     1       3.994   4.665  17.547  0.00  0.00    +0.000 C 
ATOM     22  N   UNL     1       3.497   5.749  18.272  0.00  0.00    +0.000 N 
ATOM     23  C   UNL     1       3.127   5.636  19.675  0.00  0.00    +0.000 C 
ATOM     24  C   UNL     1       2.299   6.787  20.142  0.00  0.00    +0.000 C 
ATOM     25  C   UNL     1       2.043   7.908  19.441  0.00  0.00    +0.000 C 
ATOM     26  C   UNL     1       2.623   8.071  18.056  0.00  0.00    +0.000 C 
ATOM     27  C   UNL     1       3.769   7.095  17.774  0.00  0.00    +0.000 C 
BRANCH  21  28
ATOM     28  C   UNL     1       4.096   3.347  18.302  0.00  0.00    +0.000 C 
BRANCH  28  29
ATOM     29  C   UNL     1       2.858   2.466  18.214  0.00  0.00    +0.000 C 
ATOM     30  C   UNL     1       2.177   2.149  19.572  0.00  0.00    +0.000 C 
ATOM     31  C   UNL     1       0.828   2.259  18.833  0.00  0.00    +0.000 C 
ATOM     32  C   UNL     1       1.538   3.182  17.823  0.00  0.00    +0.000 C 
ENDBRANCH  28  29
ENDBRANCH  21  28
ENDBRANCH   1  25
TORSDOF 4
ENDMDL
MODEL 9
REMARK VINA RESULT:      -8.3      1.778      2.481
REMARK  Name = 
REMARK  4 active torsions:
REMARK  status: ('A' for Active; 'I' for Inactive)
REMARK    1  A    between atoms: C_2  and  C_3
REMARK    2  A    between atoms: C_3  and  C_4
REMARK    3  A    between atoms: C_11  and  C_12
REMARK    4  A    between atoms: C_15  and  N_16
REMARK                            x       y       z     vdW  Elec       q    Type
REMARK                         _______ _______ _______ _____ _____    ______ ____
ROOT
ATOM      1  C   UNL     1       1.172   8.533  20.611  0.00  0.00    +0.000 A 
ATOM      2  C   UNL     1       1.119   9.802  20.012  0.00  0.00    +0.000 A 
ATOM      3  C   UNL     1       0.504  10.887  20.646  0.00  0.00    +0.000 A 
ATOM      4  C   UNL     1      -0.099  10.727  21.890  0.00  0.00    +0.000 A 
ATOM      5  C   UNL     1      -0.066   9.469  22.497  0.00  0.00    +0.000 A 
ATOM      6  C   UNL     1       0.551   8.382  21.859  0.00  0.00    +0.000 A 
ENDROOT
BRANCH   4   7
ATOM      7  N   UNL     1      -0.728  11.787  22.581  0.00  0.00    +0.000 N 
ATOM      8  C   UNL     1      -1.903  12.411  22.226  0.00  0.00    +0.000 C 
ATOM      9  O   UNL     1      -2.657  12.056  21.323  0.00  0.00    +0.000 OA
ATOM     10  N   UNL     1      -2.219  13.499  23.008  0.00  0.00    +0.000 N 
ATOM     11  C   UNL     1      -3.508  14.160  22.817  0.00  0.00    +0.000 C 
ATOM     12  C   UNL     1      -3.439  15.317  23.757  0.00  0.00    +0.000 A 
ATOM     13  C   UNL     1      -4.410  16.246  24.070  0.00  0.00    +0.000 A 
ATOM     14  C   UNL     1      -4.049  17.231  24.976  0.00  0.00    +0.000 A 
ATOM     15  N   UNL     1      -2.822  17.332  25.556  0.00  0.00    +0.000 NA
ATOM     16  C   UNL     1      -1.896  16.404  25.222  0.00  0.00    +0.000 A 
ATOM     17  C   UNL     1      -2.174  15.387  24.341  0.00  0.00    +0.000 A 
ATOM     18  C   UNL     1      -1.310  14.278  23.854  0.00  0.00    +0.000 C 
ATOM     19  H   UNL     1      -0.439  11.919  23.537  0.00  0.00    +0.000 HD
ENDBRANCH   4   7
BRANCH   1  25
ATOM     20  O   UNL     1       4.484   3.258  19.138  0.00  0.00    +0.000 OA
ATOM     21  C   UNL     1       4.409   4.328  18.535  0.00  0.00    +0.000 C 
ATOM     22  N   UNL     1       3.470   5.309  18.857  0.00  0.00    +0.000 N 
ATOM     23  C   UNL     1       3.342   6.537  18.087  0.00  0.00    +0.000 C 
ATOM     24  C   UNL     1       2.549   7.580  18.803  0.00  0.00    +0.000 C 
ATOM     25  C   UNL     1       1.865   7.400  19.950  0.00  0.00    +0.000 C 
ATOM     26  C   UNL     1       1.860   6.041  20.610  0.00  0.00    +0.000 C 
ATOM     27  C   UNL     1       2.320   4.923  19.670  0.00  0.00    +0.000 C 
BRANCH  21  28
ATOM     28  C   UNL     1       5.314   4.632  17.348  0.00  0.00    +0.000 C 
BRANCH  28  29
ATOM     29  C   UNL     1       6.734   5.035  17.718  0.00  0.00    +0.000 C 
ATOM     30  C   UNL     1       7.170   6.441  17.225  0.00  0.00    +0.000 C 
ATOM     31  C   UNL     1       7.936   6.585  18.555  0.00  0.00    +0.000 C 
ATOM     32  C   UNL     1       6.936   5.577  19.157  0.00  0.00    +0.000 C 
ENDBRANCH  28  29
ENDBRANCH  21  28
ENDBRANCH   1  25
TORSDOF 4
ENDMDL
