MODEL 1
REMARK VINA RESULT:      -6.5      0.000      0.000
REMARK  Name = 
REMARK  10 active torsions:
REMARK  status: ('A' for Active; 'I' for Inactive)
REMARK    1  A    between atoms: C_1  and  C_2
REMARK    2  A    between atoms: C_2  and  C_4
REMARK    3  A    between atoms: C_5  and  O_6
REMARK    4  A    between atoms: C_11  and  C_12
REMARK    5  A    between atoms: C_12  and  C_13
REMARK    6  A    between atoms: C_15  and  O_16
REMARK    7  A    between atoms: C_17  and  C_18
REMARK    8  A    between atoms: C_19  and  O_20
REMARK    9  A    between atoms: C_22  and  C_23
REMARK   10  A    between atoms: C_24  and  O_25
REMARK                            x       y       z     vdW  Elec       q    Type
REMARK                         _______ _______ _______ _____ _____    ______ ____
ROOT
ATOM      1  C   UNL     1       0.573  10.567  19.959  0.00  0.00    +0.000 C 
ATOM      2  C   UNL     1       1.047  11.385  18.992  0.00  0.00    +0.000 C 
ATOM      3  C   UNL     1       0.513  12.730  18.930  0.00  0.00    +0.000 C 
ATOM      4  C   UNL     1      -0.829  12.682  18.955  0.00  0.00    +0.000 C 
ATOM      5  O   UNL     1      -1.444  11.926  17.923  0.00  0.00    +0.000 OA
ATOM      6  C   UNL     1      -2.736  11.618  18.316  0.00  0.00    +0.000 A 
ATOM      7  C   UNL     1      -3.732  11.405  17.387  0.00  0.00    +0.000 A 
ATOM      8  C   UNL     1      -5.004  11.898  17.693  0.00  0.00    +0.000 A 
ATOM      9  C   UNL     1      -5.238  12.542  18.927  0.00  0.00    +0.000 A 
ATOM     10  C   UNL     1      -6.497  13.368  19.064  0.00  0.00    +0.000 C 
ATOM     11  C   UNL     1      -4.204  12.549  19.916  0.00  0.00    +0.000 A 
ATOM     12  C   UNL     1      -2.927  12.025  19.648  0.00  0.00    +0.000 A 
ATOM     13  C   UNL     1      -1.532  12.299  20.287  0.00  0.00    +0.000 C 
ATOM     14  C   UNL     1      -1.616  13.412  21.349  0.00  0.00    +0.000 C 
ATOM     15  C   UNL     1      -0.582  11.038  20.878  0.00  0.00    +0.000 C 
ENDROOT
BRANCH   1  17
ATOM     16  C   UNL     1       1.298   8.439  21.272  0.00  0.00    +0.000 C 
ATOM     17  C   UNL     1       1.185   9.209  19.974  0.00  0.00    +0.000 C 
ATOM     18  O   UNL     1       1.721   8.781  18.946  0.00  0.00    +0.000 OA
ENDBRANCH   1  17
BRANCH   7  19
ATOM     19  C   UNL     1      -3.452  10.845  16.041  0.00  0.00    +0.000 C 
ATOM     20  C   UNL     1      -2.864   9.462  15.906  0.00  0.00    +0.000 C 
ATOM     21  O   UNL     1      -3.826  11.480  15.051  0.00  0.00    +0.000 OA
ENDBRANCH   7  19
BRANCH   2  22
ATOM     22  O   UNL     1       1.866  11.042  17.951  0.00  0.00    +0.000 OA
ATOM     23  H   UNL     1       2.789  11.021  18.290  0.00  0.00    +0.000 HD
ENDBRANCH   2  22
BRANCH   8  24
ATOM     24  O   UNL     1      -6.018  11.881  16.777  0.00  0.00    +0.000 OA
ATOM     25  H   UNL     1      -6.699  12.544  17.049  0.00  0.00    +0.000 HD
ENDBRANCH   8  24
BRANCH  11  26
ATOM     26  O   UNL     1      -4.407  13.234  21.080  0.00  0.00    +0.000 OA
ATOM     27  H   UNL     1      -3.588  13.233  21.605  0.00  0.00    +0.000 HD
ENDBRANCH  11  26
BRANCH  15  28
ATOM     28  O   UNL     1       0.019  11.444  22.129  0.00  0.00    +0.000 OA
ATOM     29  H   UNL     1      -0.348  12.289  22.431  0.00  0.00    +0.000 HD
ENDBRANCH  15  28
TORSDOF 6
ENDMDL
MODEL 2
REMARK VINA RESULT:      -6.3      1.335      1.502
REMARK  Name = 
REMARK  10 active torsions:
REMARK  status: ('A' for Active; 'I' for Inactive)
REMARK    1  A    between atoms: C_1  and  C_2
REMARK    2  A    between atoms: C_2  and  C_4
REMARK    3  A    between atoms: C_5  and  O_6
REMARK    4  A    between atoms: C_11  and  C_12
REMARK    5  A    between atoms: C_12  and  C_13
REMARK    6  A    between atoms: C_15  and  O_16
REMARK    7  A    between atoms: C_17  and  C_18
REMARK    8  A    between atoms: C_19  and  O_20
REMARK    9  A    between atoms: C_22  and  C_23
REMARK   10  A    between atoms: C_24  and  O_25
REMARK                            x       y       z     vdW  Elec       q    Type
REMARK                         _______ _______ _______ _____ _____    ______ ____
ROOT
ATOM      1  C   UNL     1      -0.217  11.299  21.491  0.00  0.00    +0.000 C 
ATOM      2  C   UNL     1       0.412  12.006  20.525  0.00  0.00    +0.000 C 
ATOM      3  C   UNL     1      -0.128  13.307  20.186  0.00  0.00    +0.000 C 
ATOM      4  C   UNL     1      -1.450  13.202  19.973  0.00  0.00    +0.000 C 
ATOM      5  O   UNL     1      -1.847  12.292  18.957  0.00  0.00    +0.000 OA
ATOM      6  C   UNL     1      -3.182  11.980  19.146  0.00  0.00    +0.000 A 
ATOM      7  C   UNL     1      -3.983  11.604  18.088  0.00  0.00    +0.000 A 
ATOM      8  C   UNL     1      -5.299  12.075  18.088  0.00  0.00    +0.000 A 
ATOM      9  C   UNL     1      -5.773  12.860  19.160  0.00  0.00    +0.000 A 
ATOM     10  C   UNL     1      -7.052  13.639  18.953  0.00  0.00    +0.000 C 
ATOM     11  C   UNL     1      -4.942  13.041  20.311  0.00  0.00    +0.000 A 
ATOM     12  C   UNL     1      -3.627  12.546  20.353  0.00  0.00    +0.000 A 
ATOM     13  C   UNL     1      -2.381  12.962  21.193  0.00  0.00    +0.000 C 
ATOM     14  C   UNL     1      -2.686  14.197  22.062  0.00  0.00    +0.000 C 
ATOM     15  C   UNL     1      -1.533  11.832  22.112  0.00  0.00    +0.000 C 
ENDROOT
BRANCH   1  17
ATOM     16  C   UNL     1      -0.381   8.705  21.624  0.00  0.00    +0.000 C 
ATOM     17  C   UNL     1       0.409   9.983  21.799  0.00  0.00    +0.000 C 
ATOM     18  O   UNL     1       1.524   9.958  22.331  0.00  0.00    +0.000 OA
ENDBRANCH   1  17
BRANCH   7  19
ATOM     19  C   UNL     1      -3.445  10.889  16.903  0.00  0.00    +0.000 C 
ATOM     20  C   UNL     1      -2.677   9.603  17.082  0.00  0.00    +0.000 C 
ATOM     21  O   UNL     1      -3.749  11.302  15.780  0.00  0.00    +0.000 OA
ENDBRANCH   7  19
BRANCH   2  22
ATOM     22  O   UNL     1       1.418  11.570  19.706  0.00  0.00    +0.000 OA
ATOM     23  H   UNL     1       2.244  11.535  20.239  0.00  0.00    +0.000 HD
ENDBRANCH   2  22
BRANCH   8  24
ATOM     24  O   UNL     1      -6.124  11.895  17.013  0.00  0.00    +0.000 OA
ATOM     25  H   UNL     1      -5.716  11.223  16.413  0.00  0.00    +0.000 HD
ENDBRANCH   8  24
BRANCH  11  26
ATOM     26  O   UNL     1      -5.373  13.860  21.315  0.00  0.00    +0.000 OA
ATOM     27  H   UNL     1      -6.222  13.533  21.660  0.00  0.00    +0.000 HD
ENDBRANCH  11  26
BRANCH  15  28
ATOM     28  O   UNL     1      -1.184  12.421  23.385  0.00  0.00    +0.000 OA
ATOM     29  H   UNL     1      -0.786  13.297  23.263  0.00  0.00    +0.000 HD
ENDBRANCH  15  28
TORSDOF 6
ENDMDL
MODEL 3
REMARK VINA RESULT:      -6.2      3.254      6.583
REMARK  Name = 
REMARK  10 active torsions:
REMARK  status: ('A' for Active; 'I' for Inactive)
REMARK    1  A    between atoms: C_1  and  C_2
REMARK    2  A    between atoms: C_2  and  C_4
REMARK    3  A    between atoms: C_5  and  O_6
REMARK    4  A    between atoms: C_11  and  C_12
REMARK    5  A    between atoms: C_12  and  C_13
REMARK    6  A    between atoms: C_15  and  O_16
REMARK    7  A    between atoms: C_17  and  C_18
REMARK    8  A    between atoms: C_19  and  O_20
REMARK    9  A    between atoms: C_22  and  C_23
REMARK   10  A    between atoms: C_24  and  O_25
REMARK                            x       y       z     vdW  Elec       q    Type
REMARK                         _______ _______ _______ _____ _____    ______ ____
ROOT
ATOM      1  C   UNL     1      -0.641  14.475  20.657  0.00  0.00    +0.000 C 
ATOM      2  C   UNL     1       0.371  14.688  21.526  0.00  0.00    +0.000 C 
ATOM      3  C   UNL     1       1.707  14.319  21.104  0.00  0.00    +0.000 C 
ATOM      4  C   UNL     1       1.695  13.066  20.621  0.00  0.00    +0.000 C 
ATOM      5  O   UNL     1       1.230  12.060  21.510  0.00  0.00    +0.000 OA
ATOM      6  C   UNL     1       0.875  10.948  20.766  0.00  0.00    +0.000 A 
ATOM      7  C   UNL     1       0.924   9.682  21.310  0.00  0.00    +0.000 A 
ATOM      8  C   UNL     1       1.367   8.649  20.478  0.00  0.00    +0.000 A 
ATOM      9  C   UNL     1       1.699   8.913  19.132  0.00  0.00    +0.000 A 
ATOM     10  C   UNL     1       2.504   7.873  18.387  0.00  0.00    +0.000 C 
ATOM     11  C   UNL     1       1.434  10.212  18.592  0.00  0.00    +0.000 A 
ATOM     12  C   UNL     1       0.953  11.258  19.397  0.00  0.00    +0.000 A 
ATOM     13  C   UNL     1       1.022  12.809  19.245  0.00  0.00    +0.000 C 
ATOM     14  C   UNL     1       1.846  13.208  18.006  0.00  0.00    +0.000 C 
ATOM     15  C   UNL     1      -0.373  13.753  19.312  0.00  0.00    +0.000 C 
ENDROOT
BRANCH   1  17
ATOM     16  C   UNL     1      -3.147  13.937  21.112  0.00  0.00    +0.000 C 
ATOM     17  C   UNL     1      -1.981  14.899  21.152  0.00  0.00    +0.000 C 
ATOM     18  O   UNL     1      -2.159  16.083  21.462  0.00  0.00    +0.000 OA
ENDBRANCH   1  17
BRANCH   7  19
ATOM     19  C   UNL     1       0.699   9.432  22.755  0.00  0.00    +0.000 C 
ATOM     20  C   UNL     1      -0.707   9.359  23.298  0.00  0.00    +0.000 C 
ATOM     21  O   UNL     1       1.673   9.164  23.464  0.00  0.00    +0.000 OA
ENDBRANCH   7  19
BRANCH   2  22
ATOM     22  O   UNL     1       0.267  15.069  22.837  0.00  0.00    +0.000 OA
ATOM     23  H   UNL     1       1.089  14.787  23.297  0.00  0.00    +0.000 HD
ENDBRANCH   2  22
BRANCH   8  24
ATOM     24  O   UNL     1       1.603   7.392  20.961  0.00  0.00    +0.000 OA
ATOM     25  H   UNL     1       1.010   6.757  20.490  0.00  0.00    +0.000 HD
ENDBRANCH   8  24
BRANCH  11  26
ATOM     26  O   UNL     1       1.823  10.486  17.311  0.00  0.00    +0.000 OA
ATOM     27  H   UNL     1       1.163  10.135  16.689  0.00  0.00    +0.000 HD
ENDBRANCH  11  26
BRANCH  15  28
ATOM     28  O   UNL     1      -0.301  14.778  18.296  0.00  0.00    +0.000 OA
ATOM     29  H   UNL     1       0.477  15.342  18.428  0.00  0.00    +0.000 HD
ENDBRANCH  15  28
TORSDOF 6
ENDMDL
MODEL 4
REMARK VINA RESULT:      -6.2      2.247      5.982
REMARK  Name = 
REMARK  10 active torsions:
REMARK  status: ('A' for Active; 'I' for Inactive)
REMARK    1  A    between atoms: C_1  and  C_2
REMARK    2  A    between atoms: C_2  and  C_4
REMARK    3  A    between atoms: C_5  and  O_6
REMARK    4  A    between atoms: C_11  and  C_12
REMARK    5  A    between atoms: C_12  and  C_13
REMARK    6  A    between atoms: C_15  and  O_16
REMARK    7  A    between atoms: C_17  and  C_18
REMARK    8  A    between atoms: C_19  and  O_20
REMARK    9  A    between atoms: C_22  and  C_23
REMARK   10  A    between atoms: C_24  and  O_25
REMARK                            x       y       z     vdW  Elec       q    Type
REMARK                         _______ _______ _______ _____ _____    ______ ____
ROOT
ATOM      1  C   UNL     1      -5.792  13.256  22.263  0.00  0.00    +0.000 C 
ATOM      2  C   UNL     1      -5.060  14.390  22.185  0.00  0.00    +0.000 C 
ATOM      3  C   UNL     1      -4.873  14.980  20.875  0.00  0.00    +0.000 C 
ATOM      4  C   UNL     1      -4.458  14.036  20.013  0.00  0.00    +0.000 C 
ATOM      5  O   UNL     1      -3.256  13.363  20.359  0.00  0.00    +0.000 OA
ATOM      6  C   UNL     1      -3.196  12.179  19.644  0.00  0.00    +0.000 A 
ATOM      7  C   UNL     1      -1.986  11.600  19.325  0.00  0.00    +0.000 A 
ATOM      8  C   UNL     1      -1.878  11.007  18.063  0.00  0.00    +0.000 A 
ATOM      9  C   UNL     1      -2.989  10.978  17.194  0.00  0.00    +0.000 A 
ATOM     10  C   UNL     1      -2.736  10.668  15.735  0.00  0.00    +0.000 C 
ATOM     11  C   UNL     1      -4.261  11.425  17.674  0.00  0.00    +0.000 A 
ATOM     12  C   UNL     1      -4.406  11.990  18.953  0.00  0.00    +0.000 A 
ATOM     13  C   UNL     1      -5.474  12.955  19.553  0.00  0.00    +0.000 C 
ATOM     14  C   UNL     1      -6.487  13.397  18.479  0.00  0.00    +0.000 C 
ATOM     15  C   UNL     1      -6.299  12.568  20.970  0.00  0.00    +0.000 C 
ENDROOT
BRANCH   1  17
ATOM     16  C   UNL     1      -7.249  12.954  24.399  0.00  0.00    +0.000 C 
ATOM     17  C   UNL     1      -5.959  12.721  23.643  0.00  0.00    +0.000 C 
ATOM     18  O   UNL     1      -4.987  12.212  24.211  0.00  0.00    +0.000 OA
ENDBRANCH   1  17
BRANCH   7  19
ATOM     19  C   UNL     1      -0.787  11.746  20.187  0.00  0.00    +0.000 C 
ATOM     20  C   UNL     1      -0.704  11.001  21.497  0.00  0.00    +0.000 C 
ATOM     21  O   UNL     1       0.177  12.382  19.750  0.00  0.00    +0.000 OA
ENDBRANCH   7  19
BRANCH   2  22
ATOM     22  O   UNL     1      -4.332  14.971  23.187  0.00  0.00    +0.000 OA
ATOM     23  H   UNL     1      -3.461  15.232  22.812  0.00  0.00    +0.000 HD
ENDBRANCH   2  22
BRANCH   8  24
ATOM     24  O   UNL     1      -0.681  10.549  17.588  0.00  0.00    +0.000 OA
ATOM     25  H   UNL     1       0.030  10.808  18.224  0.00  0.00    +0.000 HD
ENDBRANCH   8  24
BRANCH  11  26
ATOM     26  O   UNL     1      -5.317  11.464  16.809  0.00  0.00    +0.000 OA
ATOM     27  H   UNL     1      -6.047  11.968  17.210  0.00  0.00    +0.000 HD
ENDBRANCH  11  26
BRANCH  15  28
ATOM     28  O   UNL     1      -7.690  12.932  20.823  0.00  0.00    +0.000 OA
ATOM     29  H   UNL     1      -8.259  12.341  21.340  0.00  0.00    +0.000 HD
ENDBRANCH  15  28
TORSDOF 6
ENDMDL
MODEL 5
REMARK VINA RESULT:      -6.2      2.067      4.723
REMARK  Name = 
REMARK  10 active torsions:
REMARK  status: ('A' for Active; 'I' for Inactive)
REMARK    1  A    between atoms: C_1  and  C_2
REMARK    2  A    between atoms: C_2  and  C_4
REMARK    3  A    between atoms: C_5  and  O_6
REMARK    4  A    between atoms: C_11  and  C_12
REMARK    5  A    between atoms: C_12  and  C_13
REMARK    6  A    between atoms: C_15  and  O_16
REMARK    7  A    between atoms: C_17  and  C_18
REMARK    8  A    between atoms: C_19  and  O_20
REMARK    9  A    between atoms: C_22  and  C_23
REMARK   10  A    between atoms: C_24  and  O_25
REMARK                            x       y       z     vdW  Elec       q    Type
REMARK                         _______ _______ _______ _____ _____    ______ ____
ROOT
ATOM      1  C   UNL     1       0.430  13.326  19.654  0.00  0.00    +0.000 C 
ATOM      2  C   UNL     1       0.721  12.193  20.330  0.00  0.00    +0.000 C 
ATOM      3  C   UNL     1      -0.085  11.020  20.053  0.00  0.00    +0.000 C 
ATOM      4  C   UNL     1      -1.387  11.344  20.123  0.00  0.00    +0.000 C 
ATOM      5  O   UNL     1      -1.827  11.889  21.358  0.00  0.00    +0.000 OA
ATOM      6  C   UNL     1      -3.025  12.549  21.142  0.00  0.00    +0.000 A 
ATOM      7  C   UNL     1      -3.953  12.690  22.152  0.00  0.00    +0.000 A 
ATOM      8  C   UNL     1      -5.301  12.570  21.800  0.00  0.00    +0.000 A 
ATOM      9  C   UNL     1      -5.667  12.360  20.453  0.00  0.00    +0.000 A 
ATOM     10  C   UNL     1      -7.072  11.878  20.171  0.00  0.00    +0.000 C 
ATOM     11  C   UNL     1      -4.658  12.421  19.440  0.00  0.00    +0.000 A 
ATOM     12  C   UNL     1      -3.300  12.579  19.764  0.00  0.00    +0.000 A 
ATOM     13  C   UNL     1      -1.994  12.219  18.992  0.00  0.00    +0.000 C 
ATOM     14  C   UNL     1      -2.313  11.490  17.673  0.00  0.00    +0.000 C 
ATOM     15  C   UNL     1      -0.800  13.376  18.712  0.00  0.00    +0.000 C 
ENDROOT
BRANCH   1  17
ATOM     16  C   UNL     1       2.339  14.958  18.970  0.00  0.00    +0.000 C 
ATOM     17  C   UNL     1       1.314  14.482  19.975  0.00  0.00    +0.000 C 
ATOM     18  O   UNL     1       1.296  14.952  21.118  0.00  0.00    +0.000 OA
ENDBRANCH   1  17
BRANCH   7  19
ATOM     19  C   UNL     1      -3.560  12.782  23.581  0.00  0.00    +0.000 C 
ATOM     20  C   UNL     1      -2.844  14.009  24.089  0.00  0.00    +0.000 C 
ATOM     21  O   UNL     1      -3.942  11.898  24.353  0.00  0.00    +0.000 OA
ENDBRANCH   7  19
BRANCH   2  22
ATOM     22  O   UNL     1       1.595  12.057  21.374  0.00  0.00    +0.000 OA
ATOM     23  H   UNL     1       1.703  12.940  21.792  0.00  0.00    +0.000 HD
ENDBRANCH   2  22
BRANCH   8  24
ATOM     24  O   UNL     1      -6.287  12.535  22.745  0.00  0.00    +0.000 OA
ATOM     25  H   UNL     1      -6.340  11.618  23.110  0.00  0.00    +0.000 HD
ENDBRANCH   8  24
BRANCH  11  26
ATOM     26  O   UNL     1      -5.003  12.146  18.147  0.00  0.00    +0.000 OA
ATOM     27  H   UNL     1      -5.479  12.905  17.768  0.00  0.00    +0.000 HD
ENDBRANCH  11  26
BRANCH  15  28
ATOM     28  O   UNL     1      -0.299  13.224  17.365  0.00  0.00    +0.000 OA
ATOM     29  H   UNL     1       0.430  13.841  17.196  0.00  0.00    +0.000 HD
ENDBRANCH  15  28
TORSDOF 6
ENDMDL
MODEL 6
REMARK VINA RESULT:      -6.1      2.211      3.421
REMARK  Name = 
REMARK  10 active torsions:
REMARK  status: ('A' for Active; 'I' for Inactive)
REMARK    1  A    between atoms: C_1  and  C_2
REMARK    2  A    between atoms: C_2  and  C_4
REMARK    3  A    between atoms: C_5  and  O_6
REMARK    4  A    between atoms: C_11  and  C_12
REMARK    5  A    between atoms: C_12  and  C_13
REMARK    6  A    between atoms: C_15  and  O_16
REMARK    7  A    between atoms: C_17  and  C_18
REMARK    8  A    between atoms: C_19  and  O_20
REMARK    9  A    between atoms: C_22  and  C_23
REMARK   10  A    between atoms: C_24  and  O_25
REMARK                            x       y       z     vdW  Elec       q    Type
REMARK                         _______ _______ _______ _____ _____    ______ ____
ROOT
ATOM      1  C   UNL     1      -0.745  11.665  19.723  0.00  0.00    +0.000 C 
ATOM      2  C   UNL     1      -0.868  12.839  19.065  0.00  0.00    +0.000 C 
ATOM      3  C   UNL     1      -1.218  14.011  19.842  0.00  0.00    +0.000 C 
ATOM      4  C   UNL     1      -2.283  13.736  20.612  0.00  0.00    +0.000 C 
ATOM      5  O   UNL     1      -3.452  13.307  19.928  0.00  0.00    +0.000 OA
ATOM      6  C   UNL     1      -4.282  12.671  20.836  0.00  0.00    +0.000 A 
ATOM      7  C   UNL     1      -5.648  12.642  20.653  0.00  0.00    +0.000 A 
ATOM      8  C   UNL     1      -6.445  12.776  21.794  0.00  0.00    +0.000 A 
ATOM      9  C   UNL     1      -5.849  12.890  23.068  0.00  0.00    +0.000 A 
ATOM     10  C   UNL     1      -6.708  13.393  24.207  0.00  0.00    +0.000 C 
ATOM     11  C   UNL     1      -4.434  12.714  23.193  0.00  0.00    +0.000 A 
ATOM     12  C   UNL     1      -3.613  12.539  22.066  0.00  0.00    +0.000 A 
ATOM     13  C   UNL     1      -2.093  12.793  21.832  0.00  0.00    +0.000 C 
ATOM     14  C   UNL     1      -1.438  13.424  23.076  0.00  0.00    +0.000 C 
ATOM     15  C   UNL     1      -1.089  11.580  21.232  0.00  0.00    +0.000 C 
ENDROOT
BRANCH   1  17
ATOM     16  C   UNL     1       1.044   9.957  18.914  0.00  0.00    +0.000 C 
ATOM     17  C   UNL     1      -0.362  10.511  18.862  0.00  0.00    +0.000 C 
ATOM     18  O   UNL     1      -1.160  10.108  18.009  0.00  0.00    +0.000 OA
ENDBRANCH   1  17
BRANCH   7  19
ATOM     19  C   UNL     1      -6.267  12.653  19.304  0.00  0.00    +0.000 C 
ATOM     20  C   UNL     1      -6.305  11.389  18.481  0.00  0.00    +0.000 C 
ATOM     21  O   UNL     1      -6.852  13.675  18.934  0.00  0.00    +0.000 OA
ENDBRANCH   7  19
BRANCH   2  22
ATOM     22  O   UNL     1      -0.855  13.031  17.709  0.00  0.00    +0.000 OA
ATOM     23  H   UNL     1      -0.324  13.838  17.526  0.00  0.00    +0.000 HD
ENDBRANCH   2  22
BRANCH   8  24
ATOM     24  O   UNL     1      -7.801  12.920  21.707  0.00  0.00    +0.000 OA
ATOM     25  H   UNL     1      -8.198  12.039  21.499  0.00  0.00    +0.000 HD
ENDBRANCH   8  24
BRANCH  11  26
ATOM     26  O   UNL     1      -3.851  12.896  24.415  0.00  0.00    +0.000 OA
ATOM     27  H   UNL     1      -4.313  13.606  24.893  0.00  0.00    +0.000 HD
ENDBRANCH  11  26
BRANCH  15  28
ATOM     28  O   UNL     1       0.167  11.606  21.947  0.00  0.00    +0.000 OA
ATOM     29  H   UNL     1       0.856  12.039  21.419  0.00  0.00    +0.000 HD
ENDBRANCH  15  28
TORSDOF 6
ENDMDL
MODEL 7
REMARK VINA RESULT:      -5.9      2.724      4.631
REMARK  Name = 
REMARK  10 active torsions:
REMARK  status: ('A' for Active; 'I' for Inactive)
REMARK    1  A    between atoms: C_1  and  C_2
REMARK    2  A    between atoms: C_2  and  C_4
REMARK    3  A    between atoms: C_5  and  O_6
REMARK    4  A    between atoms: C_11  and  C_12
REMARK    5  A    between atoms: C_12  and  C_13
REMARK    6  A    between atoms: C_15  and  O_16
REMARK    7  A    between atoms: C_17  and  C_18
REMARK    8  A    between atoms: C_19  and  O_20
REMARK    9  A    between atoms: C_22  and  C_23
REMARK   10  A    between atoms: C_24  and  O_25
REMARK                            x       y       z     vdW  Elec       q    Type
REMARK                         _______ _______ _______ _____ _____    ______ ____
ROOT
ATOM      1  C   UNL     1       0.056  12.032  19.474  0.00  0.00    +0.000 C 
ATOM      2  C   UNL     1      -0.489  12.935  18.630  0.00  0.00    +0.000 C 
ATOM      3  C   UNL     1      -0.531  14.318  19.062  0.00  0.00    +0.000 C 
ATOM      4  C   UNL     1      -1.052  14.385  20.298  0.00  0.00    +0.000 C 
ATOM      5  O   UNL     1      -2.356  13.844  20.455  0.00  0.00    +0.000 OA
ATOM      6  C   UNL     1      -2.569  13.598  21.801  0.00  0.00    +0.000 A 
ATOM      7  C   UNL     1      -3.840  13.611  22.335  0.00  0.00    +0.000 A 
ATOM      8  C   UNL     1      -3.988  14.165  23.610  0.00  0.00    +0.000 A 
ATOM      9  C   UNL     1      -2.861  14.640  24.314  0.00  0.00    +0.000 A 
ATOM     10  C   UNL     1      -3.101  15.546  25.501  0.00  0.00    +0.000 C 
ATOM     11  C   UNL     1      -1.556  14.412  23.773  0.00  0.00    +0.000 A 
ATOM     12  C   UNL     1      -1.376  13.823  22.511  0.00  0.00    +0.000 A 
ATOM     13  C   UNL     1      -0.197  13.876  21.491  0.00  0.00    +0.000 C 
ATOM     14  C   UNL     1       0.914  14.827  21.978  0.00  0.00    +0.000 C 
ATOM     15  C   UNL     1       0.503  12.464  20.894  0.00  0.00    +0.000 C 
ENDROOT
BRANCH   1  17
ATOM     16  C   UNL     1       1.372  10.050  18.418  0.00  0.00    +0.000 C 
ATOM     17  C   UNL     1       0.084  10.637  18.952  0.00  0.00    +0.000 C 
ATOM     18  O   UNL     1      -0.980  10.020  18.830  0.00  0.00    +0.000 OA
ENDBRANCH   1  17
BRANCH   7  19
ATOM     19  C   UNL     1      -5.036  13.229  21.543  0.00  0.00    +0.000 C 
ATOM     20  C   UNL     1      -5.467  14.078  20.372  0.00  0.00    +0.000 C 
ATOM     21  O   UNL     1      -5.582  12.149  21.786  0.00  0.00    +0.000 OA
ENDBRANCH   7  19
BRANCH   2  22
ATOM     22  O   UNL     1      -1.158  12.677  17.464  0.00  0.00    +0.000 OA
ATOM     23  H   UNL     1      -0.554  12.888  16.718  0.00  0.00    +0.000 HD
ENDBRANCH   2  22
BRANCH   8  24
ATOM     24  O   UNL     1      -5.221  14.370  24.162  0.00  0.00    +0.000 OA
ATOM     25  H   UNL     1      -5.342  13.736  24.910  0.00  0.00    +0.000 HD
ENDBRANCH   8  24
BRANCH  11  26
ATOM     26  O   UNL     1      -0.472  14.937  24.419  0.00  0.00    +0.000 OA
ATOM     27  H   UNL     1       0.067  14.215  24.788  0.00  0.00    +0.000 HD
ENDBRANCH  11  26
BRANCH  15  28
ATOM     28  O   UNL     1       1.938  12.629  20.847  0.00  0.00    +0.000 OA
ATOM     29  H   UNL     1       2.308  12.691  21.741  0.00  0.00    +0.000 HD
ENDBRANCH  15  28
TORSDOF 6
ENDMDL
MODEL 8
REMARK VINA RESULT:      -5.9      2.037      4.777
REMARK  Name = 
REMARK  10 active torsions:
REMARK  status: ('A' for Active; 'I' for Inactive)
REMARK    1  A    between atoms: C_1  and  C_2
REMARK    2  A    between atoms: C_2  and  C_4
REMARK    3  A    between atoms: C_5  and  O_6
REMARK    4  A    between atoms: C_11  and  C_12
REMARK    5  A    between atoms: C_12  and  C_13
REMARK    6  A    between atoms: C_15  and  O_16
REMARK    7  A    between atoms: C_17  and  C_18
REMARK    8  A    between atoms: C_19  and  O_20
REMARK    9  A    between atoms: C_22  and  C_23
REMARK   10  A    between atoms: C_24  and  O_25
REMARK                            x       y       z     vdW  Elec       q    Type
REMARK                         _______ _______ _______ _____ _____    ______ ____
ROOT
ATOM      1  C   UNL     1      -0.426  14.136  22.333  0.00  0.00    +0.000 C 
ATOM      2  C   UNL     1      -1.117  13.376  23.211  0.00  0.00    +0.000 C 
ATOM      3  C   UNL     1      -1.162  11.947  22.972  0.00  0.00    +0.000 C 
ATOM      4  C   UNL     1      -1.516  11.717  21.697  0.00  0.00    +0.000 C 
ATOM      5  O   UNL     1      -2.762  12.262  21.289  0.00  0.00    +0.000 OA
ATOM      6  C   UNL     1      -2.783  12.319  19.905  0.00  0.00    +0.000 A 
ATOM      7  C   UNL     1      -3.971  12.261  19.208  0.00  0.00    +0.000 A 
ATOM      8  C   UNL     1      -3.972  11.535  18.013  0.00  0.00    +0.000 A 
ATOM      9  C   UNL     1      -2.784  10.936  17.544  0.00  0.00    +0.000 A 
ATOM     10  C   UNL     1      -2.903   9.877  16.471  0.00  0.00    +0.000 C 
ATOM     11  C   UNL     1      -1.553  11.207  18.223  0.00  0.00    +0.000 A 
ATOM     12  C   UNL     1      -1.518  11.966  19.405  0.00  0.00    +0.000 A 
ATOM     13  C   UNL     1      -0.488  12.030  20.574  0.00  0.00    +0.000 C 
ATOM     14  C   UNL     1       0.635  10.993  20.381  0.00  0.00    +0.000 C 
ATOM     15  C   UNL     1       0.187  13.495  21.062  0.00  0.00    +0.000 C 
ENDROOT
BRANCH   1  17
ATOM     16  C   UNL     1      -0.862  16.605  21.631  0.00  0.00    +0.000 C 
ATOM     17  C   UNL     1      -0.406  15.590  22.657  0.00  0.00    +0.000 C 
ATOM     18  O   UNL     1       0.115  15.963  23.714  0.00  0.00    +0.000 OA
ENDBRANCH   1  17
BRANCH   7  19
ATOM     19  C   UNL     1      -5.244  12.781  19.767  0.00  0.00    +0.000 C 
ATOM     20  C   UNL     1      -5.401  14.256  20.043  0.00  0.00    +0.000 C 
ATOM     21  O   UNL     1      -6.197  12.004  19.879  0.00  0.00    +0.000 OA
ENDBRANCH   7  19
BRANCH   2  22
ATOM     22  O   UNL     1      -1.924  13.815  24.226  0.00  0.00    +0.000 OA
ATOM     23  H   UNL     1      -1.654  13.346  25.047  0.00  0.00    +0.000 HD
ENDBRANCH   2  22
BRANCH   8  24
ATOM     24  O   UNL     1      -5.129  11.283  17.330  0.00  0.00    +0.000 OA
ATOM     25  H   UNL     1      -5.431  10.367  17.549  0.00  0.00    +0.000 HD
ENDBRANCH   8  24
BRANCH  11  26
ATOM     26  O   UNL     1      -0.417  10.569  17.811  0.00  0.00    +0.000 OA
ATOM     27  H   UNL     1      -0.648   9.700  17.441  0.00  0.00    +0.000 HD
ENDBRANCH  11  26
BRANCH  15  28
ATOM     28  O   UNL     1       1.594  13.303  21.329  0.00  0.00    +0.000 OA
ATOM     29  H   UNL     1       1.729  12.913  22.207  0.00  0.00    +0.000 HD
ENDBRANCH  15  28
TORSDOF 6
ENDMDL
MODEL 9
REMARK VINA RESULT:      -5.9      3.989      6.806
REMARK  Name = 
REMARK  10 active torsions:
REMARK  status: ('A' for Active; 'I' for Inactive)
REMARK    1  A    between atoms: C_1  and  C_2
REMARK    2  A    between atoms: C_2  and  C_4
REMARK    3  A    between atoms: C_5  and  O_6
REMARK    4  A    between atoms: C_11  and  C_12
REMARK    5  A    between atoms: C_12  and  C_13
REMARK    6  A    between atoms: C_15  and  O_16
REMARK    7  A    between atoms: C_17  and  C_18
REMARK    8  A    between atoms: C_19  and  O_20
REMARK    9  A    between atoms: C_22  and  C_23
REMARK   10  A    between atoms: C_24  and  O_25
REMARK                            x       y       z     vdW  Elec       q    Type
REMARK                         _______ _______ _______ _____ _____    ______ ____
ROOT
ATOM      1  C   UNL     1       1.442  16.493  20.910  0.00  0.00    +0.000 C 
ATOM      2  C   UNL     1       2.167  16.104  21.983  0.00  0.00    +0.000 C 
ATOM      3  C   UNL     1       3.239  15.155  21.761  0.00  0.00    +0.000 C 
ATOM      4  C   UNL     1       2.777  14.116  21.045  0.00  0.00    +0.000 C 
ATOM      5  O   UNL     1       1.683  13.408  21.610  0.00  0.00    +0.000 OA
ATOM      6  C   UNL     1       1.066  12.682  20.605  0.00  0.00    +0.000 A 
ATOM      7  C   UNL     1       0.378  11.521  20.885  0.00  0.00    +0.000 A 
ATOM      8  C   UNL     1       0.495  10.474  19.965  0.00  0.00    +0.000 A 
ATOM      9  C   UNL     1       1.254  10.645  18.789  0.00  0.00    +0.000 A 
ATOM     10  C   UNL     1       1.653   9.404  18.020  0.00  0.00    +0.000 C 
ATOM     11  C   UNL     1       1.774  11.941  18.477  0.00  0.00    +0.000 A 
ATOM     12  C   UNL     1       1.638  13.020  19.366  0.00  0.00    +0.000 A 
ATOM     13  C   UNL     1       2.453  14.338  19.542  0.00  0.00    +0.000 C 
ATOM     14  C   UNL     1       3.663  14.372  18.589  0.00  0.00    +0.000 C 
ATOM     15  C   UNL     1       1.692  15.842  19.526  0.00  0.00    +0.000 C 
ENDROOT
BRANCH   1  17
ATOM     16  C   UNL     1      -1.020  17.300  20.654  0.00  0.00    +0.000 C 
ATOM     17  C   UNL     1       0.374  17.486  21.213  0.00  0.00    +0.000 C 
ATOM     18  O   UNL     1       0.674  18.528  21.805  0.00  0.00    +0.000 OA
ENDBRANCH   1  17
BRANCH   7  19
ATOM     19  C   UNL     1      -0.311  11.302  22.182  0.00  0.00    +0.000 C 
ATOM     20  C   UNL     1      -1.614  12.007  22.473  0.00  0.00    +0.000 C 
ATOM     21  O   UNL     1       0.138  10.445  22.949  0.00  0.00    +0.000 OA
ENDBRANCH   7  19
BRANCH   2  22
ATOM     22  O   UNL     1       1.908  16.382  23.298  0.00  0.00    +0.000 OA
ATOM     23  H   UNL     1       1.276  17.135  23.326  0.00  0.00    +0.000 HD
ENDBRANCH   2  22
BRANCH   8  24
ATOM     24  O   UNL     1      -0.014   9.233  20.225  0.00  0.00    +0.000 OA
ATOM     25  H   UNL     1      -0.490   8.913  19.420  0.00  0.00    +0.000 HD
ENDBRANCH   8  24
BRANCH  11  26
ATOM     26  O   UNL     1       2.569  12.087  17.376  0.00  0.00    +0.000 OA
ATOM     27  H   UNL     1       2.679  11.225  16.937  0.00  0.00    +0.000 HD
ENDBRANCH  11  26
BRANCH  15  28
ATOM     28  O   UNL     1       2.496  16.773  18.767  0.00  0.00    +0.000 OA
ATOM     29  H   UNL     1       3.282  16.335  18.404  0.00  0.00    +0.000 HD
ENDBRANCH  15  28
TORSDOF 6
ENDMDL
