MODEL 1
REMARK VINA RESULT:      -7.1      0.000      0.000
REMARK  Name = 
REMARK  6 active torsions:
REMARK  status: ('A' for Active; 'I' for Inactive)
REMARK    1  A    between atoms: C_1  and  C_2
REMARK    2  A    between atoms: C_2  and  C_3
REMARK    3  A    between atoms: C_2  and  N_11
REMARK    4  A    between atoms: N_14  and  C_15
REMARK    5  A    between atoms: C_15  and  C_16
REMARK    6  A    between atoms: C_19  and  C_20
REMARK                            x       y       z     vdW  Elec       q    Type
REMARK                         _______ _______ _______ _____ _____    ______ ____
ROOT
ATOM      1  N   UNL     1       0.614  14.265  19.884  0.00  0.00    +0.000 NA
ATOM      2  C   UNL     1      -0.643  13.558  19.577  0.00  0.00    +0.000 C 
ATOM      3  C   UNL     1      -0.547  12.469  18.479  0.00  0.00    +0.000 C 
ATOM      4  N   UNL     1       0.547  11.489  18.656  0.00  0.00    +0.000 NA
ATOM      5  C   UNL     1       1.807  12.181  19.004  0.00  0.00    +0.000 C 
ATOM      6  C   UNL     1       1.687  13.276  20.087  0.00  0.00    +0.000 C 
ENDROOT
BRANCH   1   8
ATOM      7  C   UNL     1      -0.107  16.354  18.500  0.00  0.00    +0.000 C 
ATOM      8  C   UNL     1       0.984  15.374  18.958  0.00  0.00    +0.000 C 
BRANCH   8   9
ATOM      9  C   UNL     1       2.122  16.222  19.598  0.00  0.00    +0.000 C 
ATOM     10  O   UNL     1       1.956  16.744  20.710  0.00  0.00    +0.000 OA
ATOM     11  N   UNL     1       3.326  16.375  18.931  0.00  0.00    +0.000 N 
ATOM     12  C   UNL     1       3.743  15.685  17.710  0.00  0.00    +0.000 C 
ATOM     13  C   UNL     1       4.799  14.624  18.050  0.00  0.00    +0.000 C 
ATOM     14  O   UNL     1       5.911  15.207  18.757  0.00  0.00    +0.000 OA
ATOM     15  C   UNL     1       5.473  15.849  19.968  0.00  0.00    +0.000 C 
ATOM     16  C   UNL     1       4.456  16.954  19.660  0.00  0.00    +0.000 C 
ENDBRANCH   8   9
ENDBRANCH   1   8
BRANCH   4  17
ATOM     17  C   UNL     1       0.164  10.481  19.656  0.00  0.00    +0.000 C 
BRANCH  17  18
ATOM     18  C   UNL     1       1.034   9.260  19.589  0.00  0.00    +0.000 A 
ATOM     19  C   UNL     1       1.323   8.364  20.595  0.00  0.00    +0.000 A 
ATOM     20  C   UNL     1       2.180   7.323  20.148  0.00  0.00    +0.000 A 
ATOM     21  C   UNL     1       2.477   7.401  18.800  0.00  0.00    +0.000 A 
ATOM     22  S   UNL     1       1.772   8.812  18.114  0.00  0.00    +0.000 S 
BRANCH  21  23
ATOM     23  C   UNL     1       3.249   6.459  17.972  0.00  0.00    +0.000 A 
ATOM     24  C   UNL     1       4.388   6.848  17.248  0.00  0.00    +0.000 A 
ATOM     25  C   UNL     1       5.114   5.927  16.496  0.00  0.00    +0.000 A 
ATOM     26  C   UNL     1       4.718   4.587  16.448  0.00  0.00    +0.000 A 
ATOM     27  C   UNL     1       3.588   4.181  17.154  0.00  0.00    +0.000 A 
ATOM     28  C   UNL     1       2.867   5.108  17.900  0.00  0.00    +0.000 A 
ATOM     29  F   UNL     1       1.773   4.665  18.541  0.00  0.00    +0.000 F 
ENDBRANCH  21  23
ENDBRANCH  17  18
ENDBRANCH   4  17
TORSDOF 5
ENDMDL
MODEL 2
REMARK VINA RESULT:      -7.1      2.983      4.870
REMARK  Name = 
REMARK  6 active torsions:
REMARK  status: ('A' for Active; 'I' for Inactive)
REMARK    1  A    between atoms: C_1  and  C_2
REMARK    2  A    between atoms: C_2  and  C_3
REMARK    3  A    between atoms: C_2  and  N_11
REMARK    4  A    between atoms: N_14  and  C_15
REMARK    5  A    between atoms: C_15  and  C_16
REMARK    6  A    between atoms: C_19  and  C_20
REMARK                            x       y       z     vdW  Elec       q    Type
REMARK                         _______ _______ _______ _____ _____    ______ ____
ROOT
ATOM      1  N   UNL     1      -0.855  13.929  19.896  0.00  0.00    +0.000 NA
ATOM      2  C   UNL     1       0.479  13.780  19.286  0.00  0.00    +0.000 C 
ATOM      3  C   UNL     1       1.408  12.735  19.953  0.00  0.00    +0.000 C 
ATOM      4  N   UNL     1       0.805  11.400  20.165  0.00  0.00    +0.000 NA
ATOM      5  C   UNL     1      -0.551  11.534  20.740  0.00  0.00    +0.000 C 
ATOM      6  C   UNL     1      -1.455  12.595  20.074  0.00  0.00    +0.000 C 
ENDROOT
BRANCH   1   8
ATOM      7  C   UNL     1      -0.199  16.143  21.107  0.00  0.00    +0.000 C 
ATOM      8  C   UNL     1      -0.925  14.789  21.112  0.00  0.00    +0.000 C 
BRANCH   8   9
ATOM      9  C   UNL     1      -2.417  15.071  21.457  0.00  0.00    +0.000 C 
ATOM     10  O   UNL     1      -3.124  15.718  20.671  0.00  0.00    +0.000 OA
ATOM     11  N   UNL     1      -2.957  14.581  22.635  0.00  0.00    +0.000 N 
ATOM     12  C   UNL     1      -2.315  13.659  23.573  0.00  0.00    +0.000 C 
ATOM     13  C   UNL     1      -2.955  12.268  23.450  0.00  0.00    +0.000 C 
ATOM     14  O   UNL     1      -4.383  12.336  23.637  0.00  0.00    +0.000 OA
ATOM     15  C   UNL     1      -4.986  13.225  22.680  0.00  0.00    +0.000 C 
ATOM     16  C   UNL     1      -4.409  14.638  22.811  0.00  0.00    +0.000 C 
ENDBRANCH   8   9
ENDBRANCH   1   8
BRANCH   4  17
ATOM     17  C   UNL     1       0.809  10.638  18.907  0.00  0.00    +0.000 C 
BRANCH  17  18
ATOM     18  C   UNL     1       1.436   9.285  19.069  0.00  0.00    +0.000 A 
ATOM     19  C   UNL     1       1.394   8.452  20.165  0.00  0.00    +0.000 A 
ATOM     20  C   UNL     1       2.101   7.241  19.940  0.00  0.00    +0.000 A 
ATOM     21  C   UNL     1       2.615   7.138  18.661  0.00  0.00    +0.000 A 
ATOM     22  S   UNL     1       2.301   8.578  17.774  0.00  0.00    +0.000 S 
BRANCH  21  23
ATOM     23  C   UNL     1       3.319   6.004  18.040  0.00  0.00    +0.000 A 
ATOM     24  C   UNL     1       4.681   6.053  17.702  0.00  0.00    +0.000 A 
ATOM     25  C   UNL     1       5.326   4.953  17.141  0.00  0.00    +0.000 A 
ATOM     26  C   UNL     1       4.621   3.769  16.903  0.00  0.00    +0.000 A 
ATOM     27  C   UNL     1       3.268   3.699  17.225  0.00  0.00    +0.000 A 
ATOM     28  C   UNL     1       2.632   4.805  17.782  0.00  0.00    +0.000 A 
ATOM     29  F   UNL     1       1.321   4.689  18.051  0.00  0.00    +0.000 F 
ENDBRANCH  21  23
ENDBRANCH  17  18
ENDBRANCH   4  17
TORSDOF 5
ENDMDL
MODEL 3
REMARK VINA RESULT:      -7.0      3.623      5.694
REMARK  Name = 
REMARK  6 active torsions:
REMARK  status: ('A' for Active; 'I' for Inactive)
REMARK    1  A    between atoms: C_1  and  C_2
REMARK    2  A    between atoms: C_2  and  C_3
REMARK    3  A    between atoms: C_2  and  N_11
REMARK    4  A    between atoms: N_14  and  C_15
REMARK    5  A    between atoms: C_15  and  C_16
REMARK    6  A    between atoms: C_19  and  C_20
REMARK                            x       y       z     vdW  Elec       q    Type
REMARK                         _______ _______ _______ _____ _____    ______ ____
ROOT
ATOM      1  N   UNL     1      -1.767  13.560  20.329  0.00  0.00    +0.000 NA
ATOM      2  C   UNL     1      -0.482  13.821  19.656  0.00  0.00    +0.000 C 
ATOM      3  C   UNL     1       0.740  13.058  20.228  0.00  0.00    +0.000 C 
ATOM      4  N   UNL     1       0.550  11.600  20.397  0.00  0.00    +0.000 NA
ATOM      5  C   UNL     1      -0.754  11.321  21.035  0.00  0.00    +0.000 C 
ATOM      6  C   UNL     1      -1.956  12.106  20.463  0.00  0.00    +0.000 C 
ENDROOT
BRANCH   1   8
ATOM      7  C   UNL     1      -1.299  15.664  21.797  0.00  0.00    +0.000 C 
ATOM      8  C   UNL     1      -2.011  14.319  21.590  0.00  0.00    +0.000 C 
BRANCH   8   9
ATOM      9  C   UNL     1      -3.538  14.580  21.748  0.00  0.00    +0.000 C 
ATOM     10  O   UNL     1      -4.209  14.943  20.771  0.00  0.00    +0.000 OA
ATOM     11  N   UNL     1      -4.148  14.386  22.976  0.00  0.00    +0.000 N 
ATOM     12  C   UNL     1      -3.540  13.793  24.169  0.00  0.00    +0.000 C 
ATOM     13  C   UNL     1      -4.100  12.380  24.386  0.00  0.00    +0.000 C 
ATOM     14  O   UNL     1      -5.540  12.397  24.454  0.00  0.00    +0.000 OA
ATOM     15  C   UNL     1      -6.106  12.954  23.254  0.00  0.00    +0.000 C 
ATOM     16  C   UNL     1      -5.610  14.388  23.035  0.00  0.00    +0.000 C 
ENDBRANCH   8   9
ENDBRANCH   1   8
BRANCH   4  17
ATOM     17  C   UNL     1       0.700  10.919  19.102  0.00  0.00    +0.000 C 
BRANCH  17  18
ATOM     18  C   UNL     1       1.274   9.541  19.252  0.00  0.00    +0.000 A 
ATOM     19  C   UNL     1       1.337   8.763  20.387  0.00  0.00    +0.000 A 
ATOM     20  C   UNL     1       1.946   7.505  20.136  0.00  0.00    +0.000 A 
ATOM     21  C   UNL     1       2.278   7.314  18.808  0.00  0.00    +0.000 A 
ATOM     22  S   UNL     1       1.921   8.727  17.895  0.00  0.00    +0.000 S 
BRANCH  21  23
ATOM     23  C   UNL     1       2.835   6.114  18.161  0.00  0.00    +0.000 A 
ATOM     24  C   UNL     1       2.139   4.896  18.103  0.00  0.00    +0.000 A 
ATOM     25  C   UNL     1       2.681   3.785  17.459  0.00  0.00    +0.000 A 
ATOM     26  C   UNL     1       3.938   3.866  16.852  0.00  0.00    +0.000 A 
ATOM     27  C   UNL     1       4.647   5.063  16.902  0.00  0.00    +0.000 A 
ATOM     28  C   UNL     1       4.100   6.166  17.551  0.00  0.00    +0.000 A 
ATOM     29  F   UNL     1       4.839   7.287  17.588  0.00  0.00    +0.000 F 
ENDBRANCH  21  23
ENDBRANCH  17  18
ENDBRANCH   4  17
TORSDOF 5
ENDMDL
MODEL 4
REMARK VINA RESULT:      -7.0      3.627      5.481
REMARK  Name = 
REMARK  6 active torsions:
REMARK  status: ('A' for Active; 'I' for Inactive)
REMARK    1  A    between atoms: C_1  and  C_2
REMARK    2  A    between atoms: C_2  and  C_3
REMARK    3  A    between atoms: C_2  and  N_11
REMARK    4  A    between atoms: N_14  and  C_15
REMARK    5  A    between atoms: C_15  and  C_16
REMARK    6  A    between atoms: C_19  and  C_20
REMARK                            x       y       z     vdW  Elec       q    Type
REMARK                         _______ _______ _______ _____ _____    ______ ____
ROOT
ATOM      1  N   UNL     1      -0.567  10.540  21.116  0.00  0.00    +0.000 NA
ATOM      2  C   UNL     1      -0.275   9.803  19.873  0.00  0.00    +0.000 C 
ATOM      3  C   UNL     1       1.167   9.251  19.745  0.00  0.00    +0.000 C 
ATOM      4  N   UNL     1       1.651   8.477  20.910  0.00  0.00    +0.000 NA
ATOM      5  C   UNL     1       1.329   9.185  22.168  0.00  0.00    +0.000 C 
ATOM      6  C   UNL     1      -0.107   9.745  22.268  0.00  0.00    +0.000 C 
ENDROOT
BRANCH   1   8
ATOM      7  C   UNL     1       1.033  12.405  20.245  0.00  0.00    +0.000 C 
ATOM      8  C   UNL     1      -0.126  11.964  21.151  0.00  0.00    +0.000 C 
BRANCH   8   9
ATOM      9  C   UNL     1      -1.337  12.888  20.828  0.00  0.00    +0.000 C 
ATOM     10  O   UNL     1      -1.593  13.184  19.652  0.00  0.00    +0.000 OA
ATOM     11  N   UNL     1      -2.138  13.360  21.854  0.00  0.00    +0.000 N 
ATOM     12  C   UNL     1      -2.079  12.963  23.262  0.00  0.00    +0.000 C 
ATOM     13  C   UNL     1      -3.281  12.068  23.596  0.00  0.00    +0.000 C 
ATOM     14  O   UNL     1      -4.522  12.719  23.261  0.00  0.00    +0.000 OA
ATOM     15  C   UNL     1      -4.561  13.066  21.865  0.00  0.00    +0.000 C 
ATOM     16  C   UNL     1      -3.404  14.006  21.507  0.00  0.00    +0.000 C 
ENDBRANCH   8   9
ENDBRANCH   1   8
BRANCH   4  17
ATOM     17  C   UNL     1       1.099   7.114  20.875  0.00  0.00    +0.000 C 
BRANCH  17  18
ATOM     18  C   UNL     1       2.073   6.124  20.308  0.00  0.00    +0.000 A 
ATOM     19  C   UNL     1       2.190   4.782  20.598  0.00  0.00    +0.000 A 
ATOM     20  C   UNL     1       3.229   4.166  19.851  0.00  0.00    +0.000 A 
ATOM     21  C   UNL     1       3.844   5.025  18.959  0.00  0.00    +0.000 A 
ATOM     22  S   UNL     1       3.197   6.611  19.116  0.00  0.00    +0.000 S 
BRANCH  21  23
ATOM     23  C   UNL     1       4.887   4.727  17.963  0.00  0.00    +0.000 A 
ATOM     24  C   UNL     1       4.594   4.196  16.698  0.00  0.00    +0.000 A 
ATOM     25  C   UNL     1       5.600   3.951  15.766  0.00  0.00    +0.000 A 
ATOM     26  C   UNL     1       6.933   4.233  16.079  0.00  0.00    +0.000 A 
ATOM     27  C   UNL     1       7.248   4.755  17.330  0.00  0.00    +0.000 A 
ATOM     28  C   UNL     1       6.236   4.993  18.255  0.00  0.00    +0.000 A 
ATOM     29  F   UNL     1       6.601   5.476  19.455  0.00  0.00    +0.000 F 
ENDBRANCH  21  23
ENDBRANCH  17  18
ENDBRANCH   4  17
TORSDOF 5
ENDMDL
MODEL 5
REMARK VINA RESULT:      -6.8      3.639      5.467
REMARK  Name = 
REMARK  6 active torsions:
REMARK  status: ('A' for Active; 'I' for Inactive)
REMARK    1  A    between atoms: C_1  and  C_2
REMARK    2  A    between atoms: C_2  and  C_3
REMARK    3  A    between atoms: C_2  and  N_11
REMARK    4  A    between atoms: N_14  and  C_15
REMARK    5  A    between atoms: C_15  and  C_16
REMARK    6  A    between atoms: C_19  and  C_20
REMARK                            x       y       z     vdW  Elec       q    Type
REMARK                         _______ _______ _______ _____ _____    ______ ____
ROOT
ATOM      1  N   UNL     1      -0.641  10.524  21.390  0.00  0.00    +0.000 NA
ATOM      2  C   UNL     1      -0.424   9.845  20.099  0.00  0.00    +0.000 C 
ATOM      3  C   UNL     1       1.015   9.331  19.846  0.00  0.00    +0.000 C 
ATOM      4  N   UNL     1       1.597   8.522  20.939  0.00  0.00    +0.000 NA
ATOM      5  C   UNL     1       1.353   9.170  22.246  0.00  0.00    +0.000 C 
ATOM      6  C   UNL     1      -0.083   9.693  22.471  0.00  0.00    +0.000 C 
ENDROOT
BRANCH   1   8
ATOM      7  C   UNL     1       0.984  12.415  20.628  0.00  0.00    +0.000 C 
ATOM      8  C   UNL     1      -0.226  11.955  21.453  0.00  0.00    +0.000 C 
BRANCH   8   9
ATOM      9  C   UNL     1      -1.428  12.858  21.048  0.00  0.00    +0.000 C 
ATOM     10  O   UNL     1      -1.635  13.113  19.852  0.00  0.00    +0.000 OA
ATOM     11  N   UNL     1      -2.275  13.359  22.022  0.00  0.00    +0.000 N 
ATOM     12  C   UNL     1      -2.275  13.009  23.443  0.00  0.00    +0.000 C 
ATOM     13  C   UNL     1      -3.485  12.116  23.756  0.00  0.00    +0.000 C 
ATOM     14  O   UNL     1      -4.714  12.746  23.346  0.00  0.00    +0.000 OA
ATOM     15  C   UNL     1      -4.695  13.048  21.939  0.00  0.00    +0.000 C 
ATOM     16  C   UNL     1      -3.529  13.983  21.599  0.00  0.00    +0.000 C 
ENDBRANCH   8   9
ENDBRANCH   1   8
BRANCH   4  17
ATOM     17  C   UNL     1       1.071   7.149  20.887  0.00  0.00    +0.000 C 
BRANCH  17  18
ATOM     18  C   UNL     1       2.075   6.181  20.334  0.00  0.00    +0.000 A 
ATOM     19  C   UNL     1       2.223   4.844  20.633  0.00  0.00    +0.000 A 
ATOM     20  C   UNL     1       3.283   4.250  19.898  0.00  0.00    +0.000 A 
ATOM     21  C   UNL     1       3.883   5.118  19.005  0.00  0.00    +0.000 A 
ATOM     22  S   UNL     1       3.194   6.688  19.146  0.00  0.00    +0.000 S 
BRANCH  21  23
ATOM     23  C   UNL     1       4.940   4.839  18.018  0.00  0.00    +0.000 A 
ATOM     24  C   UNL     1       6.277   5.217  18.218  0.00  0.00    +0.000 A 
ATOM     25  C   UNL     1       7.261   4.914  17.278  0.00  0.00    +0.000 A 
ATOM     26  C   UNL     1       6.929   4.221  16.110  0.00  0.00    +0.000 A 
ATOM     27  C   UNL     1       5.608   3.842  15.889  0.00  0.00    +0.000 A 
ATOM     28  C   UNL     1       4.632   4.152  16.832  0.00  0.00    +0.000 A 
ATOM     29  F   UNL     1       3.371   3.781  16.555  0.00  0.00    +0.000 F 
ENDBRANCH  21  23
ENDBRANCH  17  18
ENDBRANCH   4  17
TORSDOF 5
ENDMDL
MODEL 6
REMARK VINA RESULT:      -6.8      5.209      9.710
REMARK  Name = 
REMARK  6 active torsions:
REMARK  status: ('A' for Active; 'I' for Inactive)
REMARK    1  A    between atoms: C_1  and  C_2
REMARK    2  A    between atoms: C_2  and  C_3
REMARK    3  A    between atoms: C_2  and  N_11
REMARK    4  A    between atoms: N_14  and  C_15
REMARK    5  A    between atoms: C_15  and  C_16
REMARK    6  A    between atoms: C_19  and  C_20
REMARK                            x       y       z     vdW  Elec       q    Type
REMARK                         _______ _______ _______ _____ _____    ______ ____
ROOT
ATOM      1  N   UNL     1       2.204   4.929  19.036  0.00  0.00    +0.000 NA
ATOM      2  C   UNL     1       1.413   5.262  20.235  0.00  0.00    +0.000 C 
ATOM      3  C   UNL     1       1.843   6.548  20.985  0.00  0.00    +0.000 C 
ATOM      4  N   UNL     1       1.996   7.751  20.137  0.00  0.00    +0.000 NA
ATOM      5  C   UNL     1       2.754   7.423  18.910  0.00  0.00    +0.000 C 
ATOM      6  C   UNL     1       2.323   6.128  18.188  0.00  0.00    +0.000 C 
ENDROOT
BRANCH   1   8
ATOM      7  C   UNL     1       3.522   3.011  20.212  0.00  0.00    +0.000 C 
ATOM      8  C   UNL     1       3.500   4.232  19.281  0.00  0.00    +0.000 C 
BRANCH   8   9
ATOM      9  C   UNL     1       4.108   3.783  17.920  0.00  0.00    +0.000 C 
ATOM     10  O   UNL     1       3.486   2.993  17.195  0.00  0.00    +0.000 OA
ATOM     11  N   UNL     1       5.334   4.282  17.514  0.00  0.00    +0.000 N 
ATOM     12  C   UNL     1       6.102   5.347  18.161  0.00  0.00    +0.000 C 
ATOM     13  C   UNL     1       6.021   6.628  17.319  0.00  0.00    +0.000 C 
ATOM     14  O   UNL     1       6.451   6.387  15.965  0.00  0.00    +0.000 OA
ATOM     15  C   UNL     1       5.656   5.359  15.346  0.00  0.00    +0.000 C 
ATOM     16  C   UNL     1       5.758   4.047  16.133  0.00  0.00    +0.000 C 
ENDBRANCH   8   9
ENDBRANCH   1   8
BRANCH   4  17
ATOM     17  C   UNL     1       0.678   8.334  19.844  0.00  0.00    +0.000 C 
BRANCH  17  18
ATOM     18  C   UNL     1       0.196   9.226  20.950  0.00  0.00    +0.000 A 
ATOM     19  C   UNL     1       0.145   8.958  22.300  0.00  0.00    +0.000 A 
ATOM     20  C   UNL     1      -0.364  10.057  23.041  0.00  0.00    +0.000 A 
ATOM     21  C   UNL     1      -0.631  11.166  22.260  0.00  0.00    +0.000 A 
ATOM     22  S   UNL     1      -0.339  10.812  20.602  0.00  0.00    +0.000 S 
BRANCH  21  23
ATOM     23  C   UNL     1      -1.076  12.505  22.682  0.00  0.00    +0.000 A 
ATOM     24  C   UNL     1      -0.336  13.667  22.413  0.00  0.00    +0.000 A 
ATOM     25  C   UNL     1      -0.798  14.923  22.801  0.00  0.00    +0.000 A 
ATOM     26  C   UNL     1      -2.018  15.049  23.471  0.00  0.00    +0.000 A 
ATOM     27  C   UNL     1      -2.767  13.909  23.753  0.00  0.00    +0.000 A 
ATOM     28  C   UNL     1      -2.296  12.659  23.364  0.00  0.00    +0.000 A 
ATOM     29  F   UNL     1      -3.048  11.592  23.683  0.00  0.00    +0.000 F 
ENDBRANCH  21  23
ENDBRANCH  17  18
ENDBRANCH   4  17
TORSDOF 5
ENDMDL
MODEL 7
REMARK VINA RESULT:      -6.7      5.391      9.769
REMARK  Name = 
REMARK  6 active torsions:
REMARK  status: ('A' for Active; 'I' for Inactive)
REMARK    1  A    between atoms: C_1  and  C_2
REMARK    2  A    between atoms: C_2  and  C_3
REMARK    3  A    between atoms: C_2  and  N_11
REMARK    4  A    between atoms: N_14  and  C_15
REMARK    5  A    between atoms: C_15  and  C_16
REMARK    6  A    between atoms: C_19  and  C_20
REMARK                            x       y       z     vdW  Elec       q    Type
REMARK                         _______ _______ _______ _____ _____    ______ ____
ROOT
ATOM      1  N   UNL     1       2.502   4.888  18.663  0.00  0.00    +0.000 NA
ATOM      2  C   UNL     1       1.593   5.076  19.809  0.00  0.00    +0.000 C 
ATOM      3  C   UNL     1       1.956   6.238  20.767  0.00  0.00    +0.000 C 
ATOM      4  N   UNL     1       2.210   7.540  20.112  0.00  0.00    +0.000 NA
ATOM      5  C   UNL     1       3.089   7.362  18.936  0.00  0.00    +0.000 C 
ATOM      6  C   UNL     1       2.723   6.186  18.003  0.00  0.00    +0.000 C 
ENDROOT
BRANCH   1   8
ATOM      7  C   UNL     1       3.677   2.832  19.757  0.00  0.00    +0.000 C 
ATOM      8  C   UNL     1       3.758   4.132  18.942  0.00  0.00    +0.000 C 
BRANCH   8   9
ATOM      9  C   UNL     1       4.462   3.788  17.597  0.00  0.00    +0.000 C 
ATOM     10  O   UNL     1       3.835   3.200  16.703  0.00  0.00    +0.000 OA
ATOM     11  N   UNL     1       5.781   4.156  17.394  0.00  0.00    +0.000 N 
ATOM     12  C   UNL     1       6.596   5.002  18.268  0.00  0.00    +0.000 C 
ATOM     13  C   UNL     1       6.781   6.383  17.623  0.00  0.00    +0.000 C 
ATOM     14  O   UNL     1       7.336   6.267  16.298  0.00  0.00    +0.000 OA
ATOM     15  C   UNL     1       6.495   5.457  15.457  0.00  0.00    +0.000 C 
ATOM     16  C   UNL     1       6.333   4.051  16.043  0.00  0.00    +0.000 C 
ENDBRANCH   8   9
ENDBRANCH   1   8
BRANCH   4  17
ATOM     17  C   UNL     1       0.936   8.189  19.767  0.00  0.00    +0.000 C 
BRANCH  17  18
ATOM     18  C   UNL     1       0.396   9.010  20.900  0.00  0.00    +0.000 A 
ATOM     19  C   UNL     1       0.539   8.794  22.253  0.00  0.00    +0.000 A 
ATOM     20  C   UNL     1      -0.108   9.797  23.024  0.00  0.00    +0.000 A 
ATOM     21  C   UNL     1      -0.676  10.795  22.254  0.00  0.00    +0.000 A 
ATOM     22  S   UNL     1      -0.488  10.439  20.582  0.00  0.00    +0.000 S 
BRANCH  21  23
ATOM     23  C   UNL     1      -1.343  12.031  22.696  0.00  0.00    +0.000 A 
ATOM     24  C   UNL     1      -2.620  12.034  23.279  0.00  0.00    +0.000 A 
ATOM     25  C   UNL     1      -3.213  13.218  23.713  0.00  0.00    +0.000 A 
ATOM     26  C   UNL     1      -2.539  14.435  23.574  0.00  0.00    +0.000 A 
ATOM     27  C   UNL     1      -1.274  14.457  22.993  0.00  0.00    +0.000 A 
ATOM     28  C   UNL     1      -0.692  13.269  22.560  0.00  0.00    +0.000 A 
ATOM     29  F   UNL     1       0.520  13.353  21.985  0.00  0.00    +0.000 F 
ENDBRANCH  21  23
ENDBRANCH  17  18
ENDBRANCH   4  17
TORSDOF 5
ENDMDL
MODEL 8
REMARK VINA RESULT:      -6.7      5.312      9.963
REMARK  Name = 
REMARK  6 active torsions:
REMARK  status: ('A' for Active; 'I' for Inactive)
REMARK    1  A    between atoms: C_1  and  C_2
REMARK    2  A    between atoms: C_2  and  C_3
REMARK    3  A    between atoms: C_2  and  N_11
REMARK    4  A    between atoms: N_14  and  C_15
REMARK    5  A    between atoms: C_15  and  C_16
REMARK    6  A    between atoms: C_19  and  C_20
REMARK                            x       y       z     vdW  Elec       q    Type
REMARK                         _______ _______ _______ _____ _____    ______ ____
ROOT
ATOM      1  N   UNL     1       4.370   6.087  18.394  0.00  0.00    +0.000 NA
ATOM      2  C   UNL     1       4.399   7.188  17.413  0.00  0.00    +0.000 C 
ATOM      3  C   UNL     1       3.017   7.657  16.894  0.00  0.00    +0.000 C 
ATOM      4  N   UNL     1       2.015   7.949  17.943  0.00  0.00    +0.000 NA
ATOM      5  C   UNL     1       2.003   6.873  18.957  0.00  0.00    +0.000 C 
ATOM      6  C   UNL     1       3.391   6.405  19.447  0.00  0.00    +0.000 C 
ENDROOT
BRANCH   1   8
ATOM      7  C   UNL     1       5.159   4.276  16.691  0.00  0.00    +0.000 C 
ATOM      8  C   UNL     1       4.227   4.713  17.831  0.00  0.00    +0.000 C 
BRANCH   8   9
ATOM      9  C   UNL     1       4.381   3.669  18.975  0.00  0.00    +0.000 C 
ATOM     10  O   UNL     1       5.456   3.574  19.587  0.00  0.00    +0.000 OA
ATOM     11  N   UNL     1       3.311   2.860  19.321  0.00  0.00    +0.000 N 
ATOM     12  C   UNL     1       1.938   2.969  18.826  0.00  0.00    +0.000 C 
ATOM     13  C   UNL     1       1.036   3.544  19.927  0.00  0.00    +0.000 C 
ATOM     14  O   UNL     1       1.123   2.758  21.132  0.00  0.00    +0.000 OA
ATOM     15  C   UNL     1       2.479   2.698  21.611  0.00  0.00    +0.000 C 
ATOM     16  C   UNL     1       3.401   2.078  20.554  0.00  0.00    +0.000 C 
ENDBRANCH   8   9
ENDBRANCH   1   8
BRANCH   4  17
ATOM     17  C   UNL     1       2.271   9.273  18.531  0.00  0.00    +0.000 C 
BRANCH  17  18
ATOM     18  C   UNL     1       1.002   9.982  18.901  0.00  0.00    +0.000 A 
ATOM     19  C   UNL     1      -0.203   9.973  18.234  0.00  0.00    +0.000 A 
ATOM     20  C   UNL     1      -1.183  10.761  18.896  0.00  0.00    +0.000 A 
ATOM     21  C   UNL     1      -0.734  11.302  20.087  0.00  0.00    +0.000 A 
ATOM     22  S   UNL     1       0.923  10.912  20.333  0.00  0.00    +0.000 S 
BRANCH  21  23
ATOM     23  C   UNL     1      -1.484  12.087  21.082  0.00  0.00    +0.000 A 
ATOM     24  C   UNL     1      -2.041  13.343  20.789  0.00  0.00    +0.000 A 
ATOM     25  C   UNL     1      -2.769  14.049  21.744  0.00  0.00    +0.000 A 
ATOM     26  C   UNL     1      -2.961  13.514  23.021  0.00  0.00    +0.000 A 
ATOM     27  C   UNL     1      -2.414  12.273  23.335  0.00  0.00    +0.000 A 
ATOM     28  C   UNL     1      -1.685  11.577  22.376  0.00  0.00    +0.000 A 
ATOM     29  F   UNL     1      -1.160  10.395  22.741  0.00  0.00    +0.000 F 
ENDBRANCH  21  23
ENDBRANCH  17  18
ENDBRANCH   4  17
TORSDOF 5
ENDMDL
MODEL 9
REMARK VINA RESULT:      -6.7      4.730      9.391
REMARK  Name = 
REMARK  6 active torsions:
REMARK  status: ('A' for Active; 'I' for Inactive)
REMARK    1  A    between atoms: C_1  and  C_2
REMARK    2  A    between atoms: C_2  and  C_3
REMARK    3  A    between atoms: C_2  and  N_11
REMARK    4  A    between atoms: N_14  and  C_15
REMARK    5  A    between atoms: C_15  and  C_16
REMARK    6  A    between atoms: C_19  and  C_20
REMARK                            x       y       z     vdW  Elec       q    Type
REMARK                         _______ _______ _______ _____ _____    ______ ____
ROOT
ATOM      1  N   UNL     1       2.724   5.212  18.573  0.00  0.00    +0.000 NA
ATOM      2  C   UNL     1       1.859   5.928  19.528  0.00  0.00    +0.000 C 
ATOM      3  C   UNL     1       2.309   7.365  19.892  0.00  0.00    +0.000 C 
ATOM      4  N   UNL     1       2.612   8.242  18.740  0.00  0.00    +0.000 NA
ATOM      5  C   UNL     1       3.447   7.524  17.753  0.00  0.00    +0.000 C 
ATOM      6  C   UNL     1       2.994   6.086  17.418  0.00  0.00    +0.000 C 
ENDROOT
BRANCH   1   8
ATOM      7  C   UNL     1       3.783   3.443  20.169  0.00  0.00    +0.000 C 
ATOM      8  C   UNL     1       3.946   4.577  19.146  0.00  0.00    +0.000 C 
BRANCH   8   9
ATOM      9  C   UNL     1       4.832   4.027  17.990  0.00  0.00    +0.000 C 
ATOM     10  O   UNL     1       4.376   3.180  17.209  0.00  0.00    +0.000 OA
ATOM     11  N   UNL     1       6.123   4.502  17.824  0.00  0.00    +0.000 N 
ATOM     12  C   UNL     1       6.741   5.619  18.540  0.00  0.00    +0.000 C 
ATOM     13  C   UNL     1       6.859   6.831  17.604  0.00  0.00    +0.000 C 
ATOM     14  O   UNL     1       7.573   6.488  16.400  0.00  0.00    +0.000 OA
ATOM     15  C   UNL     1       6.921   5.410  15.704  0.00  0.00    +0.000 C 
ATOM     16  C   UNL     1       6.835   4.164  16.592  0.00  0.00    +0.000 C 
ENDBRANCH   8   9
ENDBRANCH   1   8
BRANCH   4  17
ATOM     17  C   UNL     1       1.364   8.754  18.153  0.00  0.00    +0.000 C 
BRANCH  17  18
ATOM     18  C   UNL     1       0.836   9.944  18.899  0.00  0.00    +0.000 A 
ATOM     19  C   UNL     1       1.309  11.238  18.884  0.00  0.00    +0.000 A 
ATOM     20  C   UNL     1       0.540  12.094  19.715  0.00  0.00    +0.000 A 
ATOM     21  C   UNL     1      -0.543  11.462  20.298  0.00  0.00    +0.000 A 
ATOM     22  S   UNL     1      -0.549   9.791  19.889  0.00  0.00    +0.000 S 
BRANCH  21  23
ATOM     23  C   UNL     1      -1.606  12.041  21.137  0.00  0.00    +0.000 A 
ATOM     24  C   UNL     1      -2.640  12.830  20.609  0.00  0.00    +0.000 A 
ATOM     25  C   UNL     1      -3.647  13.340  21.425  0.00  0.00    +0.000 A 
ATOM     26  C   UNL     1      -3.646  13.072  22.797  0.00  0.00    +0.000 A 
ATOM     27  C   UNL     1      -2.627  12.297  23.343  0.00  0.00    +0.000 A 
ATOM     28  C   UNL     1      -1.623  11.794  22.521  0.00  0.00    +0.000 A 
ATOM     29  F   UNL     1      -0.653  11.072  23.105  0.00  0.00    +0.000 F 
ENDBRANCH  21  23
ENDBRANCH  17  18
ENDBRANCH   4  17
TORSDOF 5
ENDMDL
