MODEL 1
REMARK VINA RESULT:      -8.8      0.000      0.000
REMARK  Name = 
REMARK  3 active torsions:
REMARK  status: ('A' for Active; 'I' for Inactive)
REMARK    1  A    between atoms: N_3  and  C_4
REMARK    2  A    between atoms: C_15  and  C_16
REMARK    3  A    between atoms: C_16  and  C_17
REMARK                            x       y       z     vdW  Elec       q    Type
REMARK                         _______ _______ _______ _____ _____    ______ ____
ROOT
ATOM      1  O   UNL     1       7.790   9.252  17.622  0.00  0.00    +0.000 OA
ATOM      2  C   UNL     1       8.501   8.892  18.556  0.00  0.00    +0.000 C 
ATOM      3  N   UNL     1       9.446   9.707  19.164  0.00  0.00    +0.000 N 
ATOM      4  N   UNL     1       8.489   7.622  19.086  0.00  0.00    +0.000 N 
ATOM      5  C   UNL     1       7.786   6.554  18.557  0.00  0.00    +0.000 A 
ATOM      6  N   UNL     1       8.063   5.308  18.872  0.00  0.00    +0.000 NA
ATOM      7  N   UNL     1       7.276   4.408  18.178  0.00  0.00    +0.000 NA
ATOM      8  C   UNL     1       6.412   5.011  17.382  0.00  0.00    +0.000 A 
ATOM      9  S   UNL     1       6.476   6.723  17.477  0.00  0.00    +0.000 S 
ATOM     10  H   UNL     1      10.145   9.260  19.736  0.00  0.00    +0.000 HD
ATOM     11  H   UNL     1       9.168   7.359  19.780  0.00  0.00    +0.000 HD
ENDROOT
BRANCH   3  12
ATOM     12  C   UNL     1       9.723  11.043  18.780  0.00  0.00    +0.000 A 
ATOM     13  C   UNL     1       9.043  12.148  19.306  0.00  0.00    +0.000 A 
ATOM     14  C   UNL     1       9.280  13.434  18.822  0.00  0.00    +0.000 A 
ATOM     15  C   UNL     1      10.213  13.622  17.816  0.00  0.00    +0.000 A 
ATOM     16  F   UNL     1      10.416  14.852  17.323  0.00  0.00    +0.000 F 
ATOM     17  C   UNL     1      10.937  12.549  17.308  0.00  0.00    +0.000 A 
ATOM     18  C   UNL     1      10.705  11.260  17.802  0.00  0.00    +0.000 A 
ENDBRANCH   3  12
BRANCH   8  19
ATOM     19  C   UNL     1       5.421   4.312  16.500  0.00  0.00    +0.000 C 
BRANCH  19  20
ATOM     20  C   UNL     1       4.105   3.977  17.175  0.00  0.00    +0.000 A 
ATOM     21  C   UNL     1       3.200   4.990  17.531  0.00  0.00    +0.000 A 
ATOM     22  C   UNL     1       1.966   4.674  18.103  0.00  0.00    +0.000 A 
ATOM     23  C   UNL     1       1.612   3.343  18.314  0.00  0.00    +0.000 A 
ATOM     24  C   UNL     1       2.498   2.327  17.963  0.00  0.00    +0.000 A 
ATOM     25  C   UNL     1       3.739   2.640  17.402  0.00  0.00    +0.000 A 
ENDBRANCH  19  20
ENDBRANCH   8  19
TORSDOF 3
ENDMDL
MODEL 2
REMARK VINA RESULT:      -8.7      0.322      1.033
REMARK  Name = 
REMARK  3 active torsions:
REMARK  status: ('A' for Active; 'I' for Inactive)
REMARK    1  A    between atoms: N_3  and  C_4
REMARK    2  A    between atoms: C_15  and  C_16
REMARK    3  A    between atoms: C_16  and  C_17
REMARK                            x       y       z     vdW  Elec       q    Type
REMARK                         _______ _______ _______ _____ _____    ______ ____
ROOT
ATOM      1  O   UNL     1       7.740   9.233  17.698  0.00  0.00    +0.000 OA
ATOM      2  C   UNL     1       8.476   8.834  18.596  0.00  0.00    +0.000 C 
ATOM      3  N   UNL     1       9.445   9.620  19.205  0.00  0.00    +0.000 N 
ATOM      4  N   UNL     1       8.469   7.545  19.079  0.00  0.00    +0.000 N 
ATOM      5  C   UNL     1       7.743   6.502  18.534  0.00  0.00    +0.000 A 
ATOM      6  N   UNL     1       8.020   5.243  18.795  0.00  0.00    +0.000 NA
ATOM      7  N   UNL     1       7.204   4.375  18.092  0.00  0.00    +0.000 NA
ATOM      8  C   UNL     1       6.322   5.012  17.345  0.00  0.00    +0.000 A 
ATOM      9  S   UNL     1       6.402   6.719  17.500  0.00  0.00    +0.000 S 
ATOM     10  H   UNL     1      10.157   9.147  19.739  0.00  0.00    +0.000 HD
ATOM     11  H   UNL     1       9.167   7.253  19.742  0.00  0.00    +0.000 HD
ENDROOT
BRANCH   3  12
ATOM     12  C   UNL     1       9.720  10.967  18.861  0.00  0.00    +0.000 A 
ATOM     13  C   UNL     1      10.445  11.332  17.720  0.00  0.00    +0.000 A 
ATOM     14  C   UNL     1      10.778  12.665  17.477  0.00  0.00    +0.000 A 
ATOM     15  C   UNL     1      10.374  13.641  18.372  0.00  0.00    +0.000 A 
ATOM     16  F   UNL     1      10.724  14.918  18.161  0.00  0.00    +0.000 F 
ATOM     17  C   UNL     1       9.613  13.312  19.487  0.00  0.00    +0.000 A 
ATOM     18  C   UNL     1       9.271  11.976  19.724  0.00  0.00    +0.000 A 
ENDBRANCH   3  12
BRANCH   8  19
ATOM     19  C   UNL     1       5.299   4.353  16.469  0.00  0.00    +0.000 C 
BRANCH  19  20
ATOM     20  C   UNL     1       4.028   3.943  17.185  0.00  0.00    +0.000 A 
ATOM     21  C   UNL     1       3.049   4.893  17.514  0.00  0.00    +0.000 A 
ATOM     22  C   UNL     1       1.854   4.504  18.126  0.00  0.00    +0.000 A 
ATOM     23  C   UNL     1       1.615   3.160  18.403  0.00  0.00    +0.000 A 
ATOM     24  C   UNL     1       2.576   2.205  18.079  0.00  0.00    +0.000 A 
ATOM     25  C   UNL     1       3.777   2.592  17.479  0.00  0.00    +0.000 A 
ENDBRANCH  19  20
ENDBRANCH   8  19
TORSDOF 3
ENDMDL
MODEL 3
REMARK VINA RESULT:      -8.7      0.234      1.435
REMARK  Name = 
REMARK  3 active torsions:
REMARK  status: ('A' for Active; 'I' for Inactive)
REMARK    1  A    between atoms: N_3  and  C_4
REMARK    2  A    between atoms: C_15  and  C_16
REMARK    3  A    between atoms: C_16  and  C_17
REMARK                            x       y       z     vdW  Elec       q    Type
REMARK                         _______ _______ _______ _____ _____    ______ ____
ROOT
ATOM      1  O   UNL     1       7.784   9.216  17.605  0.00  0.00    +0.000 OA
ATOM      2  C   UNL     1       8.487   8.848  18.542  0.00  0.00    +0.000 C 
ATOM      3  N   UNL     1       9.432   9.655  19.161  0.00  0.00    +0.000 N 
ATOM      4  N   UNL     1       8.464   7.576  19.067  0.00  0.00    +0.000 N 
ATOM      5  C   UNL     1       7.759   6.514  18.529  0.00  0.00    +0.000 A 
ATOM      6  N   UNL     1       8.027   5.265  18.841  0.00  0.00    +0.000 NA
ATOM      7  N   UNL     1       7.240   4.372  18.137  0.00  0.00    +0.000 NA
ATOM      8  C   UNL     1       6.385   4.983  17.338  0.00  0.00    +0.000 A 
ATOM      9  S   UNL     1       6.457   6.694  17.440  0.00  0.00    +0.000 S 
ATOM     10  H   UNL     1      10.124   9.202  19.736  0.00  0.00    +0.000 HD
ATOM     11  H   UNL     1       9.136   7.307  19.765  0.00  0.00    +0.000 HD
ENDROOT
BRANCH   3  12
ATOM     12  C   UNL     1       9.719  10.991  18.784  0.00  0.00    +0.000 A 
ATOM     13  C   UNL     1      10.557  11.320  17.711  0.00  0.00    +0.000 A 
ATOM     14  C   UNL     1      10.890  12.647  17.441  0.00  0.00    +0.000 A 
ATOM     15  C   UNL     1      10.373  13.655  18.238  0.00  0.00    +0.000 A 
ATOM     16  F   UNL     1      10.721  14.928  18.005  0.00  0.00    +0.000 F 
ATOM     17  C   UNL     1       9.502  13.360  19.281  0.00  0.00    +0.000 A 
ATOM     18  C   UNL     1       9.160  12.028  19.543  0.00  0.00    +0.000 A 
ENDBRANCH   3  12
BRANCH   8  19
ATOM     19  C   UNL     1       5.396   4.293  16.446  0.00  0.00    +0.000 C 
BRANCH  19  20
ATOM     20  C   UNL     1       4.072   3.969  17.109  0.00  0.00    +0.000 A 
ATOM     21  C   UNL     1       3.711   2.641  17.384  0.00  0.00    +0.000 A 
ATOM     22  C   UNL     1       2.515   2.349  18.044  0.00  0.00    +0.000 A 
ATOM     23  C   UNL     1       1.670   3.379  18.450  0.00  0.00    +0.000 A 
ATOM     24  C   UNL     1       2.016   4.703  18.187  0.00  0.00    +0.000 A 
ATOM     25  C   UNL     1       3.205   4.998  17.516  0.00  0.00    +0.000 A 
ENDBRANCH  19  20
ENDBRANCH   8  19
TORSDOF 3
ENDMDL
MODEL 4
REMARK VINA RESULT:      -8.4      1.988      3.450
REMARK  Name = 
REMARK  3 active torsions:
REMARK  status: ('A' for Active; 'I' for Inactive)
REMARK    1  A    between atoms: N_3  and  C_4
REMARK    2  A    between atoms: C_15  and  C_16
REMARK    3  A    between atoms: C_16  and  C_17
REMARK                            x       y       z     vdW  Elec       q    Type
REMARK                         _______ _______ _______ _____ _____    ______ ____
ROOT
ATOM      1  O   UNL     1       7.827   9.229  17.627  0.00  0.00    +0.000 OA
ATOM      2  C   UNL     1       8.462   8.789  18.581  0.00  0.00    +0.000 C 
ATOM      3  N   UNL     1       9.362   9.543  19.322  0.00  0.00    +0.000 N 
ATOM      4  N   UNL     1       8.402   7.482  19.007  0.00  0.00    +0.000 N 
ATOM      5  C   UNL     1       7.736   6.467  18.345  0.00  0.00    +0.000 A 
ATOM      6  N   UNL     1       7.981   5.197  18.581  0.00  0.00    +0.000 NA
ATOM      7  N   UNL     1       7.244   4.363  17.760  0.00  0.00    +0.000 NA
ATOM      8  C   UNL     1       6.447   5.035  16.951  0.00  0.00    +0.000 A 
ATOM      9  S   UNL     1       6.514   6.734  17.184  0.00  0.00    +0.000 S 
ATOM     10  H   UNL     1      10.012   9.045  19.909  0.00  0.00    +0.000 HD
ATOM     11  H   UNL     1       9.024   7.158  19.728  0.00  0.00    +0.000 HD
ENDROOT
BRANCH   3  12
ATOM     12  C   UNL     1       9.676  10.902  19.065  0.00  0.00    +0.000 A 
ATOM     13  C   UNL     1      10.288  11.335  17.883  0.00  0.00    +0.000 A 
ATOM     14  C   UNL     1      10.669  12.667  17.719  0.00  0.00    +0.000 A 
ATOM     15  C   UNL     1      10.425  13.576  18.735  0.00  0.00    +0.000 A 
ATOM     16  F   UNL     1      10.823  14.848  18.596  0.00  0.00    +0.000 F 
ATOM     17  C   UNL     1       9.776  13.182  19.899  0.00  0.00    +0.000 A 
ATOM     18  C   UNL     1       9.385  11.847  20.058  0.00  0.00    +0.000 A 
ENDBRANCH   3  12
BRANCH   8  19
ATOM     19  C   UNL     1       5.523   4.419  15.944  0.00  0.00    +0.000 C 
BRANCH  19  20
ATOM     20  C   UNL     1       6.102   4.302  14.548  0.00  0.00    +0.000 A 
ATOM     21  C   UNL     1       5.483   3.498  13.577  0.00  0.00    +0.000 A 
ATOM     22  C   UNL     1       5.988   3.435  12.276  0.00  0.00    +0.000 A 
ATOM     23  C   UNL     1       7.109   4.184  11.923  0.00  0.00    +0.000 A 
ATOM     24  C   UNL     1       7.731   4.989  12.875  0.00  0.00    +0.000 A 
ATOM     25  C   UNL     1       7.236   5.045  14.180  0.00  0.00    +0.000 A 
ENDBRANCH  19  20
ENDBRANCH   8  19
TORSDOF 3
ENDMDL
MODEL 5
REMARK VINA RESULT:      -8.4      2.027      2.357
REMARK  Name = 
REMARK  3 active torsions:
REMARK  status: ('A' for Active; 'I' for Inactive)
REMARK    1  A    between atoms: N_3  and  C_4
REMARK    2  A    between atoms: C_15  and  C_16
REMARK    3  A    between atoms: C_16  and  C_17
REMARK                            x       y       z     vdW  Elec       q    Type
REMARK                         _______ _______ _______ _____ _____    ______ ____
ROOT
ATOM      1  O   UNL     1       8.445   7.835  18.832  0.00  0.00    +0.000 OA
ATOM      2  C   UNL     1       7.981   8.518  17.923  0.00  0.00    +0.000 C 
ATOM      3  N   UNL     1       8.403   9.810  17.638  0.00  0.00    +0.000 N 
ATOM      4  N   UNL     1       6.953   8.112  17.104  0.00  0.00    +0.000 N 
ATOM      5  C   UNL     1       6.217   6.954  17.277  0.00  0.00    +0.000 A 
ATOM      6  N   UNL     1       5.048   6.773  16.703  0.00  0.00    +0.000 NA
ATOM      7  N   UNL     1       4.469   5.571  17.068  0.00  0.00    +0.000 NA
ATOM      8  C   UNL     1       5.237   4.875  17.885  0.00  0.00    +0.000 A 
ATOM      9  S   UNL     1       6.743   5.628  18.215  0.00  0.00    +0.000 S 
ATOM     10  H   UNL     1       7.805  10.375  17.056  0.00  0.00    +0.000 HD
ATOM     11  H   UNL     1       6.548   8.757  16.446  0.00  0.00    +0.000 HD
ENDROOT
BRANCH   3  12
ATOM     12  C   UNL     1       9.401  10.509  18.363  0.00  0.00    +0.000 A 
ATOM     13  C   UNL     1       9.346  10.702  19.748  0.00  0.00    +0.000 A 
ATOM     14  C   UNL     1      10.299  11.482  20.402  0.00  0.00    +0.000 A 
ATOM     15  C   UNL     1      11.322  12.063  19.671  0.00  0.00    +0.000 A 
ATOM     16  F   UNL     1      12.218  12.845  20.291  0.00  0.00    +0.000 F 
ATOM     17  C   UNL     1      11.427  11.849  18.302  0.00  0.00    +0.000 A 
ATOM     18  C   UNL     1      10.476  11.057  17.649  0.00  0.00    +0.000 A 
ENDBRANCH   3  12
BRANCH   8  19
ATOM     19  C   UNL     1       4.892   3.532  18.457  0.00  0.00    +0.000 C 
BRANCH  19  20
ATOM     20  C   UNL     1       3.452   3.393  18.910  0.00  0.00    +0.000 A 
ATOM     21  C   UNL     1       2.559   2.554  18.225  0.00  0.00    +0.000 A 
ATOM     22  C   UNL     1       1.249   2.386  18.677  0.00  0.00    +0.000 A 
ATOM     23  C   UNL     1       0.815   3.042  19.827  0.00  0.00    +0.000 A 
ATOM     24  C   UNL     1       1.690   3.876  20.520  0.00  0.00    +0.000 A 
ATOM     25  C   UNL     1       2.998   4.056  20.063  0.00  0.00    +0.000 A 
ENDBRANCH  19  20
ENDBRANCH   8  19
TORSDOF 3
ENDMDL
MODEL 6
REMARK VINA RESULT:      -8.4      1.989      3.335
REMARK  Name = 
REMARK  3 active torsions:
REMARK  status: ('A' for Active; 'I' for Inactive)
REMARK    1  A    between atoms: N_3  and  C_4
REMARK    2  A    between atoms: C_15  and  C_16
REMARK    3  A    between atoms: C_16  and  C_17
REMARK                            x       y       z     vdW  Elec       q    Type
REMARK                         _______ _______ _______ _____ _____    ______ ____
ROOT
ATOM      1  O   UNL     1       7.845   9.220  17.673  0.00  0.00    +0.000 OA
ATOM      2  C   UNL     1       8.482   8.774  18.623  0.00  0.00    +0.000 C 
ATOM      3  N   UNL     1       9.373   9.527  19.376  0.00  0.00    +0.000 N 
ATOM      4  N   UNL     1       8.432   7.461  19.033  0.00  0.00    +0.000 N 
ATOM      5  C   UNL     1       7.777   6.448  18.356  0.00  0.00    +0.000 A 
ATOM      6  N   UNL     1       8.033   5.177  18.577  0.00  0.00    +0.000 NA
ATOM      7  N   UNL     1       7.306   4.348  17.743  0.00  0.00    +0.000 NA
ATOM      8  C   UNL     1       6.506   5.023  16.941  0.00  0.00    +0.000 A 
ATOM      9  S   UNL     1       6.556   6.719  17.195  0.00  0.00    +0.000 S 
ATOM     10  H   UNL     1      10.026   9.027  19.958  0.00  0.00    +0.000 HD
ATOM     11  H   UNL     1       9.055   7.134  19.752  0.00  0.00    +0.000 HD
ENDROOT
BRANCH   3  12
ATOM     12  C   UNL     1       9.674  10.891  19.138  0.00  0.00    +0.000 A 
ATOM     13  C   UNL     1       9.380  11.911  20.051  0.00  0.00    +0.000 A 
ATOM     14  C   UNL     1       9.604  13.250  19.730  0.00  0.00    +0.000 A 
ATOM     15  C   UNL     1      10.137  13.573  18.493  0.00  0.00    +0.000 A 
ATOM     16  F   UNL     1      10.317  14.860  18.166  0.00  0.00    +0.000 F 
ATOM     17  C   UNL     1      10.482  12.578  17.585  0.00  0.00    +0.000 A 
ATOM     18  C   UNL     1      10.267  11.234  17.914  0.00  0.00    +0.000 A 
ENDBRANCH   3  12
BRANCH   8  19
ATOM     19  C   UNL     1       5.589   4.411  15.923  0.00  0.00    +0.000 C 
BRANCH  19  20
ATOM     20  C   UNL     1       6.168   4.328  14.525  0.00  0.00    +0.000 A 
ATOM     21  C   UNL     1       5.568   3.523  13.544  0.00  0.00    +0.000 A 
ATOM     22  C   UNL     1       6.072   3.491  12.242  0.00  0.00    +0.000 A 
ATOM     23  C   UNL     1       7.173   4.272  11.897  0.00  0.00    +0.000 A 
ATOM     24  C   UNL     1       7.778   5.078  12.859  0.00  0.00    +0.000 A 
ATOM     25  C   UNL     1       7.284   5.104  14.166  0.00  0.00    +0.000 A 
ENDBRANCH  19  20
ENDBRANCH   8  19
TORSDOF 3
ENDMDL
MODEL 7
REMARK VINA RESULT:      -8.4      2.037      2.244
REMARK  Name = 
REMARK  3 active torsions:
REMARK  status: ('A' for Active; 'I' for Inactive)
REMARK    1  A    between atoms: N_3  and  C_4
REMARK    2  A    between atoms: C_15  and  C_16
REMARK    3  A    between atoms: C_16  and  C_17
REMARK                            x       y       z     vdW  Elec       q    Type
REMARK                         _______ _______ _______ _____ _____    ______ ____
ROOT
ATOM      1  O   UNL     1       8.419   7.798  18.797  0.00  0.00    +0.000 OA
ATOM      2  C   UNL     1       7.941   8.499  17.910  0.00  0.00    +0.000 C 
ATOM      3  N   UNL     1       8.354   9.798  17.648  0.00  0.00    +0.000 N 
ATOM      4  N   UNL     1       6.902   8.108  17.096  0.00  0.00    +0.000 N 
ATOM      5  C   UNL     1       6.173   6.943  17.254  0.00  0.00    +0.000 A 
ATOM      6  N   UNL     1       4.997   6.771  16.692  0.00  0.00    +0.000 NA
ATOM      7  N   UNL     1       4.427   5.560  17.038  0.00  0.00    +0.000 NA
ATOM      8  C   UNL     1       5.208   4.848  17.829  0.00  0.00    +0.000 A 
ATOM      9  S   UNL     1       6.716   5.599  18.155  0.00  0.00    +0.000 S 
ATOM     10  H   UNL     1       7.746  10.374  17.087  0.00  0.00    +0.000 HD
ATOM     11  H   UNL     1       6.487   8.765  16.459  0.00  0.00    +0.000 HD
ENDROOT
BRANCH   3  12
ATOM     12  C   UNL     1       9.360  10.484  18.374  0.00  0.00    +0.000 A 
ATOM     13  C   UNL     1       9.309  10.672  19.761  0.00  0.00    +0.000 A 
ATOM     14  C   UNL     1      10.270  11.441  20.417  0.00  0.00    +0.000 A 
ATOM     15  C   UNL     1      11.297  12.015  19.686  0.00  0.00    +0.000 A 
ATOM     16  F   UNL     1      12.201  12.785  20.308  0.00  0.00    +0.000 F 
ATOM     17  C   UNL     1      11.398  11.806  18.316  0.00  0.00    +0.000 A 
ATOM     18  C   UNL     1      10.439  11.025  17.661  0.00  0.00    +0.000 A 
ENDBRANCH   3  12
BRANCH   8  19
ATOM     19  C   UNL     1       4.875   3.492  18.376  0.00  0.00    +0.000 C 
BRANCH  19  20
ATOM     20  C   UNL     1       3.467   3.363  18.922  0.00  0.00    +0.000 A 
ATOM     21  C   UNL     1       3.075   4.064  20.074  0.00  0.00    +0.000 A 
ATOM     22  C   UNL     1       1.762   3.986  20.543  0.00  0.00    +0.000 A 
ATOM     23  C   UNL     1       0.819   3.218  19.863  0.00  0.00    +0.000 A 
ATOM     24  C   UNL     1       1.192   2.519  18.717  0.00  0.00    +0.000 A 
ATOM     25  C   UNL     1       2.508   2.586  18.251  0.00  0.00    +0.000 A 
ENDBRANCH  19  20
ENDBRANCH   8  19
TORSDOF 3
ENDMDL
MODEL 8
REMARK VINA RESULT:      -8.4      2.075      3.402
REMARK  Name = 
REMARK  3 active torsions:
REMARK  status: ('A' for Active; 'I' for Inactive)
REMARK    1  A    between atoms: N_3  and  C_4
REMARK    2  A    between atoms: C_15  and  C_16
REMARK    3  A    between atoms: C_16  and  C_17
REMARK                            x       y       z     vdW  Elec       q    Type
REMARK                         _______ _______ _______ _____ _____    ______ ____
ROOT
ATOM      1  O   UNL     1       7.804   9.216  17.673  0.00  0.00    +0.000 OA
ATOM      2  C   UNL     1       8.448   8.722  18.594  0.00  0.00    +0.000 C 
ATOM      3  N   UNL     1       9.372   9.427  19.354  0.00  0.00    +0.000 N 
ATOM      4  N   UNL     1       8.375   7.397  18.959  0.00  0.00    +0.000 N 
ATOM      5  C   UNL     1       7.682   6.424  18.261  0.00  0.00    +0.000 A 
ATOM      6  N   UNL     1       7.912   5.141  18.433  0.00  0.00    +0.000 NA
ATOM      7  N   UNL     1       7.148   4.358  17.587  0.00  0.00    +0.000 NA
ATOM      8  C   UNL     1       6.348   5.080  16.824  0.00  0.00    +0.000 A 
ATOM      9  S   UNL     1       6.445   6.765  17.136  0.00  0.00    +0.000 S 
ATOM     10  H   UNL     1      10.024   8.892  19.904  0.00  0.00    +0.000 HD
ATOM     11  H   UNL     1       9.004   7.031  19.653  0.00  0.00    +0.000 HD
ENDROOT
BRANCH   3  12
ATOM     12  C   UNL     1       9.702  10.792  19.156  0.00  0.00    +0.000 A 
ATOM     13  C   UNL     1       9.964  11.340  17.895  0.00  0.00    +0.000 A 
ATOM     14  C   UNL     1      10.383  12.664  17.761  0.00  0.00    +0.000 A 
ATOM     15  C   UNL     1      10.529  13.450  18.892  0.00  0.00    +0.000 A 
ATOM     16  F   UNL     1      10.969  14.710  18.770  0.00  0.00    +0.000 F 
ATOM     17  C   UNL     1      10.231  12.944  20.152  0.00  0.00    +0.000 A 
ATOM     18  C   UNL     1       9.800  11.619  20.283  0.00  0.00    +0.000 A 
ENDBRANCH   3  12
BRANCH   8  19
ATOM     19  C   UNL     1       5.397   4.526  15.806  0.00  0.00    +0.000 C 
BRANCH  19  20
ATOM     20  C   UNL     1       5.975   4.397  14.411  0.00  0.00    +0.000 A 
ATOM     21  C   UNL     1       7.153   5.073  14.054  0.00  0.00    +0.000 A 
ATOM     22  C   UNL     1       7.713   4.908  12.785  0.00  0.00    +0.000 A 
ATOM     23  C   UNL     1       7.114   4.056  11.860  0.00  0.00    +0.000 A 
ATOM     24  C   UNL     1       5.946   3.376  12.200  0.00  0.00    +0.000 A 
ATOM     25  C   UNL     1       5.377   3.548  13.464  0.00  0.00    +0.000 A 
ENDBRANCH  19  20
ENDBRANCH   8  19
TORSDOF 3
ENDMDL
MODEL 9
REMARK VINA RESULT:      -8.3      2.008      3.253
REMARK  Name = 
REMARK  3 active torsions:
REMARK  status: ('A' for Active; 'I' for Inactive)
REMARK    1  A    between atoms: N_3  and  C_4
REMARK    2  A    between atoms: C_15  and  C_16
REMARK    3  A    between atoms: C_16  and  C_17
REMARK                            x       y       z     vdW  Elec       q    Type
REMARK                         _______ _______ _______ _____ _____    ______ ____
ROOT
ATOM      1  O   UNL     1       7.743   9.273  17.663  0.00  0.00    +0.000 OA
ATOM      2  C   UNL     1       8.408   8.799  18.580  0.00  0.00    +0.000 C 
ATOM      3  N   UNL     1       9.321   9.530  19.328  0.00  0.00    +0.000 N 
ATOM      4  N   UNL     1       8.371   7.474  18.950  0.00  0.00    +0.000 N 
ATOM      5  C   UNL     1       7.697   6.481  18.262  0.00  0.00    +0.000 A 
ATOM      6  N   UNL     1       7.960   5.205  18.436  0.00  0.00    +0.000 NA
ATOM      7  N   UNL     1       7.208   4.400  17.600  0.00  0.00    +0.000 NA
ATOM      8  C   UNL     1       6.384   5.099  16.843  0.00  0.00    +0.000 A 
ATOM      9  S   UNL     1       6.441   6.786  17.147  0.00  0.00    +0.000 S 
ATOM     10  H   UNL     1       9.991   9.013  19.875  0.00  0.00    +0.000 HD
ATOM     11  H   UNL     1       9.015   7.126  19.639  0.00  0.00    +0.000 HD
ENDROOT
BRANCH   3  12
ATOM     12  C   UNL     1       9.614  10.901  19.123  0.00  0.00    +0.000 A 
ATOM     13  C   UNL     1       9.311  11.897  20.059  0.00  0.00    +0.000 A 
ATOM     14  C   UNL     1       9.527  13.244  19.770  0.00  0.00    +0.000 A 
ATOM     15  C   UNL     1      10.061  13.600  18.542  0.00  0.00    +0.000 A 
ATOM     16  F   UNL     1      10.235  14.896  18.246  0.00  0.00    +0.000 F 
ATOM     17  C   UNL     1      10.415  12.629  17.612  0.00  0.00    +0.000 A 
ATOM     18  C   UNL     1      10.207  11.277  17.909  0.00  0.00    +0.000 A 
ENDBRANCH   3  12
BRANCH   8  19
ATOM     19  C   UNL     1       5.438   4.517  15.835  0.00  0.00    +0.000 C 
BRANCH  19  20
ATOM     20  C   UNL     1       6.002   4.407  14.433  0.00  0.00    +0.000 A 
ATOM     21  C   UNL     1       7.156   5.117  14.064  0.00  0.00    +0.000 A 
ATOM     22  C   UNL     1       7.705   4.971  12.787  0.00  0.00    +0.000 A 
ATOM     23  C   UNL     1       7.118   4.104  11.868  0.00  0.00    +0.000 A 
ATOM     24  C   UNL     1       5.975   3.391  12.220  0.00  0.00    +0.000 A 
ATOM     25  C   UNL     1       5.416   3.543  13.492  0.00  0.00    +0.000 A 
ENDBRANCH  19  20
ENDBRANCH   8  19
TORSDOF 3
ENDMDL
