MODEL 1
REMARK VINA RESULT:      -6.2      0.000      0.000
REMARK  Name = 
REMARK  3 active torsions:
REMARK  status: ('A' for Active; 'I' for Inactive)
REMARK    1  A    between atoms: C_1  and  O_2
REMARK    2  A    between atoms: O_2  and  C_3
REMARK    3  A    between atoms: C_3  and  C_5
REMARK                            x       y       z     vdW  Elec       q    Type
REMARK                         _______ _______ _______ _____ _____    ______ ____
ROOT
ATOM      1  C   UNL     1      10.085  15.043  17.822  0.00  0.00    +0.000 C 
ATOM      2  C   UNL     1      10.404  13.606  17.729  0.00  0.00    +0.000 C 
ATOM      3  C   UNL     1       9.182  12.844  18.273  0.00  0.00    +0.000 C 
ATOM      4  C   UNL     1       9.580  11.373  17.982  0.00  0.00    +0.000 C 
ATOM      5  C   UNL     1       9.270  10.409  19.118  0.00  0.00    +0.000 C 
ATOM      6  C   UNL     1       9.861  10.916  20.447  0.00  0.00    +0.000 C 
ATOM      7  N   UNL     1       9.672  12.343  20.702  0.00  0.00    +0.000 NA
ATOM      8  C   UNL     1       9.167  12.672  22.007  0.00  0.00    +0.000 C 
ATOM      9  C   UNL     1       8.041  13.625  21.682  0.00  0.00    +0.000 C 
ATOM     10  C   UNL     1       8.302  14.483  20.377  0.00  0.00    +0.000 C 
ATOM     11  C   UNL     1       8.346  15.885  21.261  0.00  0.00    +0.000 A 
ATOM     12  C   UNL     1       7.941  16.324  22.545  0.00  0.00    +0.000 A 
ATOM     13  C   UNL     1       8.134  17.657  22.990  0.00  0.00    +0.000 A 
ATOM     14  C   UNL     1       8.719  18.629  22.190  0.00  0.00    +0.000 A 
ATOM     15  C   UNL     1       9.157  18.237  20.928  0.00  0.00    +0.000 A 
ATOM     16  C   UNL     1       8.964  16.908  20.576  0.00  0.00    +0.000 A 
ATOM     17  N   UNL     1       9.780  16.310  19.684  0.00  0.00    +0.000 N 
ATOM     18  C   UNL     1      11.004  15.855  20.325  0.00  0.00    +0.000 C 
ATOM     19  O   UNL     1      11.723  14.915  20.003  0.00  0.00    +0.000 OA
ATOM     20  C   UNL     1       9.092  15.237  19.058  0.00  0.00    +0.000 C 
ATOM     21  C   UNL     1       7.766  15.026  18.140  0.00  0.00    +0.000 C 
ATOM     22  C   UNL     1       7.916  13.490  17.579  0.00  0.00    +0.000 C 
ATOM     23  C   UNL     1       8.794  13.024  19.777  0.00  0.00    +0.000 C 
ENDROOT
BRANCH   1  24
ATOM     24  C   UNL     1      11.204  16.021  17.301  0.00  0.00    +0.000 C 
ATOM     25  O   UNL     1      12.318  15.591  16.998  0.00  0.00    +0.000 OA
BRANCH  24  27
ATOM     26  C   UNL     1      11.685  18.371  17.438  0.00  0.00    +0.000 C 
ATOM     27  O   UNL     1      10.825  17.297  17.041  0.00  0.00    +0.000 OA
ENDBRANCH  24  27
ENDBRANCH   1  24
TORSDOF 2
ENDMDL
MODEL 2
REMARK VINA RESULT:      -6.2      2.022      4.813
REMARK  Name = 
REMARK  3 active torsions:
REMARK  status: ('A' for Active; 'I' for Inactive)
REMARK    1  A    between atoms: C_1  and  O_2
REMARK    2  A    between atoms: O_2  and  C_3
REMARK    3  A    between atoms: C_3  and  C_5
REMARK                            x       y       z     vdW  Elec       q    Type
REMARK                         _______ _______ _______ _____ _____    ______ ____
ROOT
ATOM      1  C   UNL     1       8.523  16.588  20.317  0.00  0.00    +0.000 C 
ATOM      2  C   UNL     1       7.589  16.463  21.451  0.00  0.00    +0.000 C 
ATOM      3  C   UNL     1       8.342  15.715  22.566  0.00  0.00    +0.000 C 
ATOM      4  C   UNL     1       7.319  15.785  23.731  0.00  0.00    +0.000 C 
ATOM      5  C   UNL     1       7.173  14.486  24.510  0.00  0.00    +0.000 C 
ATOM      6  C   UNL     1       6.891  13.305  23.562  0.00  0.00    +0.000 C 
ATOM      7  N   UNL     1       7.706  13.278  22.349  0.00  0.00    +0.000 NA
ATOM      8  C   UNL     1       8.320  12.012  22.051  0.00  0.00    +0.000 C 
ATOM      9  C   UNL     1       9.751  12.410  21.776  0.00  0.00    +0.000 C 
ATOM     10  C   UNL     1       9.891  13.854  21.143  0.00  0.00    +0.000 C 
ATOM     11  C   UNL     1      10.495  13.221  19.734  0.00  0.00    +0.000 A 
ATOM     12  C   UNL     1      11.069  12.002  19.298  0.00  0.00    +0.000 A 
ATOM     13  C   UNL     1      11.504  11.799  17.963  0.00  0.00    +0.000 A 
ATOM     14  C   UNL     1      11.411  12.789  16.995  0.00  0.00    +0.000 A 
ATOM     15  C   UNL     1      10.829  13.997  17.370  0.00  0.00    +0.000 A 
ATOM     16  C   UNL     1      10.397  14.108  18.685  0.00  0.00    +0.000 A 
ATOM     17  N   UNL     1       9.389  14.945  19.006  0.00  0.00    +0.000 N 
ATOM     18  C   UNL     1       8.099  14.326  18.744  0.00  0.00    +0.000 C 
ATOM     19  O   UNL     1       7.029  14.538  19.305  0.00  0.00    +0.000 OA
ATOM     20  C   UNL     1       9.511  15.333  20.367  0.00  0.00    +0.000 C 
ATOM     21  C   UNL     1      10.588  16.107  21.308  0.00  0.00    +0.000 C 
ATOM     22  C   UNL     1       9.755  16.414  22.690  0.00  0.00    +0.000 C 
ATOM     23  C   UNL     1       8.787  14.238  22.311  0.00  0.00    +0.000 C 
ENDROOT
BRANCH   1  24
ATOM     24  C   UNL     1       7.960  17.343  19.054  0.00  0.00    +0.000 C 
ATOM     25  O   UNL     1       6.778  17.680  19.005  0.00  0.00    +0.000 OA
BRANCH  24  27
ATOM     26  C   UNL     1       9.921  18.630  18.533  0.00  0.00    +0.000 C 
ATOM     27  O   UNL     1       8.869  17.746  18.131  0.00  0.00    +0.000 OA
ENDBRANCH  24  27
ENDBRANCH   1  24
TORSDOF 2
ENDMDL
MODEL 3
REMARK VINA RESULT:      -6.2      1.872      5.006
REMARK  Name = 
REMARK  3 active torsions:
REMARK  status: ('A' for Active; 'I' for Inactive)
REMARK    1  A    between atoms: C_1  and  O_2
REMARK    2  A    between atoms: O_2  and  C_3
REMARK    3  A    between atoms: C_3  and  C_5
REMARK                            x       y       z     vdW  Elec       q    Type
REMARK                         _______ _______ _______ _____ _____    ______ ____
ROOT
ATOM      1  C   UNL     1       9.251  16.435  19.995  0.00  0.00    +0.000 C 
ATOM      2  C   UNL     1       8.672  17.089  21.183  0.00  0.00    +0.000 C 
ATOM      3  C   UNL     1       9.320  16.430  22.414  0.00  0.00    +0.000 C 
ATOM      4  C   UNL     1       8.749  17.297  23.567  0.00  0.00    +0.000 C 
ATOM      5  C   UNL     1       8.300  16.499  24.782  0.00  0.00    +0.000 C 
ATOM      6  C   UNL     1       7.334  15.372  24.373  0.00  0.00    +0.000 C 
ATOM      7  N   UNL     1       7.727  14.623  23.181  0.00  0.00    +0.000 NA
ATOM      8  C   UNL     1       7.682  13.192  23.312  0.00  0.00    +0.000 C 
ATOM      9  C   UNL     1       9.030  12.780  22.766  0.00  0.00    +0.000 C 
ATOM     10  C   UNL     1       9.568  13.744  21.632  0.00  0.00    +0.000 C 
ATOM     11  C   UNL     1       9.483  12.530  20.505  0.00  0.00    +0.000 A 
ATOM     12  C   UNL     1       9.386  11.118  20.497  0.00  0.00    +0.000 A 
ATOM     13  C   UNL     1       9.343  10.364  19.295  0.00  0.00    +0.000 A 
ATOM     14  C   UNL     1       9.409  10.961  18.044  0.00  0.00    +0.000 A 
ATOM     15  C   UNL     1       9.479  12.350  18.002  0.00  0.00    +0.000 A 
ATOM     16  C   UNL     1       9.483  13.020  19.218  0.00  0.00    +0.000 A 
ATOM     17  N   UNL     1       9.015  14.282  19.306  0.00  0.00    +0.000 N 
ATOM     18  C   UNL     1       7.565  14.290  19.424  0.00  0.00    +0.000 C 
ATOM     19  O   UNL     1       6.854  15.126  19.972  0.00  0.00    +0.000 OA
ATOM     20  C   UNL     1       9.629  14.938  20.406  0.00  0.00    +0.000 C 
ATOM     21  C   UNL     1      11.128  15.353  20.879  0.00  0.00    +0.000 C 
ATOM     22  C   UNL     1      10.875  16.393  22.125  0.00  0.00    +0.000 C 
ATOM     23  C   UNL     1       9.053  14.913  22.680  0.00  0.00    +0.000 C 
ENDROOT
BRANCH   1  24
ATOM     24  C   UNL     1       8.734  16.969  18.607  0.00  0.00    +0.000 C 
ATOM     25  O   UNL     1       7.772  17.736  18.551  0.00  0.00    +0.000 OA
BRANCH  24  27
ATOM     26  C   UNL     1      10.851  17.158  17.485  0.00  0.00    +0.000 C 
ATOM     27  O   UNL     1       9.498  16.687  17.522  0.00  0.00    +0.000 OA
ENDBRANCH  24  27
ENDBRANCH   1  24
TORSDOF 2
ENDMDL
MODEL 4
REMARK VINA RESULT:      -6.1      9.506     10.522
REMARK  Name = 
REMARK  3 active torsions:
REMARK  status: ('A' for Active; 'I' for Inactive)
REMARK    1  A    between atoms: C_1  and  O_2
REMARK    2  A    between atoms: O_2  and  C_3
REMARK    3  A    between atoms: C_3  and  C_5
REMARK                            x       y       z     vdW  Elec       q    Type
REMARK                         _______ _______ _______ _____ _____    ______ ____
ROOT
ATOM      1  C   UNL     1       0.086  12.753  19.239  0.00  0.00    +0.000 C 
ATOM      2  C   UNL     1       1.024  11.615  19.204  0.00  0.00    +0.000 C 
ATOM      3  C   UNL     1       0.230  10.371  19.641  0.00  0.00    +0.000 C 
ATOM      4  C   UNL     1       1.273   9.244  19.418  0.00  0.00    +0.000 C 
ATOM      5  C   UNL     1       1.323   8.213  20.535  0.00  0.00    +0.000 C 
ATOM      6  C   UNL     1       1.494   8.895  21.906  0.00  0.00    +0.000 C 
ATOM      7  N   UNL     1       0.661  10.078  22.115  0.00  0.00    +0.000 NA
ATOM      8  C   UNL     1      -0.059  10.109  23.359  0.00  0.00    +0.000 C 
ATOM      9  C   UNL     1      -1.457  10.463  22.909  0.00  0.00    +0.000 C 
ATOM     10  C   UNL     1      -1.488  11.381  21.620  0.00  0.00    +0.000 C 
ATOM     11  C   UNL     1      -2.163  12.630  22.478  0.00  0.00    +0.000 A 
ATOM     12  C   UNL     1      -2.841  12.805  23.708  0.00  0.00    +0.000 A 
ATOM     13  C   UNL     1      -3.312  14.070  24.146  0.00  0.00    +0.000 A 
ATOM     14  C   UNL     1      -3.153  15.222  23.388  0.00  0.00    +0.000 A 
ATOM     15  C   UNL     1      -2.469  15.104  22.181  0.00  0.00    +0.000 A 
ATOM     16  C   UNL     1      -2.009  13.840  21.837  0.00  0.00    +0.000 A 
ATOM     17  N   UNL     1      -0.931  13.696  21.039  0.00  0.00    +0.000 N 
ATOM     18  C   UNL     1       0.300  13.823  21.804  0.00  0.00    +0.000 C 
ATOM     19  O   UNL     1       1.392  13.315  21.571  0.00  0.00    +0.000 OA
ATOM     20  C   UNL     1      -1.000  12.446  20.370  0.00  0.00    +0.000 C 
ATOM     21  C   UNL     1      -1.996  11.687  19.332  0.00  0.00    +0.000 C 
ATOM     22  C   UNL     1      -1.119  10.397  18.816  0.00  0.00    +0.000 C 
ATOM     23  C   UNL     1      -0.338  10.316  21.097  0.00  0.00    +0.000 C 
ENDROOT
BRANCH   1  24
ATOM     24  C   UNL     1       0.689  14.143  18.811  0.00  0.00    +0.000 C 
ATOM     25  O   UNL     1       1.897  14.262  18.602  0.00  0.00    +0.000 OA
BRANCH  24  27
ATOM     26  C   UNL     1       0.112  16.473  18.898  0.00  0.00    +0.000 C 
ATOM     27  O   UNL     1      -0.197  15.127  18.519  0.00  0.00    +0.000 OA
ENDBRANCH  24  27
ENDBRANCH   1  24
TORSDOF 2
ENDMDL
MODEL 5
REMARK VINA RESULT:      -6.0      9.446     10.373
REMARK  Name = 
REMARK  3 active torsions:
REMARK  status: ('A' for Active; 'I' for Inactive)
REMARK    1  A    between atoms: C_1  and  O_2
REMARK    2  A    between atoms: O_2  and  C_3
REMARK    3  A    between atoms: C_3  and  C_5
REMARK                            x       y       z     vdW  Elec       q    Type
REMARK                         _______ _______ _______ _____ _____    ______ ____
ROOT
ATOM      1  C   UNL     1       0.975  13.040  19.611  0.00  0.00    +0.000 C 
ATOM      2  C   UNL     1       1.315  11.782  20.304  0.00  0.00    +0.000 C 
ATOM      3  C   UNL     1       0.020  10.954  20.381  0.00  0.00    +0.000 C 
ATOM      4  C   UNL     1       0.541   9.622  20.983  0.00  0.00    +0.000 C 
ATOM      5  C   UNL     1      -0.355   9.035  22.063  0.00  0.00    +0.000 C 
ATOM      6  C   UNL     1      -0.661  10.080  23.152  0.00  0.00    +0.000 C 
ATOM      7  N   UNL     1      -0.990  11.414  22.653  0.00  0.00    +0.000 NA
ATOM      8  C   UNL     1      -2.168  12.009  23.223  0.00  0.00    +0.000 C 
ATOM      9  C   UNL     1      -2.911  12.483  21.995  0.00  0.00    +0.000 C 
ATOM     10  C   UNL     1      -1.953  12.906  20.807  0.00  0.00    +0.000 C 
ATOM     11  C   UNL     1      -2.460  14.482  20.908  0.00  0.00    +0.000 A 
ATOM     12  C   UNL     1      -3.546  15.196  21.469  0.00  0.00    +0.000 A 
ATOM     13  C   UNL     1      -3.675  16.604  21.350  0.00  0.00    +0.000 A 
ATOM     14  C   UNL     1      -2.751  17.377  20.661  0.00  0.00    +0.000 A 
ATOM     15  C   UNL     1      -1.652  16.722  20.114  0.00  0.00    +0.000 A 
ATOM     16  C   UNL     1      -1.578  15.348  20.300  0.00  0.00    +0.000 A 
ATOM     17  N   UNL     1      -0.383  14.721  20.312  0.00  0.00    +0.000 N 
ATOM     18  C   UNL     1       0.245  14.829  21.620  0.00  0.00    +0.000 C 
ATOM     19  O   UNL     1       1.034  14.052  22.147  0.00  0.00    +0.000 OA
ATOM     20  C   UNL     1      -0.556  13.365  19.929  0.00  0.00    +0.000 C 
ATOM     21  C   UNL     1      -1.093  12.536  18.637  0.00  0.00    +0.000 C 
ATOM     22  C   UNL     1      -0.615  10.992  18.934  0.00  0.00    +0.000 C 
ATOM     23  C   UNL     1      -1.176  11.508  21.222  0.00  0.00    +0.000 C 
ENDROOT
BRANCH   1  24
ATOM     24  C   UNL     1       2.169  14.046  19.407  0.00  0.00    +0.000 C 
ATOM     25  O   UNL     1       3.236  13.877  19.998  0.00  0.00    +0.000 OA
BRANCH  24  27
ATOM     26  C   UNL     1       2.442  16.323  18.689  0.00  0.00    +0.000 C 
ATOM     27  O   UNL     1       2.019  14.978  18.433  0.00  0.00    +0.000 OA
ENDBRANCH  24  27
ENDBRANCH   1  24
TORSDOF 2
ENDMDL
MODEL 6
REMARK VINA RESULT:      -5.8      2.186      4.848
REMARK  Name = 
REMARK  3 active torsions:
REMARK  status: ('A' for Active; 'I' for Inactive)
REMARK    1  A    between atoms: C_1  and  O_2
REMARK    2  A    between atoms: O_2  and  C_3
REMARK    3  A    between atoms: C_3  and  C_5
REMARK                            x       y       z     vdW  Elec       q    Type
REMARK                         _______ _______ _______ _____ _____    ______ ____
ROOT
ATOM      1  C   UNL     1       8.580  16.207  20.926  0.00  0.00    +0.000 C 
ATOM      2  C   UNL     1       7.780  15.592  22.002  0.00  0.00    +0.000 C 
ATOM      3  C   UNL     1       8.729  14.669  22.789  0.00  0.00    +0.000 C 
ATOM      4  C   UNL     1       7.817  14.214  23.959  0.00  0.00    +0.000 C 
ATOM      5  C   UNL     1       7.925  12.734  24.293  0.00  0.00    +0.000 C 
ATOM      6  C   UNL     1       7.723  11.870  23.033  0.00  0.00    +0.000 C 
ATOM      7  N   UNL     1       8.420  12.347  21.840  0.00  0.00    +0.000 NA
ATOM      8  C   UNL     1       9.174  11.349  21.130  0.00  0.00    +0.000 C 
ATOM      9  C   UNL     1      10.505  12.037  20.934  0.00  0.00    +0.000 C 
ATOM     10  C   UNL     1      10.384  13.608  20.784  0.00  0.00    +0.000 C 
ATOM     11  C   UNL     1      10.939  13.542  19.223  0.00  0.00    +0.000 A 
ATOM     12  C   UNL     1      11.634  12.624  18.399  0.00  0.00    +0.000 A 
ATOM     13  C   UNL     1      11.969  12.912  17.051  0.00  0.00    +0.000 A 
ATOM     14  C   UNL     1      11.652  14.122  16.451  0.00  0.00    +0.000 A 
ATOM     15  C   UNL     1      10.944  15.047  17.214  0.00  0.00    +0.000 A 
ATOM     16  C   UNL     1      10.623  14.680  18.514  0.00  0.00    +0.000 A 
ATOM     17  N   UNL     1       9.542  15.205  19.127  0.00  0.00    +0.000 N 
ATOM     18  C   UNL     1       8.332  14.498  18.738  0.00  0.00    +0.000 C 
ATOM     19  O   UNL     1       7.299  14.353  19.383  0.00  0.00    +0.000 OA
ATOM     20  C   UNL     1       9.733  15.173  20.533  0.00  0.00    +0.000 C 
ATOM     21  C   UNL     1      10.774  15.783  21.624  0.00  0.00    +0.000 C 
ATOM     22  C   UNL     1      10.036  15.515  23.066  0.00  0.00    +0.000 C 
ATOM     23  C   UNL     1       9.349  13.433  22.060  0.00  0.00    +0.000 C 
ENDROOT
BRANCH   1  24
ATOM     24  C   UNL     1       7.805  17.211  19.993  0.00  0.00    +0.000 C 
ATOM     25  O   UNL     1       8.414  17.901  19.176  0.00  0.00    +0.000 OA
BRANCH  24  27
ATOM     26  C   UNL     1       5.709  18.236  20.567  0.00  0.00    +0.000 C 
ATOM     27  O   UNL     1       6.451  17.141  20.016  0.00  0.00    +0.000 OA
ENDBRANCH  24  27
ENDBRANCH   1  24
TORSDOF 2
ENDMDL
MODEL 7
REMARK VINA RESULT:      -5.8     10.822     12.501
REMARK  Name = 
REMARK  3 active torsions:
REMARK  status: ('A' for Active; 'I' for Inactive)
REMARK    1  A    between atoms: C_1  and  O_2
REMARK    2  A    between atoms: O_2  and  C_3
REMARK    3  A    between atoms: C_3  and  C_5
REMARK                            x       y       z     vdW  Elec       q    Type
REMARK                         _______ _______ _______ _____ _____    ______ ____
ROOT
ATOM      1  C   UNL     1      -1.856  12.106  21.905  0.00  0.00    +0.000 C 
ATOM      2  C   UNL     1      -2.854  12.277  22.977  0.00  0.00    +0.000 C 
ATOM      3  C   UNL     1      -3.982  13.150  22.400  0.00  0.00    +0.000 C 
ATOM      4  C   UNL     1      -5.016  13.124  23.557  0.00  0.00    +0.000 C 
ATOM      5  C   UNL     1      -5.656  14.473  23.850  0.00  0.00    +0.000 C 
ATOM      6  C   UNL     1      -4.582  15.558  24.058  0.00  0.00    +0.000 C 
ATOM      7  N   UNL     1      -3.479  15.527  23.099  0.00  0.00    +0.000 NA
ATOM      8  C   UNL     1      -3.149  16.792  22.503  0.00  0.00    +0.000 C 
ATOM      9  C   UNL     1      -3.086  16.445  21.033  0.00  0.00    +0.000 C 
ATOM     10  C   UNL     1      -2.601  14.963  20.759  0.00  0.00    +0.000 C 
ATOM     11  C   UNL     1      -1.227  15.509  20.009  0.00  0.00    +0.000 A 
ATOM     12  C   UNL     1      -0.760  16.715  19.433  0.00  0.00    +0.000 A 
ATOM     13  C   UNL     1       0.525  16.830  18.843  0.00  0.00    +0.000 A 
ATOM     14  C   UNL     1       1.408  15.761  18.775  0.00  0.00    +0.000 A 
ATOM     15  C   UNL     1       1.003  14.561  19.351  0.00  0.00    +0.000 A 
ATOM     16  C   UNL     1      -0.255  14.535  19.940  0.00  0.00    +0.000 A 
ATOM     17  N   UNL     1      -0.523  13.678  20.947  0.00  0.00    +0.000 N 
ATOM     18  C   UNL     1      -0.052  14.209  22.217  0.00  0.00    +0.000 C 
ATOM     19  O   UNL     1      -0.496  13.991  23.340  0.00  0.00    +0.000 OA
ATOM     20  C   UNL     1      -1.916  13.409  20.981  0.00  0.00    +0.000 C 
ATOM     21  C   UNL     1      -3.045  12.768  20.000  0.00  0.00    +0.000 C 
ATOM     22  C   UNL     1      -4.337  12.534  20.987  0.00  0.00    +0.000 C 
ATOM     23  C   UNL     1      -3.655  14.621  21.985  0.00  0.00    +0.000 C 
ENDROOT
BRANCH   1  24
ATOM     24  C   UNL     1      -0.605  11.225  22.275  0.00  0.00    +0.000 C 
ATOM     25  O   UNL     1      -0.459  10.798  23.421  0.00  0.00    +0.000 OA
BRANCH  24  27
ATOM     26  C   UNL     1      -0.395  10.059  20.184  0.00  0.00    +0.000 C 
ATOM     27  O   UNL     1       0.184  10.825  21.247  0.00  0.00    +0.000 OA
ENDBRANCH  24  27
ENDBRANCH   1  24
TORSDOF 2
ENDMDL
MODEL 8
REMARK VINA RESULT:      -5.7      1.953      3.346
REMARK  Name = 
REMARK  3 active torsions:
REMARK  status: ('A' for Active; 'I' for Inactive)
REMARK    1  A    between atoms: C_1  and  O_2
REMARK    2  A    between atoms: O_2  and  C_3
REMARK    3  A    between atoms: C_3  and  C_5
REMARK                            x       y       z     vdW  Elec       q    Type
REMARK                         _______ _______ _______ _____ _____    ______ ____
ROOT
ATOM      1  C   UNL     1       9.206  16.386  19.619  0.00  0.00    +0.000 C 
ATOM      2  C   UNL     1      10.202  16.081  18.575  0.00  0.00    +0.000 C 
ATOM      3  C   UNL     1       9.930  14.640  18.108  0.00  0.00    +0.000 C 
ATOM      4  C   UNL     1      10.928  14.503  16.928  0.00  0.00    +0.000 C 
ATOM      5  C   UNL     1      11.668  13.175  16.890  0.00  0.00    +0.000 C 
ATOM      6  C   UNL     1      12.333  12.877  18.247  0.00  0.00    +0.000 C 
ATOM      7  N   UNL     1      11.501  13.153  19.416  0.00  0.00    +0.000 NA
ATOM      8  C   UNL     1      11.446  12.100  20.393  0.00  0.00    +0.000 C 
ATOM      9  C   UNL     1       9.960  11.972  20.640  0.00  0.00    +0.000 C 
ATOM     10  C   UNL     1       9.178  13.339  20.480  0.00  0.00    +0.000 C 
ATOM     11  C   UNL     1       8.772  13.340  22.088  0.00  0.00    +0.000 A 
ATOM     12  C   UNL     1       8.722  12.409  23.154  0.00  0.00    +0.000 A 
ATOM     13  C   UNL     1       8.296  12.766  24.459  0.00  0.00    +0.000 A 
ATOM     14  C   UNL     1       7.883  14.053  24.777  0.00  0.00    +0.000 A 
ATOM     15  C   UNL     1       7.940  15.010  23.768  0.00  0.00    +0.000 A 
ATOM     16  C   UNL     1       8.399  14.592  22.526  0.00  0.00    +0.000 A 
ATOM     17  N   UNL     1       8.992  15.465  21.686  0.00  0.00    +0.000 N 
ATOM     18  C   UNL     1      10.394  15.644  22.029  0.00  0.00    +0.000 C 
ATOM     19  O   UNL     1      11.323  15.944  21.286  0.00  0.00    +0.000 OA
ATOM     20  C   UNL     1       8.838  15.013  20.348  0.00  0.00    +0.000 C 
ATOM     21  C   UNL     1       7.623  14.688  19.317  0.00  0.00    +0.000 C 
ATOM     22  C   UNL     1       8.370  14.544  17.861  0.00  0.00    +0.000 C 
ATOM     23  C   UNL     1      10.120  13.472  19.129  0.00  0.00    +0.000 C 
ENDROOT
BRANCH   1  24
ATOM     24  C   UNL     1       9.291  17.832  20.237  0.00  0.00    +0.000 C 
ATOM     25  O   UNL     1      10.265  18.550  20.012  0.00  0.00    +0.000 OA
BRANCH  24  27
ATOM     26  C   UNL     1       6.923  18.233  20.180  0.00  0.00    +0.000 C 
ATOM     27  O   UNL     1       8.180  18.292  20.864  0.00  0.00    +0.000 OA
ENDBRANCH  24  27
ENDBRANCH   1  24
TORSDOF 2
ENDMDL
MODEL 9
REMARK VINA RESULT:      -5.6     10.224     12.110
REMARK  Name = 
REMARK  3 active torsions:
REMARK  status: ('A' for Active; 'I' for Inactive)
REMARK    1  A    between atoms: C_1  and  O_2
REMARK    2  A    between atoms: O_2  and  C_3
REMARK    3  A    between atoms: C_3  and  C_5
REMARK                            x       y       z     vdW  Elec       q    Type
REMARK                         _______ _______ _______ _____ _____    ______ ____
ROOT
ATOM      1  C   UNL     1       0.415  12.271  20.483  0.00  0.00    +0.000 C 
ATOM      2  C   UNL     1       0.359  13.377  21.458  0.00  0.00    +0.000 C 
ATOM      3  C   UNL     1      -0.931  13.184  22.274  0.00  0.00    +0.000 C 
ATOM      4  C   UNL     1      -0.792  14.302  23.341  0.00  0.00    +0.000 C 
ATOM      5  C   UNL     1      -2.078  15.070  23.610  0.00  0.00    +0.000 C 
ATOM      6  C   UNL     1      -2.688  15.596  22.297  0.00  0.00    +0.000 C 
ATOM      7  N   UNL     1      -2.690  14.642  21.190  0.00  0.00    +0.000 NA
ATOM      8  C   UNL     1      -3.942  14.507  20.497  0.00  0.00    +0.000 C 
ATOM      9  C   UNL     1      -4.118  13.007  20.446  0.00  0.00    +0.000 C 
ATOM     10  C   UNL     1      -2.749  12.217  20.364  0.00  0.00    +0.000 C 
ATOM     11  C   UNL     1      -3.123  11.647  18.852  0.00  0.00    +0.000 A 
ATOM     12  C   UNL     1      -4.278  11.506  18.045  0.00  0.00    +0.000 A 
ATOM     13  C   UNL     1      -4.234  10.939  16.745  0.00  0.00    +0.000 A 
ATOM     14  C   UNL     1      -3.057  10.469  16.181  0.00  0.00    +0.000 A 
ATOM     15  C   UNL     1      -1.890  10.611  16.927  0.00  0.00    +0.000 A 
ATOM     16  C   UNL     1      -2.007  11.205  18.176  0.00  0.00    +0.000 A 
ATOM     17  N   UNL     1      -0.964  11.863  18.723  0.00  0.00    +0.000 N 
ATOM     18  C   UNL     1      -0.876  13.218  18.201  0.00  0.00    +0.000 C 
ATOM     19  O   UNL     1      -0.415  14.213  18.750  0.00  0.00    +0.000 OA
ATOM     20  C   UNL     1      -1.089  11.858  20.137  0.00  0.00    +0.000 C 
ATOM     21  C   UNL     1      -1.159  10.764  21.338  0.00  0.00    +0.000 C 
ATOM     22  C   UNL     1      -0.960  11.661  22.700  0.00  0.00    +0.000 C 
ATOM     23  C   UNL     1      -2.307  13.291  21.540  0.00  0.00    +0.000 C 
ENDROOT
BRANCH   1  24
ATOM     24  C   UNL     1       1.675  12.262  19.539  0.00  0.00    +0.000 C 
ATOM     25  O   UNL     1       1.835  11.357  18.719  0.00  0.00    +0.000 OA
BRANCH  24  27
ATOM     26  C   UNL     1       3.057  13.816  18.335  0.00  0.00    +0.000 C 
ATOM     27  O   UNL     1       2.458  13.369  19.557  0.00  0.00    +0.000 OA
ENDBRANCH  24  27
ENDBRANCH   1  24
TORSDOF 2
ENDMDL
