MODEL 1
REMARK VINA RESULT:      -7.9      0.000      0.000
REMARK  Name = 
REMARK  12 active torsions:
REMARK  status: ('A' for Active; 'I' for Inactive)
REMARK    1  A    between atoms: C_1  and  C_2
REMARK    2  A    between atoms: C_2  and  O_3
REMARK    3  A    between atoms: O_3  and  C_4
REMARK    4  A    between atoms: C_4  and  C_6
REMARK    5  A    between atoms: C_7  and  C_8
REMARK    6  A    between atoms: C_9  and  C_10
REMARK    7  A    between atoms: N_12  and  C_13
REMARK    8  A    between atoms: C_16  and  O_17
REMARK    9  A    between atoms: O_17  and  C_18
REMARK   10  A    between atoms: C_26  and  C_27
REMARK   11  A    between atoms: N_28  and  C_29
REMARK   12  A    between atoms: C_29  and  C_30
REMARK                            x       y       z     vdW  Elec       q    Type
REMARK                         _______ _______ _______ _____ _____    ______ ____
ROOT
ATOM      1  C   UNL     1       1.960   7.603  19.460  0.00  0.00    +0.000 C 
ATOM      2  O   UNL     1       1.698   8.336  18.510  0.00  0.00    +0.000 OA
ATOM      3  N   UNL     1       1.698   7.913  20.786  0.00  0.00    +0.000 N 
ATOM      4  H   UNL     1       2.134   7.317  21.475  0.00  0.00    +0.000 HD
ENDROOT
BRANCH   1   8
ATOM      5  C   UNL     1       4.189   4.822  18.342  0.00  0.00    +0.000 A 
ATOM      6  C   UNL     1       3.799   6.169  18.341  0.00  0.00    +0.000 A 
ATOM      7  C   UNL     1       4.411   7.304  17.575  0.00  0.00    +0.000 C 
ATOM      8  C   UNL     1       2.678   6.331  19.235  0.00  0.00    +0.000 A 
ATOM      9  C   UNL     1       2.389   5.070  19.740  0.00  0.00    +0.000 A 
ATOM     10  C   UNL     1       1.286   4.622  20.646  0.00  0.00    +0.000 C 
ATOM     11  N   UNL     1       3.288   4.164  19.177  0.00  0.00    +0.000 N 
BRANCH   5  12
ATOM     12  C   UNL     1       5.317   4.266  17.589  0.00  0.00    +0.000 C 
ATOM     13  O   UNL     1       5.286   3.914  16.412  0.00  0.00    +0.000 OA
BRANCH  12  14
ATOM     14  O   UNL     1       6.447   4.178  18.344  0.00  0.00    +0.000 OA
BRANCH  14  16
ATOM     15  C   UNL     1       7.779   6.146  18.811  0.00  0.00    +0.000 C 
ATOM     16  C   UNL     1       7.566   4.959  17.891  0.00  0.00    +0.000 C 
ENDBRANCH  14  16
ENDBRANCH  12  14
ENDBRANCH   5  12
BRANCH  11  17
ATOM     17  C   UNL     1       3.210   2.721  19.399  0.00  0.00    +0.000 C 
ATOM     18  C   UNL     1       2.523   1.980  18.264  0.00  0.00    +0.000 C 
ENDBRANCH  11  17
ENDBRANCH   1   8
BRANCH   3  19
ATOM     19  C   UNL     1       1.003   9.054  21.261  0.00  0.00    +0.000 A 
ATOM     20  C   UNL     1       1.130  10.329  20.703  0.00  0.00    +0.000 A 
ATOM     21  C   UNL     1       0.401  11.413  21.209  0.00  0.00    +0.000 A 
ATOM     22  C   UNL     1      -0.471  11.241  22.282  0.00  0.00    +0.000 A 
ATOM     23  C   UNL     1      -0.565   9.983  22.881  0.00  0.00    +0.000 A 
ATOM     24  C   UNL     1       0.138   8.891  22.352  0.00  0.00    +0.000 A 
BRANCH  22  25
ATOM     25  O   UNL     1      -1.129  12.370  22.713  0.00  0.00    +0.000 OA
BRANCH  25  26
ATOM     26  C   UNL     1      -2.466  12.551  22.437  0.00  0.00    +0.000 A 
ATOM     27  C   UNL     1      -3.307  12.666  23.548  0.00  0.00    +0.000 A 
ATOM     28  C   UNL     1      -4.682  12.839  23.378  0.00  0.00    +0.000 A 
ATOM     29  C   UNL     1      -5.222  12.898  22.094  0.00  0.00    +0.000 A 
ATOM     30  C   UNL     1      -4.383  12.828  20.983  0.00  0.00    +0.000 A 
ATOM     31  C   UNL     1      -3.004  12.686  21.155  0.00  0.00    +0.000 A 
ENDBRANCH  25  26
ENDBRANCH  22  25
ENDBRANCH   3  19
TORSDOF 8
ENDMDL
MODEL 2
REMARK VINA RESULT:      -7.8      0.287      1.010
REMARK  Name = 
REMARK  12 active torsions:
REMARK  status: ('A' for Active; 'I' for Inactive)
REMARK    1  A    between atoms: C_1  and  C_2
REMARK    2  A    between atoms: C_2  and  O_3
REMARK    3  A    between atoms: O_3  and  C_4
REMARK    4  A    between atoms: C_4  and  C_6
REMARK    5  A    between atoms: C_7  and  C_8
REMARK    6  A    between atoms: C_9  and  C_10
REMARK    7  A    between atoms: N_12  and  C_13
REMARK    8  A    between atoms: C_16  and  O_17
REMARK    9  A    between atoms: O_17  and  C_18
REMARK   10  A    between atoms: C_26  and  C_27
REMARK   11  A    between atoms: N_28  and  C_29
REMARK   12  A    between atoms: C_29  and  C_30
REMARK                            x       y       z     vdW  Elec       q    Type
REMARK                         _______ _______ _______ _____ _____    ______ ____
ROOT
ATOM      1  C   UNL     1       1.919   7.583  19.437  0.00  0.00    +0.000 C 
ATOM      2  O   UNL     1       1.607   8.298  18.490  0.00  0.00    +0.000 OA
ATOM      3  N   UNL     1       1.711   7.909  20.769  0.00  0.00    +0.000 N 
ATOM      4  H   UNL     1       2.184   7.329  21.447  0.00  0.00    +0.000 HD
ENDROOT
BRANCH   1   8
ATOM      5  C   UNL     1       4.158   4.821  18.289  0.00  0.00    +0.000 A 
ATOM      6  C   UNL     1       3.761   6.166  18.301  0.00  0.00    +0.000 A 
ATOM      7  C   UNL     1       4.366   7.311  17.543  0.00  0.00    +0.000 C 
ATOM      8  C   UNL     1       2.642   6.315  19.199  0.00  0.00    +0.000 A 
ATOM      9  C   UNL     1       2.361   5.049  19.694  0.00  0.00    +0.000 A 
ATOM     10  C   UNL     1       1.262   4.588  20.600  0.00  0.00    +0.000 C 
ATOM     11  N   UNL     1       3.262   4.152  19.121  0.00  0.00    +0.000 N 
BRANCH   5  12
ATOM     12  C   UNL     1       5.286   4.277  17.529  0.00  0.00    +0.000 C 
ATOM     13  O   UNL     1       5.253   3.934  16.348  0.00  0.00    +0.000 OA
BRANCH  12  14
ATOM     14  O   UNL     1       6.419   4.189  18.280  0.00  0.00    +0.000 OA
BRANCH  14  16
ATOM     15  C   UNL     1       7.794   6.113  18.799  0.00  0.00    +0.000 C 
ATOM     16  C   UNL     1       7.533   4.977  17.828  0.00  0.00    +0.000 C 
ENDBRANCH  14  16
ENDBRANCH  12  14
ENDBRANCH   5  12
BRANCH  11  17
ATOM     17  C   UNL     1       3.191   2.707  19.331  0.00  0.00    +0.000 C 
ATOM     18  C   UNL     1       4.229   2.197  20.317  0.00  0.00    +0.000 C 
ENDBRANCH  11  17
ENDBRANCH   1   8
BRANCH   3  19
ATOM     19  C   UNL     1       1.024   9.048  21.258  0.00  0.00    +0.000 A 
ATOM     20  C   UNL     1       1.198  10.338  20.748  0.00  0.00    +0.000 A 
ATOM     21  C   UNL     1       0.474  11.421  21.265  0.00  0.00    +0.000 A 
ATOM     22  C   UNL     1      -0.441  11.233  22.299  0.00  0.00    +0.000 A 
ATOM     23  C   UNL     1      -0.583   9.958  22.851  0.00  0.00    +0.000 A 
ATOM     24  C   UNL     1       0.116   8.869  22.310  0.00  0.00    +0.000 A 
BRANCH  22  25
ATOM     25  O   UNL     1      -1.090  12.361  22.744  0.00  0.00    +0.000 OA
BRANCH  25  26
ATOM     26  C   UNL     1      -2.441  12.522  22.534  0.00  0.00    +0.000 A 
ATOM     27  C   UNL     1      -2.839  12.654  21.200  0.00  0.00    +0.000 A 
ATOM     28  C   UNL     1      -4.186  12.836  20.880  0.00  0.00    +0.000 A 
ATOM     29  C   UNL     1      -5.142  12.886  21.894  0.00  0.00    +0.000 A 
ATOM     30  C   UNL     1      -4.756  12.711  23.222  0.00  0.00    +0.000 A 
ATOM     31  C   UNL     1      -3.412  12.499  23.538  0.00  0.00    +0.000 A 
ENDBRANCH  25  26
ENDBRANCH  22  25
ENDBRANCH   3  19
TORSDOF 8
ENDMDL
MODEL 3
REMARK VINA RESULT:      -7.6      0.732      1.181
REMARK  Name = 
REMARK  12 active torsions:
REMARK  status: ('A' for Active; 'I' for Inactive)
REMARK    1  A    between atoms: C_1  and  C_2
REMARK    2  A    between atoms: C_2  and  O_3
REMARK    3  A    between atoms: O_3  and  C_4
REMARK    4  A    between atoms: C_4  and  C_6
REMARK    5  A    between atoms: C_7  and  C_8
REMARK    6  A    between atoms: C_9  and  C_10
REMARK    7  A    between atoms: N_12  and  C_13
REMARK    8  A    between atoms: C_16  and  O_17
REMARK    9  A    between atoms: O_17  and  C_18
REMARK   10  A    between atoms: C_26  and  C_27
REMARK   11  A    between atoms: N_28  and  C_29
REMARK   12  A    between atoms: C_29  and  C_30
REMARK                            x       y       z     vdW  Elec       q    Type
REMARK                         _______ _______ _______ _____ _____    ______ ____
ROOT
ATOM      1  C   UNL     1       2.005   7.569  19.545  0.00  0.00    +0.000 C 
ATOM      2  O   UNL     1       1.693   8.252  18.573  0.00  0.00    +0.000 OA
ATOM      3  N   UNL     1       1.761   7.923  20.863  0.00  0.00    +0.000 N 
ATOM      4  H   UNL     1       2.236   7.373  21.565  0.00  0.00    +0.000 HD
ENDROOT
BRANCH   1   8
ATOM      5  C   UNL     1       4.316   4.833  18.487  0.00  0.00    +0.000 A 
ATOM      6  C   UNL     1       3.874   6.163  18.442  0.00  0.00    +0.000 A 
ATOM      7  C   UNL     1       4.426   7.289  17.620  0.00  0.00    +0.000 C 
ATOM      8  C   UNL     1       2.766   6.317  19.353  0.00  0.00    +0.000 A 
ATOM      9  C   UNL     1       2.537   5.067  19.913  0.00  0.00    +0.000 A 
ATOM     10  C   UNL     1       1.471   4.613  20.860  0.00  0.00    +0.000 C 
ATOM     11  N   UNL     1       3.459   4.174  19.366  0.00  0.00    +0.000 N 
BRANCH   5  12
ATOM     12  C   UNL     1       5.449   4.291  17.731  0.00  0.00    +0.000 C 
ATOM     13  O   UNL     1       6.611   4.234  18.129  0.00  0.00    +0.000 OA
BRANCH  12  14
ATOM     14  O   UNL     1       5.078   3.833  16.503  0.00  0.00    +0.000 OA
BRANCH  14  16
ATOM     15  C   UNL     1       6.056   5.036  14.643  0.00  0.00    +0.000 C 
ATOM     16  C   UNL     1       6.116   3.793  15.510  0.00  0.00    +0.000 C 
ENDBRANCH  14  16
ENDBRANCH  12  14
ENDBRANCH   5  12
BRANCH  11  17
ATOM     17  C   UNL     1       3.441   2.739  19.645  0.00  0.00    +0.000 C 
ATOM     18  C   UNL     1       2.756   1.929  18.557  0.00  0.00    +0.000 C 
ENDBRANCH  11  17
ENDBRANCH   1   8
BRANCH   3  19
ATOM     19  C   UNL     1       1.033   9.055  21.310  0.00  0.00    +0.000 A 
ATOM     20  C   UNL     1       1.196  10.340  20.784  0.00  0.00    +0.000 A 
ATOM     21  C   UNL     1       0.432  11.415  21.258  0.00  0.00    +0.000 A 
ATOM     22  C   UNL     1      -0.512  11.223  22.264  0.00  0.00    +0.000 A 
ATOM     23  C   UNL     1      -0.646   9.955  22.832  0.00  0.00    +0.000 A 
ATOM     24  C   UNL     1       0.094   8.872  22.334  0.00  0.00    +0.000 A 
BRANCH  22  25
ATOM     25  O   UNL     1      -1.200  12.344  22.668  0.00  0.00    +0.000 OA
BRANCH  25  26
ATOM     26  C   UNL     1      -2.520  12.521  22.319  0.00  0.00    +0.000 A 
ATOM     27  C   UNL     1      -3.425  12.606  23.381  0.00  0.00    +0.000 A 
ATOM     28  C   UNL     1      -4.790  12.772  23.135  0.00  0.00    +0.000 A 
ATOM     29  C   UNL     1      -5.255  12.854  21.823  0.00  0.00    +0.000 A 
ATOM     30  C   UNL     1      -4.352  12.813  20.762  0.00  0.00    +0.000 A 
ATOM     31  C   UNL     1      -2.985  12.678  21.011  0.00  0.00    +0.000 A 
ENDBRANCH  25  26
ENDBRANCH  22  25
ENDBRANCH   3  19
TORSDOF 8
ENDMDL
MODEL 4
REMARK VINA RESULT:      -7.6      2.355     10.615
REMARK  Name = 
REMARK  12 active torsions:
REMARK  status: ('A' for Active; 'I' for Inactive)
REMARK    1  A    between atoms: C_1  and  C_2
REMARK    2  A    between atoms: C_2  and  O_3
REMARK    3  A    between atoms: O_3  and  C_4
REMARK    4  A    between atoms: C_4  and  C_6
REMARK    5  A    between atoms: C_7  and  C_8
REMARK    6  A    between atoms: C_9  and  C_10
REMARK    7  A    between atoms: N_12  and  C_13
REMARK    8  A    between atoms: C_16  and  O_17
REMARK    9  A    between atoms: O_17  and  C_18
REMARK   10  A    between atoms: C_26  and  C_27
REMARK   11  A    between atoms: N_28  and  C_29
REMARK   12  A    between atoms: C_29  and  C_30
REMARK                            x       y       z     vdW  Elec       q    Type
REMARK                         _______ _______ _______ _____ _____    ______ ____
ROOT
ATOM      1  C   UNL     1      -0.237  10.493  19.811  0.00  0.00    +0.000 C 
ATOM      2  O   UNL     1      -1.102   9.893  19.181  0.00  0.00    +0.000 OA
ATOM      3  N   UNL     1       1.026   9.989  20.086  0.00  0.00    +0.000 N 
ATOM      4  H   UNL     1       1.567  10.497  20.771  0.00  0.00    +0.000 HD
ENDROOT
BRANCH   1   8
ATOM      5  C   UNL     1      -1.193  13.383  21.977  0.00  0.00    +0.000 A 
ATOM      6  C   UNL     1      -0.943  12.017  21.777  0.00  0.00    +0.000 A 
ATOM      7  C   UNL     1      -1.045  10.907  22.781  0.00  0.00    +0.000 C 
ATOM      8  C   UNL     1      -0.538  11.811  20.408  0.00  0.00    +0.000 A 
ATOM      9  C   UNL     1      -0.578  13.055  19.793  0.00  0.00    +0.000 A 
ATOM     10  C   UNL     1      -0.336  13.435  18.366  0.00  0.00    +0.000 C 
ATOM     11  N   UNL     1      -0.998  13.991  20.738  0.00  0.00    +0.000 N 
BRANCH   5  12
ATOM     12  C   UNL     1      -1.588  13.995  23.248  0.00  0.00    +0.000 C 
ATOM     13  O   UNL     1      -0.830  14.265  24.178  0.00  0.00    +0.000 OA
BRANCH  12  14
ATOM     14  O   UNL     1      -2.925  14.252  23.302  0.00  0.00    +0.000 OA
BRANCH  14  16
ATOM     15  C   UNL     1      -4.097  12.474  24.454  0.00  0.00    +0.000 C 
ATOM     16  C   UNL     1      -3.582  13.898  24.531  0.00  0.00    +0.000 C 
ENDBRANCH  14  16
ENDBRANCH  12  14
ENDBRANCH   5  12
BRANCH  11  17
ATOM     17  C   UNL     1      -1.261  15.392  20.411  0.00  0.00    +0.000 C 
ATOM     18  C   UNL     1      -0.099  16.310  20.751  0.00  0.00    +0.000 C 
ENDBRANCH  11  17
ENDBRANCH   1   8
BRANCH   3  19
ATOM     19  C   UNL     1       1.564   8.767  19.611  0.00  0.00    +0.000 A 
ATOM     20  C   UNL     1       2.016   8.574  18.302  0.00  0.00    +0.000 A 
ATOM     21  C   UNL     1       2.555   7.344  17.900  0.00  0.00    +0.000 A 
ATOM     22  C   UNL     1       2.656   6.286  18.801  0.00  0.00    +0.000 A 
ATOM     23  C   UNL     1       2.159   6.452  20.095  0.00  0.00    +0.000 A 
ATOM     24  C   UNL     1       1.652   7.693  20.507  0.00  0.00    +0.000 A 
BRANCH  22  25
ATOM     25  O   UNL     1       3.186   5.118  18.304  0.00  0.00    +0.000 OA
BRANCH  25  26
ATOM     26  C   UNL     1       4.532   5.020  18.028  0.00  0.00    +0.000 A 
ATOM     27  C   UNL     1       4.860   4.551  16.753  0.00  0.00    +0.000 A 
ATOM     28  C   UNL     1       6.196   4.401  16.378  0.00  0.00    +0.000 A 
ATOM     29  C   UNL     1       7.212   4.722  17.278  0.00  0.00    +0.000 A 
ATOM     30  C   UNL     1       6.891   5.231  18.535  0.00  0.00    +0.000 A 
ATOM     31  C   UNL     1       5.554   5.408  18.898  0.00  0.00    +0.000 A 
ENDBRANCH  25  26
ENDBRANCH  22  25
ENDBRANCH   3  19
TORSDOF 8
ENDMDL
MODEL 5
REMARK VINA RESULT:      -7.4      1.238      1.858
REMARK  Name = 
REMARK  12 active torsions:
REMARK  status: ('A' for Active; 'I' for Inactive)
REMARK    1  A    between atoms: C_1  and  C_2
REMARK    2  A    between atoms: C_2  and  O_3
REMARK    3  A    between atoms: O_3  and  C_4
REMARK    4  A    between atoms: C_4  and  C_6
REMARK    5  A    between atoms: C_7  and  C_8
REMARK    6  A    between atoms: C_9  and  C_10
REMARK    7  A    between atoms: N_12  and  C_13
REMARK    8  A    between atoms: C_16  and  O_17
REMARK    9  A    between atoms: O_17  and  C_18
REMARK   10  A    between atoms: C_26  and  C_27
REMARK   11  A    between atoms: N_28  and  C_29
REMARK   12  A    between atoms: C_29  and  C_30
REMARK                            x       y       z     vdW  Elec       q    Type
REMARK                         _______ _______ _______ _____ _____    ______ ____
ROOT
ATOM      1  C   UNL     1       2.138   7.646  18.641  0.00  0.00    +0.000 C 
ATOM      2  O   UNL     1       1.749   8.042  17.546  0.00  0.00    +0.000 OA
ATOM      3  N   UNL     1       1.912   8.306  19.840  0.00  0.00    +0.000 N 
ATOM      4  H   UNL     1       2.446   7.980  20.633  0.00  0.00    +0.000 HD
ENDROOT
BRANCH   1   8
ATOM      5  C   UNL     1       4.691   4.943  18.283  0.00  0.00    +0.000 A 
ATOM      6  C   UNL     1       4.192   6.218  17.983  0.00  0.00    +0.000 A 
ATOM      7  C   UNL     1       4.781   7.243  17.059  0.00  0.00    +0.000 C 
ATOM      8  C   UNL     1       2.978   6.433  18.732  0.00  0.00    +0.000 A 
ATOM      9  C   UNL     1       2.747   5.269  19.453  0.00  0.00    +0.000 A 
ATOM     10  C   UNL     1       1.600   4.892  20.337  0.00  0.00    +0.000 C 
ATOM     11  N   UNL     1       3.770   4.368  19.156  0.00  0.00    +0.000 N 
BRANCH   5  12
ATOM     12  C   UNL     1       5.931   4.371  17.750  0.00  0.00    +0.000 C 
ATOM     13  O   UNL     1       7.003   4.309  18.348  0.00  0.00    +0.000 OA
BRANCH  12  14
ATOM     14  O   UNL     1       5.774   3.891  16.485  0.00  0.00    +0.000 OA
BRANCH  14  16
ATOM     15  C   UNL     1       6.187   4.042  14.104  0.00  0.00    +0.000 C 
ATOM     16  C   UNL     1       6.646   4.453  15.490  0.00  0.00    +0.000 C 
ENDBRANCH  14  16
ENDBRANCH  12  14
ENDBRANCH   5  12
BRANCH  11  17
ATOM     17  C   UNL     1       3.790   2.993  19.654  0.00  0.00    +0.000 C 
ATOM     18  C   UNL     1       3.281   1.985  18.638  0.00  0.00    +0.000 C 
ENDBRANCH  11  17
ENDBRANCH   1   8
BRANCH   3  19
ATOM     19  C   UNL     1       1.123   9.469  20.023  0.00  0.00    +0.000 A 
ATOM     20  C   UNL     1       1.142  10.566  19.156  0.00  0.00    +0.000 A 
ATOM     21  C   UNL     1       0.322  11.680  19.385  0.00  0.00    +0.000 A 
ATOM     22  C   UNL     1      -0.534  11.715  20.483  0.00  0.00    +0.000 A 
ATOM     23  C   UNL     1      -0.522  10.648  21.384  0.00  0.00    +0.000 A 
ATOM     24  C   UNL     1       0.272   9.519  21.136  0.00  0.00    +0.000 A 
BRANCH  22  25
ATOM     25  O   UNL     1      -1.286  12.859  20.626  0.00  0.00    +0.000 OA
BRANCH  25  26
ATOM     26  C   UNL     1      -2.614  12.785  20.981  0.00  0.00    +0.000 A 
ATOM     27  C   UNL     1      -3.521  12.652  19.925  0.00  0.00    +0.000 A 
ATOM     28  C   UNL     1      -4.892  12.583  20.176  0.00  0.00    +0.000 A 
ATOM     29  C   UNL     1      -5.364  12.645  21.486  0.00  0.00    +0.000 A 
ATOM     30  C   UNL     1      -4.463  12.733  22.545  0.00  0.00    +0.000 A 
ATOM     31  C   UNL     1      -3.089  12.772  22.295  0.00  0.00    +0.000 A 
ENDBRANCH  25  26
ENDBRANCH  22  25
ENDBRANCH   3  19
TORSDOF 8
ENDMDL
MODEL 6
REMARK VINA RESULT:      -7.4      2.494     10.672
REMARK  Name = 
REMARK  12 active torsions:
REMARK  status: ('A' for Active; 'I' for Inactive)
REMARK    1  A    between atoms: C_1  and  C_2
REMARK    2  A    between atoms: C_2  and  O_3
REMARK    3  A    between atoms: O_3  and  C_4
REMARK    4  A    between atoms: C_4  and  C_6
REMARK    5  A    between atoms: C_7  and  C_8
REMARK    6  A    between atoms: C_9  and  C_10
REMARK    7  A    between atoms: N_12  and  C_13
REMARK    8  A    between atoms: C_16  and  O_17
REMARK    9  A    between atoms: O_17  and  C_18
REMARK   10  A    between atoms: C_26  and  C_27
REMARK   11  A    between atoms: N_28  and  C_29
REMARK   12  A    between atoms: C_29  and  C_30
REMARK                            x       y       z     vdW  Elec       q    Type
REMARK                         _______ _______ _______ _____ _____    ______ ____
ROOT
ATOM      1  C   UNL     1       0.458  11.587  20.812  0.00  0.00    +0.000 C 
ATOM      2  O   UNL     1       1.629  11.910  20.989  0.00  0.00    +0.000 OA
ATOM      3  N   UNL     1       0.051  10.474  20.091  0.00  0.00    +0.000 N 
ATOM      4  H   UNL     1      -0.931  10.431  19.858  0.00  0.00    +0.000 HD
ENDROOT
BRANCH   1   8
ATOM      5  C   UNL     1      -2.435  13.160  22.576  0.00  0.00    +0.000 A 
ATOM      6  C   UNL     1      -1.488  12.136  22.424  0.00  0.00    +0.000 A 
ATOM      7  C   UNL     1      -1.329  10.899  23.257  0.00  0.00    +0.000 C 
ATOM      8  C   UNL     1      -0.631  12.455  21.308  0.00  0.00    +0.000 A 
ATOM      9  C   UNL     1      -1.093  13.655  20.784  0.00  0.00    +0.000 A 
ATOM     10  C   UNL     1      -0.643  14.420  19.580  0.00  0.00    +0.000 C 
ATOM     11  N   UNL     1      -2.196  14.058  21.538  0.00  0.00    +0.000 N 
BRANCH   5  12
ATOM     12  C   UNL     1      -3.457  13.219  23.624  0.00  0.00    +0.000 C 
ATOM     13  O   UNL     1      -3.386  13.886  24.655  0.00  0.00    +0.000 OA
BRANCH  12  14
ATOM     14  O   UNL     1      -4.538  12.442  23.335  0.00  0.00    +0.000 OA
BRANCH  14  16
ATOM     15  C   UNL     1      -6.918  12.881  23.397  0.00  0.00    +0.000 C 
ATOM     16  C   UNL     1      -5.669  12.592  24.208  0.00  0.00    +0.000 C 
ENDBRANCH  14  16
ENDBRANCH  12  14
ENDBRANCH   5  12
BRANCH  11  17
ATOM     17  C   UNL     1      -3.006  15.228  21.202  0.00  0.00    +0.000 C 
ATOM     18  C   UNL     1      -2.637  16.460  22.011  0.00  0.00    +0.000 C 
ENDBRANCH  11  17
ENDBRANCH   1   8
BRANCH   3  19
ATOM     19  C   UNL     1       0.894   9.479  19.535  0.00  0.00    +0.000 A 
ATOM     20  C   UNL     1       1.322   9.477  18.205  0.00  0.00    +0.000 A 
ATOM     21  C   UNL     1       2.170   8.472  17.721  0.00  0.00    +0.000 A 
ATOM     22  C   UNL     1       2.608   7.451  18.562  0.00  0.00    +0.000 A 
ATOM     23  C   UNL     1       2.144   7.413  19.878  0.00  0.00    +0.000 A 
ATOM     24  C   UNL     1       1.323   8.439  20.370  0.00  0.00    +0.000 A 
BRANCH  22  25
ATOM     25  O   UNL     1       3.426   6.505  17.987  0.00  0.00    +0.000 OA
BRANCH  25  26
ATOM     26  C   UNL     1       3.270   5.169  18.284  0.00  0.00    +0.000 A 
ATOM     27  C   UNL     1       2.099   4.572  17.806  0.00  0.00    +0.000 A 
ATOM     28  C   UNL     1       1.838   3.225  18.064  0.00  0.00    +0.000 A 
ATOM     29  C   UNL     1       2.748   2.468  18.801  0.00  0.00    +0.000 A 
ATOM     30  C   UNL     1       3.936   3.047  19.242  0.00  0.00    +0.000 A 
ATOM     31  C   UNL     1       4.211   4.387  18.958  0.00  0.00    +0.000 A 
ENDBRANCH  25  26
ENDBRANCH  22  25
ENDBRANCH   3  19
TORSDOF 8
ENDMDL
MODEL 7
REMARK VINA RESULT:      -7.4      2.492     10.367
REMARK  Name = 
REMARK  12 active torsions:
REMARK  status: ('A' for Active; 'I' for Inactive)
REMARK    1  A    between atoms: C_1  and  C_2
REMARK    2  A    between atoms: C_2  and  O_3
REMARK    3  A    between atoms: O_3  and  C_4
REMARK    4  A    between atoms: C_4  and  C_6
REMARK    5  A    between atoms: C_7  and  C_8
REMARK    6  A    between atoms: C_9  and  C_10
REMARK    7  A    between atoms: N_12  and  C_13
REMARK    8  A    between atoms: C_16  and  O_17
REMARK    9  A    between atoms: O_17  and  C_18
REMARK   10  A    between atoms: C_26  and  C_27
REMARK   11  A    between atoms: N_28  and  C_29
REMARK   12  A    between atoms: C_29  and  C_30
REMARK                            x       y       z     vdW  Elec       q    Type
REMARK                         _______ _______ _______ _____ _____    ______ ____
ROOT
ATOM      1  C   UNL     1      -0.351  10.728  19.831  0.00  0.00    +0.000 C 
ATOM      2  O   UNL     1      -1.228  10.061  19.290  0.00  0.00    +0.000 OA
ATOM      3  N   UNL     1       0.968  10.322  19.973  0.00  0.00    +0.000 N 
ATOM      4  H   UNL     1       1.535  10.872  20.602  0.00  0.00    +0.000 HD
ENDROOT
BRANCH   1   8
ATOM      5  C   UNL     1      -1.377  13.532  22.075  0.00  0.00    +0.000 A 
ATOM      6  C   UNL     1      -1.083  12.181  21.841  0.00  0.00    +0.000 A 
ATOM      7  C   UNL     1      -1.134  11.046  22.820  0.00  0.00    +0.000 C 
ATOM      8  C   UNL     1      -0.690  12.021  20.463  0.00  0.00    +0.000 A 
ATOM      9  C   UNL     1      -0.780  13.276  19.877  0.00  0.00    +0.000 A 
ATOM     10  C   UNL     1      -0.571  13.696  18.456  0.00  0.00    +0.000 C 
ATOM     11  N   UNL     1      -1.220  14.175  20.849  0.00  0.00    +0.000 N 
BRANCH   5  12
ATOM     12  C   UNL     1      -1.776  14.102  23.365  0.00  0.00    +0.000 C 
ATOM     13  O   UNL     1      -1.025  14.318  24.314  0.00  0.00    +0.000 OA
BRANCH  12  14
ATOM     14  O   UNL     1      -3.108  14.384  23.413  0.00  0.00    +0.000 OA
BRANCH  14  16
ATOM     15  C   UNL     1      -4.215  12.592  24.607  0.00  0.00    +0.000 C 
ATOM     16  C   UNL     1      -3.992  13.261  23.265  0.00  0.00    +0.000 C 
ENDBRANCH  14  16
ENDBRANCH  12  14
ENDBRANCH   5  12
BRANCH  11  17
ATOM     17  C   UNL     1      -1.534  15.573  20.558  0.00  0.00    +0.000 C 
ATOM     18  C   UNL     1      -0.398  16.522  20.898  0.00  0.00    +0.000 C 
ENDBRANCH  11  17
ENDBRANCH   1   8
BRANCH   3  19
ATOM     19  C   UNL     1       1.547   9.143  19.440  0.00  0.00    +0.000 A 
ATOM     20  C   UNL     1       1.961   9.014  18.111  0.00  0.00    +0.000 A 
ATOM     21  C   UNL     1       2.544   7.826  17.650  0.00  0.00    +0.000 A 
ATOM     22  C   UNL     1       2.725   6.746  18.512  0.00  0.00    +0.000 A 
ATOM     23  C   UNL     1       2.267   6.845  19.827  0.00  0.00    +0.000 A 
ATOM     24  C   UNL     1       1.716   8.047  20.296  0.00  0.00    +0.000 A 
BRANCH  22  25
ATOM     25  O   UNL     1       3.293   5.621  17.958  0.00  0.00    +0.000 OA
BRANCH  25  26
ATOM     26  C   UNL     1       2.804   4.369  18.258  0.00  0.00    +0.000 A 
ATOM     27  C   UNL     1       3.759   3.409  18.605  0.00  0.00    +0.000 A 
ATOM     28  C   UNL     1       3.370   2.104  18.914  0.00  0.00    +0.000 A 
ATOM     29  C   UNL     1       2.021   1.754  18.878  0.00  0.00    +0.000 A 
ATOM     30  C   UNL     1       1.061   2.717  18.575  0.00  0.00    +0.000 A 
ATOM     31  C   UNL     1       1.449   4.030  18.296  0.00  0.00    +0.000 A 
ENDBRANCH  25  26
ENDBRANCH  22  25
ENDBRANCH   3  19
TORSDOF 8
ENDMDL
MODEL 8
REMARK VINA RESULT:      -7.4      2.708     10.419
REMARK  Name = 
REMARK  12 active torsions:
REMARK  status: ('A' for Active; 'I' for Inactive)
REMARK    1  A    between atoms: C_1  and  C_2
REMARK    2  A    between atoms: C_2  and  O_3
REMARK    3  A    between atoms: O_3  and  C_4
REMARK    4  A    between atoms: C_4  and  C_6
REMARK    5  A    between atoms: C_7  and  C_8
REMARK    6  A    between atoms: C_9  and  C_10
REMARK    7  A    between atoms: N_12  and  C_13
REMARK    8  A    between atoms: C_16  and  O_17
REMARK    9  A    between atoms: O_17  and  C_18
REMARK   10  A    between atoms: C_26  and  C_27
REMARK   11  A    between atoms: N_28  and  C_29
REMARK   12  A    between atoms: C_29  and  C_30
REMARK                            x       y       z     vdW  Elec       q    Type
REMARK                         _______ _______ _______ _____ _____    ______ ____
ROOT
ATOM      1  C   UNL     1      -0.378  10.892  20.014  0.00  0.00    +0.000 C 
ATOM      2  O   UNL     1      -1.263  10.292  19.410  0.00  0.00    +0.000 OA
ATOM      3  N   UNL     1       0.925  10.437  20.150  0.00  0.00    +0.000 N 
ATOM      4  H   UNL     1       1.496  10.923  20.827  0.00  0.00    +0.000 HD
ENDROOT
BRANCH   1   8
ATOM      5  C   UNL     1      -1.372  13.557  22.434  0.00  0.00    +0.000 A 
ATOM      6  C   UNL     1      -1.116  12.218  22.108  0.00  0.00    +0.000 A 
ATOM      7  C   UNL     1      -1.230  11.016  22.998  0.00  0.00    +0.000 C 
ATOM      8  C   UNL     1      -0.691  12.146  20.731  0.00  0.00    +0.000 A 
ATOM      9  C   UNL     1      -0.726  13.443  20.238  0.00  0.00    +0.000 A 
ATOM     10  C   UNL     1      -0.464  13.959  18.858  0.00  0.00    +0.000 C 
ATOM     11  N   UNL     1      -1.162  14.283  21.263  0.00  0.00    +0.000 N 
BRANCH   5  12
ATOM     12  C   UNL     1      -1.788  14.044  23.753  0.00  0.00    +0.000 C 
ATOM     13  O   UNL     1      -2.900  13.888  24.254  0.00  0.00    +0.000 OA
BRANCH  12  14
ATOM     14  O   UNL     1      -0.786  14.705  24.397  0.00  0.00    +0.000 OA
BRANCH  14  16
ATOM     15  C   UNL     1      -0.841  16.003  26.440  0.00  0.00    +0.000 C 
ATOM     16  C   UNL     1      -1.136  15.984  24.953  0.00  0.00    +0.000 C 
ENDBRANCH  14  16
ENDBRANCH  12  14
ENDBRANCH   5  12
BRANCH  11  17
ATOM     17  C   UNL     1      -1.423  15.708  21.069  0.00  0.00    +0.000 C 
ATOM     18  C   UNL     1      -2.896  16.021  20.865  0.00  0.00    +0.000 C 
ENDBRANCH  11  17
ENDBRANCH   1   8
BRANCH   3  19
ATOM     19  C   UNL     1       1.481   9.283  19.543  0.00  0.00    +0.000 A 
ATOM     20  C   UNL     1       1.833   9.208  18.192  0.00  0.00    +0.000 A 
ATOM     21  C   UNL     1       2.395   8.041  17.657  0.00  0.00    +0.000 A 
ATOM     22  C   UNL     1       2.618   6.928  18.465  0.00  0.00    +0.000 A 
ATOM     23  C   UNL     1       2.221   6.973  19.802  0.00  0.00    +0.000 A 
ATOM     24  C   UNL     1       1.691   8.153  20.345  0.00  0.00    +0.000 A 
BRANCH  22  25
ATOM     25  O   UNL     1       3.160   5.828  17.840  0.00  0.00    +0.000 OA
BRANCH  25  26
ATOM     26  C   UNL     1       2.782   4.556  18.207  0.00  0.00    +0.000 A 
ATOM     27  C   UNL     1       3.778   3.770  18.796  0.00  0.00    +0.000 A 
ATOM     28  C   UNL     1       3.501   2.460  19.192  0.00  0.00    +0.000 A 
ATOM     29  C   UNL     1       2.226   1.930  19.001  0.00  0.00    +0.000 A 
ATOM     30  C   UNL     1       1.218   2.723  18.455  0.00  0.00    +0.000 A 
ATOM     31  C   UNL     1       1.488   4.043  18.087  0.00  0.00    +0.000 A 
ENDBRANCH  25  26
ENDBRANCH  22  25
ENDBRANCH   3  19
TORSDOF 8
ENDMDL
MODEL 9
REMARK VINA RESULT:      -7.4      2.420     10.611
REMARK  Name = 
REMARK  12 active torsions:
REMARK  status: ('A' for Active; 'I' for Inactive)
REMARK    1  A    between atoms: C_1  and  C_2
REMARK    2  A    between atoms: C_2  and  O_3
REMARK    3  A    between atoms: O_3  and  C_4
REMARK    4  A    between atoms: C_4  and  C_6
REMARK    5  A    between atoms: C_7  and  C_8
REMARK    6  A    between atoms: C_9  and  C_10
REMARK    7  A    between atoms: N_12  and  C_13
REMARK    8  A    between atoms: C_16  and  O_17
REMARK    9  A    between atoms: O_17  and  C_18
REMARK   10  A    between atoms: C_26  and  C_27
REMARK   11  A    between atoms: N_28  and  C_29
REMARK   12  A    between atoms: C_29  and  C_30
REMARK                            x       y       z     vdW  Elec       q    Type
REMARK                         _______ _______ _______ _____ _____    ______ ____
ROOT
ATOM      1  C   UNL     1       0.530  11.506  20.872  0.00  0.00    +0.000 C 
ATOM      2  O   UNL     1       1.698  11.762  21.148  0.00  0.00    +0.000 OA
ATOM      3  N   UNL     1       0.127  10.450  20.069  0.00  0.00    +0.000 N 
ATOM      4  H   UNL     1      -0.837  10.466  19.765  0.00  0.00    +0.000 HD
ENDROOT
BRANCH   1   8
ATOM      5  C   UNL     1      -2.388  13.147  22.530  0.00  0.00    +0.000 A 
ATOM      6  C   UNL     1      -1.469  12.095  22.404  0.00  0.00    +0.000 A 
ATOM      7  C   UNL     1      -1.388  10.841  23.223  0.00  0.00    +0.000 C 
ATOM      8  C   UNL     1      -0.552  12.402  21.333  0.00  0.00    +0.000 A 
ATOM      9  C   UNL     1      -0.951  13.624  20.809  0.00  0.00    +0.000 A 
ATOM     10  C   UNL     1      -0.421  14.392  19.639  0.00  0.00    +0.000 C 
ATOM     11  N   UNL     1      -2.073  14.052  21.519  0.00  0.00    +0.000 N 
BRANCH   5  12
ATOM     12  C   UNL     1      -3.454  13.225  23.532  0.00  0.00    +0.000 C 
ATOM     13  O   UNL     1      -3.438  13.930  24.539  0.00  0.00    +0.000 OA
BRANCH  12  14
ATOM     14  O   UNL     1      -4.508  12.417  23.227  0.00  0.00    +0.000 OA
BRANCH  14  16
ATOM     15  C   UNL     1      -6.348  13.848  22.574  0.00  0.00    +0.000 C 
ATOM     16  C   UNL     1      -5.317  12.834  22.116  0.00  0.00    +0.000 C 
ENDBRANCH  14  16
ENDBRANCH  12  14
ENDBRANCH   5  12
BRANCH  11  17
ATOM     17  C   UNL     1      -2.829  15.253  21.166  0.00  0.00    +0.000 C 
ATOM     18  C   UNL     1      -2.470  16.456  22.023  0.00  0.00    +0.000 C 
ENDBRANCH  11  17
ENDBRANCH   1   8
BRANCH   3  19
ATOM     19  C   UNL     1       0.961   9.441  19.525  0.00  0.00    +0.000 A 
ATOM     20  C   UNL     1       1.388   9.420  18.193  0.00  0.00    +0.000 A 
ATOM     21  C   UNL     1       2.228   8.403  17.722  0.00  0.00    +0.000 A 
ATOM     22  C   UNL     1       2.660   7.389  18.574  0.00  0.00    +0.000 A 
ATOM     23  C   UNL     1       2.198   7.372  19.892  0.00  0.00    +0.000 A 
ATOM     24  C   UNL     1       1.385   8.409  20.372  0.00  0.00    +0.000 A 
BRANCH  22  25
ATOM     25  O   UNL     1       3.471   6.431  18.011  0.00  0.00    +0.000 OA
BRANCH  25  26
ATOM     26  C   UNL     1       3.117   5.101  18.052  0.00  0.00    +0.000 A 
ATOM     27  C   UNL     1       4.145   4.206  18.363  0.00  0.00    +0.000 A 
ATOM     28  C   UNL     1       3.894   2.833  18.416  0.00  0.00    +0.000 A 
ATOM     29  C   UNL     1       2.612   2.349  18.160  0.00  0.00    +0.000 A 
ATOM     30  C   UNL     1       1.574   3.240  17.892  0.00  0.00    +0.000 A 
ATOM     31  C   UNL     1       1.820   4.615  17.869  0.00  0.00    +0.000 A 
ENDBRANCH  25  26
ENDBRANCH  22  25
ENDBRANCH   3  19
TORSDOF 8
ENDMDL
