MODEL 1
REMARK VINA RESULT:      -9.1      0.000      0.000
REMARK  Name = 
REMARK  6 active torsions:
REMARK  status: ('A' for Active; 'I' for Inactive)
REMARK    1  A    between atoms: C_1  and  C_2
REMARK    2  A    between atoms: C_4  and  C_5
REMARK    3  A    between atoms: C_7  and  N_8
REMARK    4  A    between atoms: N_8  and  S_9
REMARK    5  A    between atoms: S_9  and  C_12
REMARK    6  A    between atoms: C_20  and  C_21
REMARK                            x       y       z     vdW  Elec       q    Type
REMARK                         _______ _______ _______ _____ _____    ______ ____
ROOT
ATOM      1  C   UNL     1       2.273   5.840  19.192  0.00  0.00    +0.000 A 
ATOM      2  C   UNL     1       1.863   6.176  20.486  0.00  0.00    +0.000 A 
ATOM      3  C   UNL     1       1.534   7.503  20.783  0.00  0.00    +0.000 A 
ATOM      4  C   UNL     1       1.606   8.479  19.788  0.00  0.00    +0.000 A 
ATOM      5  C   UNL     1       2.075   8.143  18.514  0.00  0.00    +0.000 A 
ATOM      6  C   UNL     1       2.411   6.827  18.211  0.00  0.00    +0.000 A 
ATOM      7  O   UNL     1       2.215   9.048  17.500  0.00  0.00    +0.000 OA
ATOM      8  C   UNL     1       2.102  10.399  17.963  0.00  0.00    +0.000 C 
ATOM      9  C   UNL     1       1.002  10.590  19.002  0.00  0.00    +0.000 C 
ATOM     10  O   UNL     1       1.210   9.743  20.138  0.00  0.00    +0.000 OA
ENDROOT
BRANCH   9  11
ATOM     11  C   UNL     1      -0.421  10.451  18.417  0.00  0.00    +0.000 C 
ATOM     12  O   UNL     1      -0.701   9.630  17.542  0.00  0.00    +0.000 OA
ATOM     13  N   UNL     1      -1.385  11.306  18.923  0.00  0.00    +0.000 N 
ATOM     14  C   UNL     1      -1.207  12.364  19.898  0.00  0.00    +0.000 C 
ATOM     15  C   UNL     1      -2.585  12.499  20.518  0.00  0.00    +0.000 C 
ATOM     16  C   UNL     1      -3.525  12.238  19.345  0.00  0.00    +0.000 C 
ATOM     17  C   UNL     1      -2.756  11.278  18.439  0.00  0.00    +0.000 C 
ENDBRANCH   9  11
BRANCH   1  18
ATOM     18  S   UNL     1       2.653   4.151  18.783  0.00  0.00    +0.000 S 
ATOM     19  O   UNL     1       2.311   3.938  17.396  0.00  0.00    +0.000 OA
ATOM     20  O   UNL     1       2.076   3.333  19.831  0.00  0.00    +0.000 OA
BRANCH  18  21
ATOM     21  N   UNL     1       4.319   4.028  18.951  0.00  0.00    +0.000 N 
ATOM     22  H   UNL     1       4.647   3.941  19.909  0.00  0.00    +0.000 HD
BRANCH  21  29
ATOM     23  C   UNL     1       7.579   7.500  17.615  0.00  0.00    +0.000 C 
ATOM     24  C   UNL     1       6.787   6.263  17.301  0.00  0.00    +0.000 A 
ATOM     25  C   UNL     1       6.847   5.680  16.027  0.00  0.00    +0.000 A 
ATOM     26  C   UNL     1       6.081   4.549  15.721  0.00  0.00    +0.000 A 
ATOM     27  C   UNL     1       6.148   3.902  14.368  0.00  0.00    +0.000 C 
ATOM     28  C   UNL     1       5.239   4.011  16.700  0.00  0.00    +0.000 A 
ATOM     29  C   UNL     1       5.190   4.572  17.975  0.00  0.00    +0.000 A 
ATOM     30  C   UNL     1       5.964   5.691  18.280  0.00  0.00    +0.000 A 
ENDBRANCH  21  29
ENDBRANCH  18  21
ENDBRANCH   1  18
TORSDOF 4
ENDMDL
MODEL 2
REMARK VINA RESULT:      -9.1      0.076      1.606
REMARK  Name = 
REMARK  6 active torsions:
REMARK  status: ('A' for Active; 'I' for Inactive)
REMARK    1  A    between atoms: C_1  and  C_2
REMARK    2  A    between atoms: C_4  and  C_5
REMARK    3  A    between atoms: C_7  and  N_8
REMARK    4  A    between atoms: N_8  and  S_9
REMARK    5  A    between atoms: S_9  and  C_12
REMARK    6  A    between atoms: C_20  and  C_21
REMARK                            x       y       z     vdW  Elec       q    Type
REMARK                         _______ _______ _______ _____ _____    ______ ____
ROOT
ATOM      1  C   UNL     1       2.253   5.769  19.179  0.00  0.00    +0.000 A 
ATOM      2  C   UNL     1       1.860   6.115  20.476  0.00  0.00    +0.000 A 
ATOM      3  C   UNL     1       1.551   7.446  20.772  0.00  0.00    +0.000 A 
ATOM      4  C   UNL     1       1.625   8.418  19.773  0.00  0.00    +0.000 A 
ATOM      5  C   UNL     1       2.077   8.073  18.496  0.00  0.00    +0.000 A 
ATOM      6  C   UNL     1       2.393   6.752  18.194  0.00  0.00    +0.000 A 
ATOM      7  O   UNL     1       2.219   8.973  17.478  0.00  0.00    +0.000 OA
ATOM      8  C   UNL     1       2.127  10.326  17.938  0.00  0.00    +0.000 C 
ATOM      9  C   UNL     1       1.040  10.534  18.988  0.00  0.00    +0.000 C 
ATOM     10  O   UNL     1       1.248   9.688  20.123  0.00  0.00    +0.000 OA
ENDROOT
BRANCH   9  11
ATOM     11  C   UNL     1      -0.390  10.412  18.417  0.00  0.00    +0.000 C 
ATOM     12  O   UNL     1      -0.691   9.588  17.551  0.00  0.00    +0.000 OA
ATOM     13  N   UNL     1      -1.337  11.285  18.925  0.00  0.00    +0.000 N 
ATOM     14  C   UNL     1      -1.134  12.348  19.889  0.00  0.00    +0.000 C 
ATOM     15  C   UNL     1      -2.504  12.508  20.522  0.00  0.00    +0.000 C 
ATOM     16  C   UNL     1      -3.459  12.251  19.360  0.00  0.00    +0.000 C 
ATOM     17  C   UNL     1      -2.713  11.273  18.454  0.00  0.00    +0.000 C 
ENDBRANCH   9  11
BRANCH   1  18
ATOM     18  S   UNL     1       2.607   4.075  18.771  0.00  0.00    +0.000 S 
ATOM     19  O   UNL     1       2.227   3.856  17.395  0.00  0.00    +0.000 OA
ATOM     20  O   UNL     1       2.051   3.269  19.840  0.00  0.00    +0.000 OA
BRANCH  18  21
ATOM     21  N   UNL     1       4.276   3.938  18.896  0.00  0.00    +0.000 N 
ATOM     22  H   UNL     1       4.624   3.805  19.842  0.00  0.00    +0.000 HD
BRANCH  21  29
ATOM     23  C   UNL     1       6.217   3.897  14.346  0.00  0.00    +0.000 C 
ATOM     24  C   UNL     1       6.091   4.522  15.706  0.00  0.00    +0.000 A 
ATOM     25  C   UNL     1       6.862   5.641  16.053  0.00  0.00    +0.000 A 
ATOM     26  C   UNL     1       6.773   6.202  17.333  0.00  0.00    +0.000 A 
ATOM     27  C   UNL     1       7.578   7.411  17.714  0.00  0.00    +0.000 C 
ATOM     28  C   UNL     1       5.913   5.624  18.273  0.00  0.00    +0.000 A 
ATOM     29  C   UNL     1       5.128   4.525  17.929  0.00  0.00    +0.000 A 
ATOM     30  C   UNL     1       5.210   3.977  16.650  0.00  0.00    +0.000 A 
ENDBRANCH  21  29
ENDBRANCH  18  21
ENDBRANCH   1  18
TORSDOF 4
ENDMDL
MODEL 3
REMARK VINA RESULT:      -8.4      1.109      2.023
REMARK  Name = 
REMARK  6 active torsions:
REMARK  status: ('A' for Active; 'I' for Inactive)
REMARK    1  A    between atoms: C_1  and  C_2
REMARK    2  A    between atoms: C_4  and  C_5
REMARK    3  A    between atoms: C_7  and  N_8
REMARK    4  A    between atoms: N_8  and  S_9
REMARK    5  A    between atoms: S_9  and  C_12
REMARK    6  A    between atoms: C_20  and  C_21
REMARK                            x       y       z     vdW  Elec       q    Type
REMARK                         _______ _______ _______ _____ _____    ______ ____
ROOT
ATOM      1  C   UNL     1       2.231   6.799  19.643  0.00  0.00    +0.000 A 
ATOM      2  C   UNL     1       1.596   6.999  20.874  0.00  0.00    +0.000 A 
ATOM      3  C   UNL     1       0.994   8.231  21.147  0.00  0.00    +0.000 A 
ATOM      4  C   UNL     1       1.020   9.248  20.191  0.00  0.00    +0.000 A 
ATOM      5  C   UNL     1       1.708   9.058  18.989  0.00  0.00    +0.000 A 
ATOM      6  C   UNL     1       2.317   7.837  18.711  0.00  0.00    +0.000 A 
ATOM      7  O   UNL     1       1.816  10.017  18.022  0.00  0.00    +0.000 OA
ATOM      8  C   UNL     1       1.397  11.304  18.490  0.00  0.00    +0.000 C 
ATOM      9  C   UNL     1       0.151  11.250  19.369  0.00  0.00    +0.000 C 
ATOM     10  O   UNL     1       0.356  10.404  20.506  0.00  0.00    +0.000 OA
ENDROOT
BRANCH   9  11
ATOM     11  C   UNL     1      -1.131  10.886  18.588  0.00  0.00    +0.000 C 
ATOM     12  O   UNL     1      -1.148  10.028  17.704  0.00  0.00    +0.000 OA
ATOM     13  N   UNL     1      -2.280  11.580  18.925  0.00  0.00    +0.000 N 
ATOM     14  C   UNL     1      -2.414  12.657  19.886  0.00  0.00    +0.000 C 
ATOM     15  C   UNL     1      -3.872  12.575  20.296  0.00  0.00    +0.000 C 
ATOM     16  C   UNL     1      -4.578  12.164  19.007  0.00  0.00    +0.000 C 
ATOM     17  C   UNL     1      -3.544  11.334  18.249  0.00  0.00    +0.000 C 
ENDBRANCH   9  11
BRANCH   1  18
ATOM     18  S   UNL     1       2.964   5.224  19.259  0.00  0.00    +0.000 S 
ATOM     19  O   UNL     1       2.022   4.191  19.623  0.00  0.00    +0.000 OA
ATOM     20  O   UNL     1       4.303   5.247  19.815  0.00  0.00    +0.000 OA
BRANCH  18  21
ATOM     21  N   UNL     1       3.144   5.224  17.590  0.00  0.00    +0.000 N 
ATOM     22  H   UNL     1       2.419   4.724  17.082  0.00  0.00    +0.000 HD
BRANCH  21  29
ATOM     23  C   UNL     1       6.417   3.852  14.145  0.00  0.00    +0.000 C 
ATOM     24  C   UNL     1       6.039   4.711  15.318  0.00  0.00    +0.000 A 
ATOM     25  C   UNL     1       6.964   5.604  15.878  0.00  0.00    +0.000 A 
ATOM     26  C   UNL     1       6.625   6.378  16.995  0.00  0.00    +0.000 A 
ATOM     27  C   UNL     1       7.597   7.353  17.593  0.00  0.00    +0.000 C 
ATOM     28  C   UNL     1       5.353   6.239  17.560  0.00  0.00    +0.000 A 
ATOM     29  C   UNL     1       4.421   5.368  16.997  0.00  0.00    +0.000 A 
ATOM     30  C   UNL     1       4.758   4.609  15.877  0.00  0.00    +0.000 A 
ENDBRANCH  21  29
ENDBRANCH  18  21
ENDBRANCH   1  18
TORSDOF 4
ENDMDL
MODEL 4
REMARK VINA RESULT:      -7.7      1.583      1.889
REMARK  Name = 
REMARK  6 active torsions:
REMARK  status: ('A' for Active; 'I' for Inactive)
REMARK    1  A    between atoms: C_1  and  C_2
REMARK    2  A    between atoms: C_4  and  C_5
REMARK    3  A    between atoms: C_7  and  N_8
REMARK    4  A    between atoms: N_8  and  S_9
REMARK    5  A    between atoms: S_9  and  C_12
REMARK    6  A    between atoms: C_20  and  C_21
REMARK                            x       y       z     vdW  Elec       q    Type
REMARK                         _______ _______ _______ _____ _____    ______ ____
ROOT
ATOM      1  C   UNL     1       1.922   7.628  19.387  0.00  0.00    +0.000 A 
ATOM      2  C   UNL     1       1.350   7.620  20.664  0.00  0.00    +0.000 A 
ATOM      3  C   UNL     1       0.692   8.762  21.132  0.00  0.00    +0.000 A 
ATOM      4  C   UNL     1       0.600   9.896  20.323  0.00  0.00    +0.000 A 
ATOM      5  C   UNL     1       1.227   9.914  19.074  0.00  0.00    +0.000 A 
ATOM      6  C   UNL     1       1.890   8.785  18.602  0.00  0.00    +0.000 A 
ATOM      7  O   UNL     1       1.220  10.998  18.242  0.00  0.00    +0.000 OA
ATOM      8  C   UNL     1       0.753  12.180  18.902  0.00  0.00    +0.000 C 
ATOM      9  C   UNL     1      -0.434  11.926  19.827  0.00  0.00    +0.000 C 
ATOM     10  O   UNL     1      -0.112  10.953  20.826  0.00  0.00    +0.000 OA
ENDROOT
BRANCH   9  11
ATOM     11  C   UNL     1      -1.735  11.584  19.068  0.00  0.00    +0.000 C 
ATOM     12  O   UNL     1      -1.753  10.851  18.077  0.00  0.00    +0.000 OA
ATOM     13  N   UNL     1      -2.902  12.147  19.555  0.00  0.00    +0.000 N 
ATOM     14  C   UNL     1      -3.044  13.076  20.659  0.00  0.00    +0.000 C 
ATOM     15  C   UNL     1      -4.468  12.842  21.127  0.00  0.00    +0.000 C 
ATOM     16  C   UNL     1      -5.222  12.559  19.831  0.00  0.00    +0.000 C 
ATOM     17  C   UNL     1      -4.186  11.909  18.915  0.00  0.00    +0.000 C 
ENDBRANCH   9  11
BRANCH   1  18
ATOM     18  S   UNL     1       2.724   6.172  18.756  0.00  0.00    +0.000 S 
ATOM     19  O   UNL     1       1.736   5.383  18.057  0.00  0.00    +0.000 OA
ATOM     20  O   UNL     1       3.489   5.613  19.854  0.00  0.00    +0.000 OA
BRANCH  18  21
ATOM     21  N   UNL     1       3.844   6.741  17.642  0.00  0.00    +0.000 N 
ATOM     22  H   UNL     1       3.470   7.391  16.955  0.00  0.00    +0.000 HD
BRANCH  21  29
ATOM     23  C   UNL     1       8.329   5.051  18.864  0.00  0.00    +0.000 C 
ATOM     24  C   UNL     1       7.190   5.144  17.889  0.00  0.00    +0.000 A 
ATOM     25  C   UNL     1       7.280   4.544  16.625  0.00  0.00    +0.000 A 
ATOM     26  C   UNL     1       6.234   4.661  15.702  0.00  0.00    +0.000 A 
ATOM     27  C   UNL     1       6.307   4.009  14.352  0.00  0.00    +0.000 C 
ATOM     28  C   UNL     1       5.097   5.399  16.048  0.00  0.00    +0.000 A 
ATOM     29  C   UNL     1       4.992   5.981  17.311  0.00  0.00    +0.000 A 
ATOM     30  C   UNL     1       6.030   5.851  18.232  0.00  0.00    +0.000 A 
ENDBRANCH  21  29
ENDBRANCH  18  21
ENDBRANCH   1  18
TORSDOF 4
ENDMDL
MODEL 5
REMARK VINA RESULT:      -7.7      1.602      2.424
REMARK  Name = 
REMARK  6 active torsions:
REMARK  status: ('A' for Active; 'I' for Inactive)
REMARK    1  A    between atoms: C_1  and  C_2
REMARK    2  A    between atoms: C_4  and  C_5
REMARK    3  A    between atoms: C_7  and  N_8
REMARK    4  A    between atoms: N_8  and  S_9
REMARK    5  A    between atoms: S_9  and  C_12
REMARK    6  A    between atoms: C_20  and  C_21
REMARK                            x       y       z     vdW  Elec       q    Type
REMARK                         _______ _______ _______ _____ _____    ______ ____
ROOT
ATOM      1  C   UNL     1       1.977   7.700  19.357  0.00  0.00    +0.000 A 
ATOM      2  C   UNL     1       1.429   7.679  20.644  0.00  0.00    +0.000 A 
ATOM      3  C   UNL     1       0.778   8.815  21.135  0.00  0.00    +0.000 A 
ATOM      4  C   UNL     1       0.669   9.956  20.338  0.00  0.00    +0.000 A 
ATOM      5  C   UNL     1       1.272   9.987  19.078  0.00  0.00    +0.000 A 
ATOM      6  C   UNL     1       1.929   8.864  18.583  0.00  0.00    +0.000 A 
ATOM      7  O   UNL     1       1.247  11.079  18.256  0.00  0.00    +0.000 OA
ATOM      8  C   UNL     1       0.790  12.254  18.936  0.00  0.00    +0.000 C 
ATOM      9  C   UNL     1      -0.378  11.988  19.880  0.00  0.00    +0.000 C 
ATOM     10  O   UNL     1      -0.036  11.007  20.864  0.00  0.00    +0.000 OA
ENDROOT
BRANCH   9  11
ATOM     11  C   UNL     1      -1.693  11.650  19.143  0.00  0.00    +0.000 C 
ATOM     12  O   UNL     1      -1.726  10.937  18.138  0.00  0.00    +0.000 OA
ATOM     13  N   UNL     1      -2.854  12.194  19.665  0.00  0.00    +0.000 N 
ATOM     14  C   UNL     1      -2.979  13.100  20.791  0.00  0.00    +0.000 C 
ATOM     15  C   UNL     1      -4.391  12.845  21.284  0.00  0.00    +0.000 C 
ATOM     16  C   UNL     1      -5.170  12.581  19.999  0.00  0.00    +0.000 C 
ATOM     17  C   UNL     1      -4.149  11.958  19.048  0.00  0.00    +0.000 C 
ENDBRANCH   9  11
BRANCH   1  18
ATOM     18  S   UNL     1       2.771   6.251  18.698  0.00  0.00    +0.000 S 
ATOM     19  O   UNL     1       1.773   5.470  18.005  0.00  0.00    +0.000 OA
ATOM     20  O   UNL     1       3.552   5.682  19.777  0.00  0.00    +0.000 OA
BRANCH  18  21
ATOM     21  N   UNL     1       3.872   6.834  17.572  0.00  0.00    +0.000 N 
ATOM     22  H   UNL     1       3.482   7.470  16.882  0.00  0.00    +0.000 HD
BRANCH  21  29
ATOM     23  C   UNL     1       6.347   3.995  14.366  0.00  0.00    +0.000 C 
ATOM     24  C   UNL     1       6.263   4.702  15.688  0.00  0.00    +0.000 A 
ATOM     25  C   UNL     1       7.295   4.581  16.630  0.00  0.00    +0.000 A 
ATOM     26  C   UNL     1       7.200   5.210  17.878  0.00  0.00    +0.000 A 
ATOM     27  C   UNL     1       8.304   5.106  18.890  0.00  0.00    +0.000 C 
ATOM     28  C   UNL     1       6.055   5.953  18.183  0.00  0.00    +0.000 A 
ATOM     29  C   UNL     1       5.035   6.095  17.243  0.00  0.00    +0.000 A 
ATOM     30  C   UNL     1       5.138   5.477  15.997  0.00  0.00    +0.000 A 
ENDBRANCH  21  29
ENDBRANCH  18  21
ENDBRANCH   1  18
TORSDOF 4
ENDMDL
MODEL 6
REMARK VINA RESULT:      -7.6      1.355      2.037
REMARK  Name = 
REMARK  6 active torsions:
REMARK  status: ('A' for Active; 'I' for Inactive)
REMARK    1  A    between atoms: C_1  and  C_2
REMARK    2  A    between atoms: C_4  and  C_5
REMARK    3  A    between atoms: C_7  and  N_8
REMARK    4  A    between atoms: N_8  and  S_9
REMARK    5  A    between atoms: S_9  and  C_12
REMARK    6  A    between atoms: C_20  and  C_21
REMARK                            x       y       z     vdW  Elec       q    Type
REMARK                         _______ _______ _______ _____ _____    ______ ____
ROOT
ATOM      1  C   UNL     1       2.698   6.480  18.790  0.00  0.00    +0.000 A 
ATOM      2  C   UNL     1       2.166   6.554  20.082  0.00  0.00    +0.000 A 
ATOM      3  C   UNL     1       1.578   7.745  20.518  0.00  0.00    +0.000 A 
ATOM      4  C   UNL     1       1.515   8.847  19.663  0.00  0.00    +0.000 A 
ATOM      5  C   UNL     1       2.102   8.780  18.397  0.00  0.00    +0.000 A 
ATOM      6  C   UNL     1       2.696   7.602  17.956  0.00  0.00    +0.000 A 
ATOM      7  O   UNL     1       2.120   9.827  17.518  0.00  0.00    +0.000 OA
ATOM      8  C   UNL     1       1.729  11.058  18.138  0.00  0.00    +0.000 C 
ATOM      9  C   UNL     1       0.562  10.901  19.108  0.00  0.00    +0.000 C 
ATOM     10  O   UNL     1       0.869   9.958  20.139  0.00  0.00    +0.000 OA
ENDROOT
BRANCH   9  11
ATOM     11  C   UNL     1      -0.777  10.590  18.404  0.00  0.00    +0.000 C 
ATOM     12  O   UNL     1      -0.887   9.713  17.545  0.00  0.00    +0.000 OA
ATOM     13  N   UNL     1      -1.868  11.354  18.782  0.00  0.00    +0.000 N 
ATOM     14  C   UNL     1      -1.893  12.459  19.719  0.00  0.00    +0.000 C 
ATOM     15  C   UNL     1      -3.330  12.467  20.206  0.00  0.00    +0.000 C 
ATOM     16  C   UNL     1      -4.123  12.065  18.967  0.00  0.00    +0.000 C 
ATOM     17  C   UNL     1      -3.177  11.162  18.178  0.00  0.00    +0.000 C 
ENDBRANCH   9  11
BRANCH   1  18
ATOM     18  S   UNL     1       3.411   4.960  18.201  0.00  0.00    +0.000 S 
ATOM     19  O   UNL     1       2.415   4.275  17.411  0.00  0.00    +0.000 OA
ATOM     20  O   UNL     1       4.027   4.322  19.348  0.00  0.00    +0.000 OA
BRANCH  18  21
ATOM     21  N   UNL     1       4.666   5.433  17.192  0.00  0.00    +0.000 N 
ATOM     22  H   UNL     1       4.692   4.960  16.292  0.00  0.00    +0.000 HD
BRANCH  21  29
ATOM     23  C   UNL     1       8.480   5.019  20.315  0.00  0.00    +0.000 C 
ATOM     24  C   UNL     1       7.744   5.775  19.246  0.00  0.00    +0.000 A 
ATOM     25  C   UNL     1       8.196   7.033  18.820  0.00  0.00    +0.000 A 
ATOM     26  C   UNL     1       7.490   7.756  17.851  0.00  0.00    +0.000 A 
ATOM     27  C   UNL     1       7.972   9.093  17.369  0.00  0.00    +0.000 C 
ATOM     28  C   UNL     1       6.314   7.216  17.320  0.00  0.00    +0.000 A 
ATOM     29  C   UNL     1       5.869   5.958  17.724  0.00  0.00    +0.000 A 
ATOM     30  C   UNL     1       6.581   5.236  18.680  0.00  0.00    +0.000 A 
ENDBRANCH  21  29
ENDBRANCH  18  21
ENDBRANCH   1  18
TORSDOF 4
ENDMDL
MODEL 7
REMARK VINA RESULT:      -7.6      1.327      1.926
REMARK  Name = 
REMARK  6 active torsions:
REMARK  status: ('A' for Active; 'I' for Inactive)
REMARK    1  A    between atoms: C_1  and  C_2
REMARK    2  A    between atoms: C_4  and  C_5
REMARK    3  A    between atoms: C_7  and  N_8
REMARK    4  A    between atoms: N_8  and  S_9
REMARK    5  A    between atoms: S_9  and  C_12
REMARK    6  A    between atoms: C_20  and  C_21
REMARK                            x       y       z     vdW  Elec       q    Type
REMARK                         _______ _______ _______ _____ _____    ______ ____
ROOT
ATOM      1  C   UNL     1       2.794   6.341  18.674  0.00  0.00    +0.000 A 
ATOM      2  C   UNL     1       2.278   6.400  19.973  0.00  0.00    +0.000 A 
ATOM      3  C   UNL     1       1.698   7.587  20.431  0.00  0.00    +0.000 A 
ATOM      4  C   UNL     1       1.627   8.699  19.591  0.00  0.00    +0.000 A 
ATOM      5  C   UNL     1       2.199   8.648  18.317  0.00  0.00    +0.000 A 
ATOM      6  C   UNL     1       2.785   7.474  17.854  0.00  0.00    +0.000 A 
ATOM      7  O   UNL     1       2.209   9.706  17.452  0.00  0.00    +0.000 OA
ATOM      8  C   UNL     1       1.830  10.929  18.093  0.00  0.00    +0.000 C 
ATOM      9  C   UNL     1       0.673  10.763  19.074  0.00  0.00    +0.000 C 
ATOM     10  O   UNL     1       0.990   9.805  20.089  0.00  0.00    +0.000 OA
ENDROOT
BRANCH   9  11
ATOM     11  C   UNL     1      -0.675  10.464  18.382  0.00  0.00    +0.000 C 
ATOM     12  O   UNL     1      -0.810   9.562  17.553  0.00  0.00    +0.000 OA
ATOM     13  N   UNL     1      -1.744  11.269  18.735  0.00  0.00    +0.000 N 
ATOM     14  C   UNL     1      -1.738  12.406  19.635  0.00  0.00    +0.000 C 
ATOM     15  C   UNL     1      -3.173  12.468  20.122  0.00  0.00    +0.000 C 
ATOM     16  C   UNL     1      -3.980  12.046  18.898  0.00  0.00    +0.000 C 
ATOM     17  C   UNL     1      -3.059  11.092  18.139  0.00  0.00    +0.000 C 
ENDBRANCH   9  11
BRANCH   1  18
ATOM     18  S   UNL     1       3.496   4.828  18.057  0.00  0.00    +0.000 S 
ATOM     19  O   UNL     1       2.520   4.199  17.198  0.00  0.00    +0.000 OA
ATOM     20  O   UNL     1       4.046   4.131  19.203  0.00  0.00    +0.000 OA
BRANCH  18  21
ATOM     21  N   UNL     1       4.806   5.306  17.122  0.00  0.00    +0.000 N 
ATOM     22  H   UNL     1       4.919   4.794  16.251  0.00  0.00    +0.000 HD
BRANCH  21  29
ATOM     23  C   UNL     1       7.988   9.086  17.360  0.00  0.00    +0.000 C 
ATOM     24  C   UNL     1       7.512   7.747  17.847  0.00  0.00    +0.000 A 
ATOM     25  C   UNL     1       8.223   7.053  18.837  0.00  0.00    +0.000 A 
ATOM     26  C   UNL     1       7.802   5.788  19.266  0.00  0.00    +0.000 A 
ATOM     27  C   UNL     1       8.540   5.040  20.337  0.00  0.00    +0.000 C 
ATOM     28  C   UNL     1       6.666   5.214  18.684  0.00  0.00    +0.000 A 
ATOM     29  C   UNL     1       5.942   5.907  17.715  0.00  0.00    +0.000 A 
ATOM     30  C   UNL     1       6.358   7.172  17.300  0.00  0.00    +0.000 A 
ENDBRANCH  21  29
ENDBRANCH  18  21
ENDBRANCH   1  18
TORSDOF 4
ENDMDL
MODEL 8
REMARK VINA RESULT:      -7.6      2.974      4.480
REMARK  Name = 
REMARK  6 active torsions:
REMARK  status: ('A' for Active; 'I' for Inactive)
REMARK    1  A    between atoms: C_1  and  C_2
REMARK    2  A    between atoms: C_4  and  C_5
REMARK    3  A    between atoms: C_7  and  N_8
REMARK    4  A    between atoms: N_8  and  S_9
REMARK    5  A    between atoms: S_9  and  C_12
REMARK    6  A    between atoms: C_20  and  C_21
REMARK                            x       y       z     vdW  Elec       q    Type
REMARK                         _______ _______ _______ _____ _____    ______ ____
ROOT
ATOM      1  C   UNL     1       1.059   9.613  19.762  0.00  0.00    +0.000 A 
ATOM      2  C   UNL     1       0.640   8.854  20.860  0.00  0.00    +0.000 A 
ATOM      3  C   UNL     1       0.038   9.490  21.949  0.00  0.00    +0.000 A 
ATOM      4  C   UNL     1      -0.151  10.873  21.932  0.00  0.00    +0.000 A 
ATOM      5  C   UNL     1       0.325  11.629  20.858  0.00  0.00    +0.000 A 
ATOM      6  C   UNL     1       0.933  11.005  19.772  0.00  0.00    +0.000 A 
ATOM      7  O   UNL     1       0.218  12.990  20.786  0.00  0.00    +0.000 OA
ATOM      8  C   UNL     1      -0.173  13.565  22.038  0.00  0.00    +0.000 C 
ATOM      9  C   UNL     1      -1.243  12.758  22.766  0.00  0.00    +0.000 C 
ATOM     10  O   UNL     1      -0.804  11.417  23.008  0.00  0.00    +0.000 OA
ENDROOT
BRANCH   9  11
ATOM     11  C   UNL     1      -2.622  12.810  22.074  0.00  0.00    +0.000 C 
ATOM     12  O   UNL     1      -2.751  12.794  20.848  0.00  0.00    +0.000 OA
ATOM     13  N   UNL     1      -3.729  12.881  22.902  0.00  0.00    +0.000 N 
ATOM     14  C   UNL     1      -3.748  12.975  24.349  0.00  0.00    +0.000 C 
ATOM     15  C   UNL     1      -5.098  12.389  24.716  0.00  0.00    +0.000 C 
ATOM     16  C   UNL     1      -6.003  12.851  23.577  0.00  0.00    +0.000 C 
ATOM     17  C   UNL     1      -5.079  12.949  22.365  0.00  0.00    +0.000 C 
ENDBRANCH   9  11
BRANCH   1  18
ATOM     18  S   UNL     1       1.787   8.817  18.348  0.00  0.00    +0.000 S 
ATOM     19  O   UNL     1       2.604   9.788  17.658  0.00  0.00    +0.000 OA
ATOM     20  O   UNL     1       0.712   8.122  17.667  0.00  0.00    +0.000 OA
BRANCH  18  21
ATOM     21  N   UNL     1       2.788   7.630  18.985  0.00  0.00    +0.000 N 
ATOM     22  H   UNL     1       3.412   7.947  19.723  0.00  0.00    +0.000 HD
BRANCH  21  29
ATOM     23  C   UNL     1       2.110   2.872  17.812  0.00  0.00    +0.000 C 
ATOM     24  C   UNL     1       2.842   4.171  17.628  0.00  0.00    +0.000 A 
ATOM     25  C   UNL     1       3.935   4.257  16.753  0.00  0.00    +0.000 A 
ATOM     26  C   UNL     1       4.642   5.457  16.608  0.00  0.00    +0.000 A 
ATOM     27  C   UNL     1       5.801   5.572  15.662  0.00  0.00    +0.000 C 
ATOM     28  C   UNL     1       4.255   6.572  17.360  0.00  0.00    +0.000 A 
ATOM     29  C   UNL     1       3.157   6.499  18.216  0.00  0.00    +0.000 A 
ATOM     30  C   UNL     1       2.448   5.306  18.348  0.00  0.00    +0.000 A 
ENDBRANCH  21  29
ENDBRANCH  18  21
ENDBRANCH   1  18
TORSDOF 4
ENDMDL
MODEL 9
REMARK VINA RESULT:      -7.6      2.875      4.221
REMARK  Name = 
REMARK  6 active torsions:
REMARK  status: ('A' for Active; 'I' for Inactive)
REMARK    1  A    between atoms: C_1  and  C_2
REMARK    2  A    between atoms: C_4  and  C_5
REMARK    3  A    between atoms: C_7  and  N_8
REMARK    4  A    between atoms: N_8  and  S_9
REMARK    5  A    between atoms: S_9  and  C_12
REMARK    6  A    between atoms: C_20  and  C_21
REMARK                            x       y       z     vdW  Elec       q    Type
REMARK                         _______ _______ _______ _____ _____    ______ ____
ROOT
ATOM      1  C   UNL     1       1.198   9.437  19.715  0.00  0.00    +0.000 A 
ATOM      2  C   UNL     1       0.809   8.717  20.849  0.00  0.00    +0.000 A 
ATOM      3  C   UNL     1       0.224   9.389  21.926  0.00  0.00    +0.000 A 
ATOM      4  C   UNL     1       0.021  10.768  21.861  0.00  0.00    +0.000 A 
ATOM      5  C   UNL     1       0.467  11.487  20.748  0.00  0.00    +0.000 A 
ATOM      6  C   UNL     1       1.058  10.827  19.674  0.00  0.00    +0.000 A 
ATOM      7  O   UNL     1       0.345  12.843  20.628  0.00  0.00    +0.000 OA
ATOM      8  C   UNL     1      -0.025  13.462  21.865  0.00  0.00    +0.000 C 
ATOM      9  C   UNL     1      -1.071  12.673  22.646  0.00  0.00    +0.000 C 
ATOM     10  O   UNL     1      -0.613  11.347  22.929  0.00  0.00    +0.000 OA
ENDROOT
BRANCH   9  11
ATOM     11  C   UNL     1      -2.465  12.686  21.982  0.00  0.00    +0.000 C 
ATOM     12  O   UNL     1      -2.621  12.597  20.763  0.00  0.00    +0.000 OA
ATOM     13  N   UNL     1      -3.553  12.810  22.829  0.00  0.00    +0.000 N 
ATOM     14  C   UNL     1      -3.540  12.992  24.267  0.00  0.00    +0.000 C 
ATOM     15  C   UNL     1      -4.882  12.433  24.699  0.00  0.00    +0.000 C 
ATOM     16  C   UNL     1      -5.812  12.826  23.555  0.00  0.00    +0.000 C 
ATOM     17  C   UNL     1      -4.914  12.849  22.319  0.00  0.00    +0.000 C 
ENDBRANCH   9  11
BRANCH   1  18
ATOM     18  S   UNL     1       1.903   8.594  18.316  0.00  0.00    +0.000 S 
ATOM     19  O   UNL     1       2.730   9.535  17.597  0.00  0.00    +0.000 OA
ATOM     20  O   UNL     1       0.813   7.900  17.660  0.00  0.00    +0.000 OA
BRANCH  18  21
ATOM     21  N   UNL     1       2.891   7.408  18.977  0.00  0.00    +0.000 N 
ATOM     22  H   UNL     1       3.490   7.724  19.735  0.00  0.00    +0.000 HD
BRANCH  21  29
ATOM     23  C   UNL     1       5.810   5.436  15.505  0.00  0.00    +0.000 C 
ATOM     24  C   UNL     1       4.707   5.299  16.515  0.00  0.00    +0.000 A 
ATOM     25  C   UNL     1       4.017   4.086  16.659  0.00  0.00    +0.000 A 
ATOM     26  C   UNL     1       2.963   3.968  17.574  0.00  0.00    +0.000 A 
ATOM     27  C   UNL     1       2.227   2.673  17.755  0.00  0.00    +0.000 C 
ATOM     28  C   UNL     1       2.593   5.082  18.336  0.00  0.00    +0.000 A 
ATOM     29  C   UNL     1       3.288   6.284  18.213  0.00  0.00    +0.000 A 
ATOM     30  C   UNL     1       4.345   6.394  17.310  0.00  0.00    +0.000 A 
ENDBRANCH  21  29
ENDBRANCH  18  21
ENDBRANCH   1  18
TORSDOF 4
ENDMDL
