MODEL 1
REMARK VINA RESULT:      -7.7      0.000      0.000
REMARK  Name = 
REMARK  12 active torsions:
REMARK  status: ('A' for Active; 'I' for Inactive)
REMARK    1  A    between atoms: C_2  and  C_3
REMARK    2  A    between atoms: C_2  and  C_12
REMARK    3  A    between atoms: C_3  and  C_4
REMARK    4  A    between atoms: C_4  and  C_5
REMARK    5  A    between atoms: C_17  and  O_18
REMARK    6  A    between atoms: O_18  and  C_19
REMARK    7  A    between atoms: C_19  and  C_20
REMARK    8  A    between atoms: C_20  and  O_21
REMARK    9  A    between atoms: C_20  and  C_22
REMARK   10  A    between atoms: C_22  and  N_23
REMARK   11  A    between atoms: N_23  and  C_24
REMARK   12  A    between atoms: C_24  and  C_25
REMARK                            x       y       z     vdW  Elec       q    Type
REMARK                         _______ _______ _______ _____ _____    ______ ____
ROOT
ATOM      1  C   UNL     1       2.650   4.990  18.647  0.00  0.00    +0.000 A 
ATOM      2  C   UNL     1       1.442   4.463  18.136  0.00  0.00    +0.000 A 
ATOM      3  C   UNL     1       1.025   3.164  18.416  0.00  0.00    +0.000 A 
ATOM      4  C   UNL     1       1.811   2.356  19.212  0.00  0.00    +0.000 A 
ATOM      5  C   UNL     1       3.011   2.852  19.725  0.00  0.00    +0.000 A 
ATOM      6  C   UNL     1       3.457   4.166  19.465  0.00  0.00    +0.000 A 
ENDROOT
BRANCH   1   8
ATOM      7  O   UNL     1       3.699   6.603  17.287  0.00  0.00    +0.000 OA
ATOM      8  C   UNL     1       2.930   6.409  18.229  0.00  0.00    +0.000 C 
BRANCH   8   9
ATOM      9  C   UNL     1       2.276   7.572  18.940  0.00  0.00    +0.000 C 
BRANCH   9  10
ATOM     10  C   UNL     1       1.918   8.693  17.951  0.00  0.00    +0.000 C 
BRANCH  10  11
ATOM     11  C   UNL     1       0.785   9.562  18.446  0.00  0.00    +0.000 A 
ATOM     12  C   UNL     1      -0.385   9.710  17.686  0.00  0.00    +0.000 A 
ATOM     13  C   UNL     1      -1.427  10.519  18.144  0.00  0.00    +0.000 A 
ATOM     14  C   UNL     1      -1.299  11.178  19.362  0.00  0.00    +0.000 A 
ATOM     15  F   UNL     1      -2.294  11.960  19.797  0.00  0.00    +0.000 F 
ATOM     16  C   UNL     1      -0.154  11.031  20.136  0.00  0.00    +0.000 A 
ATOM     17  C   UNL     1       0.882  10.219  19.681  0.00  0.00    +0.000 A 
ENDBRANCH  10  11
ENDBRANCH   9  10
ENDBRANCH   8   9
ENDBRANCH   1   8
BRANCH   6  18
ATOM     18  O   UNL     1       4.646   4.642  19.986  0.00  0.00    +0.000 OA
BRANCH  18  19
ATOM     19  C   UNL     1       5.815   4.379  19.177  0.00  0.00    +0.000 C 
BRANCH  19  20
ATOM     20  C   UNL     1       6.754   5.585  19.040  0.00  0.00    +0.000 C 
BRANCH  20  21
ATOM     21  O   UNL     1       7.731   5.588  20.082  0.00  0.00    +0.000 OA
ATOM     22  H   UNL     1       7.727   6.485  20.469  0.00  0.00    +0.000 HD
ENDBRANCH  20  21
BRANCH  20  23
ATOM     23  C   UNL     1       7.440   5.663  17.666  0.00  0.00    +0.000 C 
BRANCH  23  24
ATOM     24  N   UNL     1       6.446   5.641  16.595  0.00  0.00    +0.000 NA
ATOM     25  H   UNL     1       6.717   6.279  15.846  0.00  0.00    +0.000 HD
BRANCH  24  26
ATOM     26  C   UNL     1       6.267   4.310  16.027  0.00  0.00    +0.000 C 
BRANCH  26  27
ATOM     27  C   UNL     1       6.594   4.332  14.552  0.00  0.00    +0.000 A 
ATOM     28  C   UNL     1       7.553   5.219  14.045  0.00  0.00    +0.000 A 
ATOM     29  C   UNL     1       7.835   5.252  12.678  0.00  0.00    +0.000 A 
ATOM     30  C   UNL     1       7.161   4.401  11.804  0.00  0.00    +0.000 A 
ATOM     31  C   UNL     1       6.208   3.512  12.296  0.00  0.00    +0.000 A 
ATOM     32  C   UNL     1       5.927   3.475  13.662  0.00  0.00    +0.000 A 
ENDBRANCH  26  27
ENDBRANCH  24  26
ENDBRANCH  23  24
ENDBRANCH  20  23
ENDBRANCH  19  20
ENDBRANCH  18  19
ENDBRANCH   6  18
TORSDOF 12
ENDMDL
MODEL 2
REMARK VINA RESULT:      -7.7      3.544      8.246
REMARK  Name = 
REMARK  12 active torsions:
REMARK  status: ('A' for Active; 'I' for Inactive)
REMARK    1  A    between atoms: C_2  and  C_3
REMARK    2  A    between atoms: C_2  and  C_12
REMARK    3  A    between atoms: C_3  and  C_4
REMARK    4  A    between atoms: C_4  and  C_5
REMARK    5  A    between atoms: C_17  and  O_18
REMARK    6  A    between atoms: O_18  and  C_19
REMARK    7  A    between atoms: C_19  and  C_20
REMARK    8  A    between atoms: C_20  and  O_21
REMARK    9  A    between atoms: C_20  and  C_22
REMARK   10  A    between atoms: C_22  and  N_23
REMARK   11  A    between atoms: N_23  and  C_24
REMARK   12  A    between atoms: C_24  and  C_25
REMARK                            x       y       z     vdW  Elec       q    Type
REMARK                         _______ _______ _______ _____ _____    ______ ____
ROOT
ATOM      1  C   UNL     1       2.685   3.905  18.751  0.00  0.00    +0.000 A 
ATOM      2  C   UNL     1       2.860   2.773  19.579  0.00  0.00    +0.000 A 
ATOM      3  C   UNL     1       2.636   2.821  20.953  0.00  0.00    +0.000 A 
ATOM      4  C   UNL     1       2.238   4.007  21.535  0.00  0.00    +0.000 A 
ATOM      5  C   UNL     1       2.063   5.140  20.739  0.00  0.00    +0.000 A 
ATOM      6  C   UNL     1       2.274   5.122  19.343  0.00  0.00    +0.000 A 
ENDROOT
BRANCH   1   8
ATOM      7  O   UNL     1       2.318   2.807  16.699  0.00  0.00    +0.000 OA
ATOM      8  C   UNL     1       2.980   3.657  17.296  0.00  0.00    +0.000 C 
BRANCH   8   9
ATOM      9  C   UNL     1       4.057   4.436  16.577  0.00  0.00    +0.000 C 
BRANCH   9  10
ATOM     10  C   UNL     1       5.457   3.961  16.999  0.00  0.00    +0.000 C 
BRANCH  10  11
ATOM     11  C   UNL     1       6.331   5.093  17.487  0.00  0.00    +0.000 A 
ATOM     12  C   UNL     1       6.333   6.329  16.824  0.00  0.00    +0.000 A 
ATOM     13  C   UNL     1       7.147   7.370  17.274  0.00  0.00    +0.000 A 
ATOM     14  C   UNL     1       7.956   7.177  18.388  0.00  0.00    +0.000 A 
ATOM     15  F   UNL     1       8.742   8.171  18.815  0.00  0.00    +0.000 F 
ATOM     16  C   UNL     1       7.955   5.964  19.068  0.00  0.00    +0.000 A 
ATOM     17  C   UNL     1       7.139   4.927  18.622  0.00  0.00    +0.000 A 
ENDBRANCH  10  11
ENDBRANCH   9  10
ENDBRANCH   8   9
ENDBRANCH   1   8
BRANCH   6  18
ATOM     18  O   UNL     1       2.092   6.253  18.570  0.00  0.00    +0.000 OA
BRANCH  18  19
ATOM     19  C   UNL     1       2.539   7.486  19.178  0.00  0.00    +0.000 C 
BRANCH  19  20
ATOM     20  C   UNL     1       1.412   8.501  19.413  0.00  0.00    +0.000 C 
BRANCH  20  21
ATOM     21  O   UNL     1       1.398   8.937  20.773  0.00  0.00    +0.000 OA
ATOM     22  H   UNL     1       2.070   8.408  21.245  0.00  0.00    +0.000 HD
ENDBRANCH  20  21
BRANCH  20  23
ATOM     23  C   UNL     1       1.482   9.710  18.466  0.00  0.00    +0.000 C 
BRANCH  23  24
ATOM     24  N   UNL     1       0.199   9.913  17.796  0.00  0.00    +0.000 NA
ATOM     25  H   UNL     1      -0.291   9.023  17.690  0.00  0.00    +0.000 HD
BRANCH  24  26
ATOM     26  C   UNL     1      -0.668  10.835  18.520  0.00  0.00    +0.000 C 
BRANCH  26  27
ATOM     27  C   UNL     1      -2.014  10.919  17.839  0.00  0.00    +0.000 A 
ATOM     28  C   UNL     1      -2.194  10.409  16.546  0.00  0.00    +0.000 A 
ATOM     29  C   UNL     1      -3.433  10.509  15.911  0.00  0.00    +0.000 A 
ATOM     30  C   UNL     1      -4.504  11.121  16.560  0.00  0.00    +0.000 A 
ATOM     31  C   UNL     1      -4.339  11.630  17.847  0.00  0.00    +0.000 A 
ATOM     32  C   UNL     1      -3.102  11.527  18.484  0.00  0.00    +0.000 A 
ENDBRANCH  26  27
ENDBRANCH  24  26
ENDBRANCH  23  24
ENDBRANCH  20  23
ENDBRANCH  19  20
ENDBRANCH  18  19
ENDBRANCH   6  18
TORSDOF 12
ENDMDL
MODEL 3
REMARK VINA RESULT:      -7.7      3.447      8.613
REMARK  Name = 
REMARK  12 active torsions:
REMARK  status: ('A' for Active; 'I' for Inactive)
REMARK    1  A    between atoms: C_2  and  C_3
REMARK    2  A    between atoms: C_2  and  C_12
REMARK    3  A    between atoms: C_3  and  C_4
REMARK    4  A    between atoms: C_4  and  C_5
REMARK    5  A    between atoms: C_17  and  O_18
REMARK    6  A    between atoms: O_18  and  C_19
REMARK    7  A    between atoms: C_19  and  C_20
REMARK    8  A    between atoms: C_20  and  O_21
REMARK    9  A    between atoms: C_20  and  C_22
REMARK   10  A    between atoms: C_22  and  N_23
REMARK   11  A    between atoms: N_23  and  C_24
REMARK   12  A    between atoms: C_24  and  C_25
REMARK                            x       y       z     vdW  Elec       q    Type
REMARK                         _______ _______ _______ _____ _____    ______ ____
ROOT
ATOM      1  C   UNL     1       2.637   3.689  18.860  0.00  0.00    +0.000 A 
ATOM      2  C   UNL     1       2.638   2.589  19.748  0.00  0.00    +0.000 A 
ATOM      3  C   UNL     1       2.348   2.731  21.102  0.00  0.00    +0.000 A 
ATOM      4  C   UNL     1       2.055   3.983  21.606  0.00  0.00    +0.000 A 
ATOM      5  C   UNL     1       2.053   5.085  20.750  0.00  0.00    +0.000 A 
ATOM      6  C   UNL     1       2.335   4.972  19.371  0.00  0.00    +0.000 A 
ENDROOT
BRANCH   1   8
ATOM      7  O   UNL     1       2.067   3.263  16.614  0.00  0.00    +0.000 OA
ATOM      8  C   UNL     1       2.980   3.334  17.437  0.00  0.00    +0.000 C 
BRANCH   8   9
ATOM      9  C   UNL     1       4.411   3.079  17.023  0.00  0.00    +0.000 C 
BRANCH   9  10
ATOM     10  C   UNL     1       4.938   4.215  16.132  0.00  0.00    +0.000 C 
BRANCH  10  11
ATOM     11  C   UNL     1       5.922   5.108  16.852  0.00  0.00    +0.000 A 
ATOM     12  C   UNL     1       6.839   4.567  17.764  0.00  0.00    +0.000 A 
ATOM     13  C   UNL     1       7.743   5.397  18.432  0.00  0.00    +0.000 A 
ATOM     14  C   UNL     1       7.729   6.764  18.187  0.00  0.00    +0.000 A 
ATOM     15  F   UNL     1       8.588   7.561  18.833  0.00  0.00    +0.000 F 
ATOM     16  C   UNL     1       6.837   7.316  17.274  0.00  0.00    +0.000 A 
ATOM     17  C   UNL     1       5.941   6.488  16.603  0.00  0.00    +0.000 A 
ENDBRANCH  10  11
ENDBRANCH   9  10
ENDBRANCH   8   9
ENDBRANCH   1   8
BRANCH   6  18
ATOM     18  O   UNL     1       2.324   6.075  18.537  0.00  0.00    +0.000 OA
BRANCH  18  19
ATOM     19  C   UNL     1       2.340   7.352  19.215  0.00  0.00    +0.000 C 
BRANCH  19  20
ATOM     20  C   UNL     1       2.481   8.550  18.266  0.00  0.00    +0.000 C 
BRANCH  20  21
ATOM     21  O   UNL     1       2.977   8.134  16.993  0.00  0.00    +0.000 OA
ATOM     22  H   UNL     1       3.951   8.111  17.065  0.00  0.00    +0.000 HD
ENDBRANCH  20  21
BRANCH  20  23
ATOM     23  C   UNL     1       1.174   9.342  18.097  0.00  0.00    +0.000 C 
BRANCH  23  24
ATOM     24  N   UNL     1       0.589   9.652  19.400  0.00  0.00    +0.000 NA
ATOM     25  H   UNL     1       1.220   9.366  20.150  0.00  0.00    +0.000 HD
BRANCH  24  26
ATOM     26  C   UNL     1       0.298  11.073  19.556  0.00  0.00    +0.000 C 
BRANCH  26  27
ATOM     27  C   UNL     1      -0.540  11.293  20.794  0.00  0.00    +0.000 A 
ATOM     28  C   UNL     1      -1.528  12.286  20.820  0.00  0.00    +0.000 A 
ATOM     29  C   UNL     1      -2.284  12.502  21.974  0.00  0.00    +0.000 A 
ATOM     30  C   UNL     1      -2.060  11.730  23.112  0.00  0.00    +0.000 A 
ATOM     31  C   UNL     1      -1.082  10.737  23.098  0.00  0.00    +0.000 A 
ATOM     32  C   UNL     1      -0.328  10.517  21.945  0.00  0.00    +0.000 A 
ENDBRANCH  26  27
ENDBRANCH  24  26
ENDBRANCH  23  24
ENDBRANCH  20  23
ENDBRANCH  19  20
ENDBRANCH  18  19
ENDBRANCH   6  18
TORSDOF 12
ENDMDL
MODEL 4
REMARK VINA RESULT:      -7.7      2.559      4.215
REMARK  Name = 
REMARK  12 active torsions:
REMARK  status: ('A' for Active; 'I' for Inactive)
REMARK    1  A    between atoms: C_2  and  C_3
REMARK    2  A    between atoms: C_2  and  C_12
REMARK    3  A    between atoms: C_3  and  C_4
REMARK    4  A    between atoms: C_4  and  C_5
REMARK    5  A    between atoms: C_17  and  O_18
REMARK    6  A    between atoms: O_18  and  C_19
REMARK    7  A    between atoms: C_19  and  C_20
REMARK    8  A    between atoms: C_20  and  O_21
REMARK    9  A    between atoms: C_20  and  C_22
REMARK   10  A    between atoms: C_22  and  N_23
REMARK   11  A    between atoms: N_23  and  C_24
REMARK   12  A    between atoms: C_24  and  C_25
REMARK                            x       y       z     vdW  Elec       q    Type
REMARK                         _______ _______ _______ _____ _____    ______ ____
ROOT
ATOM      1  C   UNL     1       1.743   8.021  20.079  0.00  0.00    +0.000 A 
ATOM      2  C   UNL     1       1.975   8.932  19.024  0.00  0.00    +0.000 A 
ATOM      3  C   UNL     1       2.551   8.537  17.819  0.00  0.00    +0.000 A 
ATOM      4  C   UNL     1       2.917   7.218  17.642  0.00  0.00    +0.000 A 
ATOM      5  C   UNL     1       2.703   6.301  18.672  0.00  0.00    +0.000 A 
ATOM      6  C   UNL     1       2.113   6.669  19.901  0.00  0.00    +0.000 A 
ENDROOT
BRANCH   1   8
ATOM      7  O   UNL     1       1.831   8.861  22.279  0.00  0.00    +0.000 OA
ATOM      8  C   UNL     1       1.116   8.639  21.301  0.00  0.00    +0.000 C 
BRANCH   8   9
ATOM      9  C   UNL     1      -0.354   8.989  21.328  0.00  0.00    +0.000 C 
BRANCH   9  10
ATOM     10  C   UNL     1      -0.568  10.490  21.071  0.00  0.00    +0.000 C 
BRANCH  10  11
ATOM     11  C   UNL     1      -1.054  10.774  19.669  0.00  0.00    +0.000 A 
ATOM     12  C   UNL     1      -0.995  12.073  19.143  0.00  0.00    +0.000 A 
ATOM     13  C   UNL     1      -1.451  12.332  17.849  0.00  0.00    +0.000 A 
ATOM     14  C   UNL     1      -1.963  11.293  17.081  0.00  0.00    +0.000 A 
ATOM     15  F   UNL     1      -2.408  11.542  15.844  0.00  0.00    +0.000 F 
ATOM     16  C   UNL     1      -2.015   9.996  17.579  0.00  0.00    +0.000 A 
ATOM     17  C   UNL     1      -1.555   9.737  18.868  0.00  0.00    +0.000 A 
ENDBRANCH  10  11
ENDBRANCH   9  10
ENDBRANCH   8   9
ENDBRANCH   1   8
BRANCH   6  18
ATOM     18  O   UNL     1       1.904   5.745  20.908  0.00  0.00    +0.000 OA
BRANCH  18  19
ATOM     19  C   UNL     1       1.592   4.408  20.455  0.00  0.00    +0.000 C 
BRANCH  19  20
ATOM     20  C   UNL     1       2.629   3.357  20.874  0.00  0.00    +0.000 C 
BRANCH  20  21
ATOM     21  O   UNL     1       2.254   2.737  22.105  0.00  0.00    +0.000 OA
ATOM     22  H   UNL     1       3.003   2.858  22.720  0.00  0.00    +0.000 HD
ENDBRANCH  20  21
BRANCH  20  23
ATOM     23  C   UNL     1       2.878   2.292  19.794  0.00  0.00    +0.000 C 
BRANCH  23  24
ATOM     24  N   UNL     1       4.138   2.549  19.099  0.00  0.00    +0.000 NA
ATOM     25  H   UNL     1       4.705   1.701  19.066  0.00  0.00    +0.000 HD
BRANCH  24  26
ATOM     26  C   UNL     1       3.935   3.023  17.735  0.00  0.00    +0.000 C 
BRANCH  26  27
ATOM     27  C   UNL     1       4.989   4.047  17.384  0.00  0.00    +0.000 A 
ATOM     28  C   UNL     1       5.883   4.515  18.356  0.00  0.00    +0.000 A 
ATOM     29  C   UNL     1       6.840   5.478  18.033  0.00  0.00    +0.000 A 
ATOM     30  C   UNL     1       6.915   5.984  16.737  0.00  0.00    +0.000 A 
ATOM     31  C   UNL     1       6.034   5.524  15.759  0.00  0.00    +0.000 A 
ATOM     32  C   UNL     1       5.078   4.559  16.080  0.00  0.00    +0.000 A 
ENDBRANCH  26  27
ENDBRANCH  24  26
ENDBRANCH  23  24
ENDBRANCH  20  23
ENDBRANCH  19  20
ENDBRANCH  18  19
ENDBRANCH   6  18
TORSDOF 12
ENDMDL
MODEL 5
REMARK VINA RESULT:      -7.7      2.768      4.677
REMARK  Name = 
REMARK  12 active torsions:
REMARK  status: ('A' for Active; 'I' for Inactive)
REMARK    1  A    between atoms: C_2  and  C_3
REMARK    2  A    between atoms: C_2  and  C_12
REMARK    3  A    between atoms: C_3  and  C_4
REMARK    4  A    between atoms: C_4  and  C_5
REMARK    5  A    between atoms: C_17  and  O_18
REMARK    6  A    between atoms: O_18  and  C_19
REMARK    7  A    between atoms: C_19  and  C_20
REMARK    8  A    between atoms: C_20  and  O_21
REMARK    9  A    between atoms: C_20  and  C_22
REMARK   10  A    between atoms: C_22  and  N_23
REMARK   11  A    between atoms: N_23  and  C_24
REMARK   12  A    between atoms: C_24  and  C_25
REMARK                            x       y       z     vdW  Elec       q    Type
REMARK                         _______ _______ _______ _____ _____    ______ ____
ROOT
ATOM      1  C   UNL     1       1.215   8.274  20.183  0.00  0.00    +0.000 A 
ATOM      2  C   UNL     1       1.260   9.301  19.213  0.00  0.00    +0.000 A 
ATOM      3  C   UNL     1       2.014   9.185  18.048  0.00  0.00    +0.000 A 
ATOM      4  C   UNL     1       2.749   8.038  17.827  0.00  0.00    +0.000 A 
ATOM      5  C   UNL     1       2.725   7.012  18.772  0.00  0.00    +0.000 A 
ATOM      6  C   UNL     1       1.964   7.096  19.959  0.00  0.00    +0.000 A 
ENDROOT
BRANCH   1   8
ATOM      7  O   UNL     1      -0.645   7.891  21.578  0.00  0.00    +0.000 OA
ATOM      8  C   UNL     1       0.350   8.588  21.375  0.00  0.00    +0.000 C 
BRANCH   8   9
ATOM      9  C   UNL     1       0.695   9.726  22.307  0.00  0.00    +0.000 C 
BRANCH   9  10
ATOM     10  C   UNL     1      -0.571  10.319  22.947  0.00  0.00    +0.000 C 
BRANCH  10  11
ATOM     11  C   UNL     1      -1.010  11.602  22.281  0.00  0.00    +0.000 A 
ATOM     12  C   UNL     1      -1.175  11.663  20.890  0.00  0.00    +0.000 A 
ATOM     13  C   UNL     1      -1.575  12.853  20.278  0.00  0.00    +0.000 A 
ATOM     14  C   UNL     1      -1.812  13.979  21.056  0.00  0.00    +0.000 A 
ATOM     15  F   UNL     1      -2.187  15.122  20.470  0.00  0.00    +0.000 F 
ATOM     16  C   UNL     1      -1.669  13.934  22.439  0.00  0.00    +0.000 A 
ATOM     17  C   UNL     1      -1.276  12.745  23.049  0.00  0.00    +0.000 A 
ENDBRANCH  10  11
ENDBRANCH   9  10
ENDBRANCH   8   9
ENDBRANCH   1   8
BRANCH   6  18
ATOM     18  O   UNL     1       1.949   6.067  20.883  0.00  0.00    +0.000 OA
BRANCH  18  19
ATOM     19  C   UNL     1       1.675   4.758  20.333  0.00  0.00    +0.000 C 
BRANCH  19  20
ATOM     20  C   UNL     1       2.650   3.674  20.812  0.00  0.00    +0.000 C 
BRANCH  20  21
ATOM     21  O   UNL     1       2.244   3.149  22.077  0.00  0.00    +0.000 OA
ATOM     22  H   UNL     1       1.374   2.726  21.939  0.00  0.00    +0.000 HD
ENDBRANCH  20  21
BRANCH  20  23
ATOM     23  C   UNL     1       2.831   2.535  19.795  0.00  0.00    +0.000 C 
BRANCH  23  24
ATOM     24  N   UNL     1       4.143   2.620  19.156  0.00  0.00    +0.000 NA
ATOM     25  H   UNL     1       4.617   1.717  19.195  0.00  0.00    +0.000 HD
BRANCH  24  26
ATOM     26  C   UNL     1       4.058   3.040  17.763  0.00  0.00    +0.000 C 
BRANCH  26  27
ATOM     27  C   UNL     1       4.897   4.277  17.546  0.00  0.00    +0.000 A 
ATOM     28  C   UNL     1       5.791   4.717  18.531  0.00  0.00    +0.000 A 
ATOM     29  C   UNL     1       6.547   5.874  18.336  0.00  0.00    +0.000 A 
ATOM     30  C   UNL     1       6.417   6.605  17.156  0.00  0.00    +0.000 A 
ATOM     31  C   UNL     1       5.533   6.177  16.167  0.00  0.00    +0.000 A 
ATOM     32  C   UNL     1       4.779   5.019  16.359  0.00  0.00    +0.000 A 
ENDBRANCH  26  27
ENDBRANCH  24  26
ENDBRANCH  23  24
ENDBRANCH  20  23
ENDBRANCH  19  20
ENDBRANCH  18  19
ENDBRANCH   6  18
TORSDOF 12
ENDMDL
MODEL 6
REMARK VINA RESULT:      -7.6      3.342      4.970
REMARK  Name = 
REMARK  12 active torsions:
REMARK  status: ('A' for Active; 'I' for Inactive)
REMARK    1  A    between atoms: C_2  and  C_3
REMARK    2  A    between atoms: C_2  and  C_12
REMARK    3  A    between atoms: C_3  and  C_4
REMARK    4  A    between atoms: C_4  and  C_5
REMARK    5  A    between atoms: C_17  and  O_18
REMARK    6  A    between atoms: O_18  and  C_19
REMARK    7  A    between atoms: C_19  and  C_20
REMARK    8  A    between atoms: C_20  and  O_21
REMARK    9  A    between atoms: C_20  and  C_22
REMARK   10  A    between atoms: C_22  and  N_23
REMARK   11  A    between atoms: N_23  and  C_24
REMARK   12  A    between atoms: C_24  and  C_25
REMARK                            x       y       z     vdW  Elec       q    Type
REMARK                         _______ _______ _______ _____ _____    ______ ____
ROOT
ATOM      1  C   UNL     1       3.216   5.339  18.095  0.00  0.00    +0.000 A 
ATOM      2  C   UNL     1       1.966   4.746  17.807  0.00  0.00    +0.000 A 
ATOM      3  C   UNL     1       1.729   3.388  18.003  0.00  0.00    +0.000 A 
ATOM      4  C   UNL     1       2.742   2.585  18.487  0.00  0.00    +0.000 A 
ATOM      5  C   UNL     1       3.987   3.146  18.774  0.00  0.00    +0.000 A 
ATOM      6  C   UNL     1       4.256   4.520  18.594  0.00  0.00    +0.000 A 
ENDROOT
BRANCH   1   8
ATOM      7  O   UNL     1       4.182   7.239  17.092  0.00  0.00    +0.000 OA
ATOM      8  C   UNL     1       3.278   6.817  17.813  0.00  0.00    +0.000 C 
BRANCH   8   9
ATOM      9  C   UNL     1       2.252   7.762  18.393  0.00  0.00    +0.000 C 
BRANCH   9  10
ATOM     10  C   UNL     1       2.152   7.600  19.919  0.00  0.00    +0.000 C 
BRANCH  10  11
ATOM     11  C   UNL     1       1.241   8.626  20.552  0.00  0.00    +0.000 A 
ATOM     12  C   UNL     1       0.915   8.546  21.914  0.00  0.00    +0.000 A 
ATOM     13  C   UNL     1       0.068   9.492  22.494  0.00  0.00    +0.000 A 
ATOM     14  C   UNL     1      -0.451  10.518  21.714  0.00  0.00    +0.000 A 
ATOM     15  F   UNL     1      -1.270  11.421  22.266  0.00  0.00    +0.000 F 
ATOM     16  C   UNL     1      -0.127  10.623  20.366  0.00  0.00    +0.000 A 
ATOM     17  C   UNL     1       0.723   9.682  19.789  0.00  0.00    +0.000 A 
ENDBRANCH  10  11
ENDBRANCH   9  10
ENDBRANCH   8   9
ENDBRANCH   1   8
BRANCH   6  18
ATOM     18  O   UNL     1       5.495   5.060  18.888  0.00  0.00    +0.000 OA
BRANCH  18  19
ATOM     19  C   UNL     1       6.531   4.769  17.923  0.00  0.00    +0.000 C 
BRANCH  19  20
ATOM     20  C   UNL     1       7.381   5.990  17.546  0.00  0.00    +0.000 C 
BRANCH  20  21
ATOM     21  O   UNL     1       6.957   6.538  16.297  0.00  0.00    +0.000 OA
ATOM     22  H   UNL     1       7.437   7.381  16.182  0.00  0.00    +0.000 HD
ENDBRANCH  20  21
BRANCH  20  23
ATOM     23  C   UNL     1       7.386   7.079  18.631  0.00  0.00    +0.000 C 
BRANCH  23  24
ATOM     24  N   UNL     1       8.582   7.912  18.519  0.00  0.00    +0.000 NA
ATOM     25  H   UNL     1       9.259   7.477  17.890  0.00  0.00    +0.000 HD
BRANCH  24  26
ATOM     26  C   UNL     1       8.284   9.251  18.025  0.00  0.00    +0.000 C 
BRANCH  26  27
ATOM     27  C   UNL     1       9.225  10.252  18.655  0.00  0.00    +0.000 A 
ATOM     28  C   UNL     1       9.204  10.481  20.037  0.00  0.00    +0.000 A 
ATOM     29  C   UNL     1      10.058  11.424  20.611  0.00  0.00    +0.000 A 
ATOM     30  C   UNL     1      10.941  12.148  19.812  0.00  0.00    +0.000 A 
ATOM     31  C   UNL     1      10.974  11.927  18.436  0.00  0.00    +0.000 A 
ATOM     32  C   UNL     1      10.123  10.983  17.860  0.00  0.00    +0.000 A 
ENDBRANCH  26  27
ENDBRANCH  24  26
ENDBRANCH  23  24
ENDBRANCH  20  23
ENDBRANCH  19  20
ENDBRANCH  18  19
ENDBRANCH   6  18
TORSDOF 12
ENDMDL
MODEL 7
REMARK VINA RESULT:      -7.6      3.337      4.927
REMARK  Name = 
REMARK  12 active torsions:
REMARK  status: ('A' for Active; 'I' for Inactive)
REMARK    1  A    between atoms: C_2  and  C_3
REMARK    2  A    between atoms: C_2  and  C_12
REMARK    3  A    between atoms: C_3  and  C_4
REMARK    4  A    between atoms: C_4  and  C_5
REMARK    5  A    between atoms: C_17  and  O_18
REMARK    6  A    between atoms: O_18  and  C_19
REMARK    7  A    between atoms: C_19  and  C_20
REMARK    8  A    between atoms: C_20  and  O_21
REMARK    9  A    between atoms: C_20  and  C_22
REMARK   10  A    between atoms: C_22  and  N_23
REMARK   11  A    between atoms: N_23  and  C_24
REMARK   12  A    between atoms: C_24  and  C_25
REMARK                            x       y       z     vdW  Elec       q    Type
REMARK                         _______ _______ _______ _____ _____    ______ ____
ROOT
ATOM      1  C   UNL     1       2.904   4.689  19.020  0.00  0.00    +0.000 A 
ATOM      2  C   UNL     1       2.009   3.629  18.752  0.00  0.00    +0.000 A 
ATOM      3  C   UNL     1       2.296   2.637  17.818  0.00  0.00    +0.000 A 
ATOM      4  C   UNL     1       3.488   2.684  17.122  0.00  0.00    +0.000 A 
ATOM      5  C   UNL     1       4.386   3.724  17.366  0.00  0.00    +0.000 A 
ATOM      6  C   UNL     1       4.127   4.740  18.312  0.00  0.00    +0.000 A 
ENDROOT
BRANCH   1   8
ATOM      7  O   UNL     1       2.236   5.260  21.207  0.00  0.00    +0.000 OA
ATOM      8  C   UNL     1       2.413   5.664  20.057  0.00  0.00    +0.000 C 
BRANCH   8   9
ATOM      9  C   UNL     1       2.151   7.110  19.702  0.00  0.00    +0.000 C 
BRANCH   9  10
ATOM     10  C   UNL     1       1.452   7.844  20.858  0.00  0.00    +0.000 C 
BRANCH  10  11
ATOM     11  C   UNL     1       0.778   9.121  20.410  0.00  0.00    +0.000 A 
ATOM     12  C   UNL     1      -0.034   9.846  21.293  0.00  0.00    +0.000 A 
ATOM     13  C   UNL     1      -0.660  11.022  20.873  0.00  0.00    +0.000 A 
ATOM     14  C   UNL     1      -0.471  11.473  19.572  0.00  0.00    +0.000 A 
ATOM     15  F   UNL     1      -1.077  12.595  19.167  0.00  0.00    +0.000 F 
ATOM     16  C   UNL     1       0.344  10.776  18.687  0.00  0.00    +0.000 A 
ATOM     17  C   UNL     1       0.972   9.606  19.108  0.00  0.00    +0.000 A 
ENDBRANCH  10  11
ENDBRANCH   9  10
ENDBRANCH   8   9
ENDBRANCH   1   8
BRANCH   6  18
ATOM     18  O   UNL     1       5.031   5.760  18.543  0.00  0.00    +0.000 OA
BRANCH  18  19
ATOM     19  C   UNL     1       6.260   5.352  19.186  0.00  0.00    +0.000 C 
BRANCH  19  20
ATOM     20  C   UNL     1       7.522   5.726  18.397  0.00  0.00    +0.000 C 
BRANCH  20  21
ATOM     21  O   UNL     1       7.822   4.730  17.418  0.00  0.00    +0.000 OA
ATOM     22  H   UNL     1       7.239   3.969  17.604  0.00  0.00    +0.000 HD
ENDBRANCH  20  21
BRANCH  20  23
ATOM     23  C   UNL     1       7.430   7.112  17.737  0.00  0.00    +0.000 C 
BRANCH  23  24
ATOM     24  N   UNL     1       8.310   8.063  18.415  0.00  0.00    +0.000 NA
ATOM     25  H   UNL     1       9.284   7.770  18.327  0.00  0.00    +0.000 HD
BRANCH  24  26
ATOM     26  C   UNL     1       8.183   9.415  17.885  0.00  0.00    +0.000 C 
BRANCH  26  27
ATOM     27  C   UNL     1       9.189  10.325  18.550  0.00  0.00    +0.000 A 
ATOM     28  C   UNL     1      10.109  11.053  17.785  0.00  0.00    +0.000 A 
ATOM     29  C   UNL     1      11.053  11.874  18.405  0.00  0.00    +0.000 A 
ATOM     30  C   UNL     1      11.087  11.976  19.795  0.00  0.00    +0.000 A 
ATOM     31  C   UNL     1      10.175  11.259  20.567  0.00  0.00    +0.000 A 
ATOM     32  C   UNL     1       9.230  10.440  19.949  0.00  0.00    +0.000 A 
ENDBRANCH  26  27
ENDBRANCH  24  26
ENDBRANCH  23  24
ENDBRANCH  20  23
ENDBRANCH  19  20
ENDBRANCH  18  19
ENDBRANCH   6  18
TORSDOF 12
ENDMDL
MODEL 8
REMARK VINA RESULT:      -7.5      1.421      1.840
REMARK  Name = 
REMARK  12 active torsions:
REMARK  status: ('A' for Active; 'I' for Inactive)
REMARK    1  A    between atoms: C_2  and  C_3
REMARK    2  A    between atoms: C_2  and  C_12
REMARK    3  A    between atoms: C_3  and  C_4
REMARK    4  A    between atoms: C_4  and  C_5
REMARK    5  A    between atoms: C_17  and  O_18
REMARK    6  A    between atoms: O_18  and  C_19
REMARK    7  A    between atoms: C_19  and  C_20
REMARK    8  A    between atoms: C_20  and  O_21
REMARK    9  A    between atoms: C_20  and  C_22
REMARK   10  A    between atoms: C_22  and  N_23
REMARK   11  A    between atoms: N_23  and  C_24
REMARK   12  A    between atoms: C_24  and  C_25
REMARK                            x       y       z     vdW  Elec       q    Type
REMARK                         _______ _______ _______ _____ _____    ______ ____
ROOT
ATOM      1  C   UNL     1       2.735   5.345  19.237  0.00  0.00    +0.000 A 
ATOM      2  C   UNL     1       1.644   4.523  18.875  0.00  0.00    +0.000 A 
ATOM      3  C   UNL     1       1.779   3.147  18.707  0.00  0.00    +0.000 A 
ATOM      4  C   UNL     1       3.014   2.559  18.892  0.00  0.00    +0.000 A 
ATOM      5  C   UNL     1       4.107   3.351  19.245  0.00  0.00    +0.000 A 
ATOM      6  C   UNL     1       4.001   4.746  19.430  0.00  0.00    +0.000 A 
ENDROOT
BRANCH   1   8
ATOM      7  O   UNL     1       1.798   7.183  20.376  0.00  0.00    +0.000 OA
ATOM      8  C   UNL     1       2.390   6.806  19.365  0.00  0.00    +0.000 C 
BRANCH   8   9
ATOM      9  C   UNL     1       2.770   7.791  18.283  0.00  0.00    +0.000 C 
BRANCH   9  10
ATOM     10  C   UNL     1       1.527   8.503  17.725  0.00  0.00    +0.000 C 
BRANCH  10  11
ATOM     11  C   UNL     1       1.361   9.899  18.278  0.00  0.00    +0.000 A 
ATOM     12  C   UNL     1       2.266  10.914  17.934  0.00  0.00    +0.000 A 
ATOM     13  C   UNL     1       2.113  12.202  18.453  0.00  0.00    +0.000 A 
ATOM     14  C   UNL     1       1.056  12.474  19.313  0.00  0.00    +0.000 A 
ATOM     15  F   UNL     1       0.914  13.705  19.817  0.00  0.00    +0.000 F 
ATOM     16  C   UNL     1       0.140  11.485  19.653  0.00  0.00    +0.000 A 
ATOM     17  C   UNL     1       0.289  10.203  19.130  0.00  0.00    +0.000 A 
ENDBRANCH  10  11
ENDBRANCH   9  10
ENDBRANCH   8   9
ENDBRANCH   1   8
BRANCH   6  18
ATOM     18  O   UNL     1       5.095   5.515  19.784  0.00  0.00    +0.000 OA
BRANCH  18  19
ATOM     19  C   UNL     1       5.903   5.972  18.677  0.00  0.00    +0.000 C 
BRANCH  19  20
ATOM     20  C   UNL     1       7.402   5.691  18.852  0.00  0.00    +0.000 C 
BRANCH  20  21
ATOM     21  O   UNL     1       7.714   5.439  20.223  0.00  0.00    +0.000 OA
ATOM     22  H   UNL     1       8.379   4.723  20.232  0.00  0.00    +0.000 HD
ENDBRANCH  20  21
BRANCH  20  23
ATOM     23  C   UNL     1       7.907   4.539  17.969  0.00  0.00    +0.000 C 
BRANCH  23  24
ATOM     24  N   UNL     1       7.015   4.338  16.828  0.00  0.00    +0.000 NA
ATOM     25  H   UNL     1       6.041   4.330  17.135  0.00  0.00    +0.000 HD
BRANCH  24  26
ATOM     26  C   UNL     1       7.171   5.370  15.810  0.00  0.00    +0.000 C 
BRANCH  26  27
ATOM     27  C   UNL     1       6.880   4.795  14.444  0.00  0.00    +0.000 A 
ATOM     28  C   UNL     1       5.779   3.953  14.243  0.00  0.00    +0.000 A 
ATOM     29  C   UNL     1       5.527   3.404  12.984  0.00  0.00    +0.000 A 
ATOM     30  C   UNL     1       6.373   3.690  11.914  0.00  0.00    +0.000 A 
ATOM     31  C   UNL     1       7.471   4.528  12.100  0.00  0.00    +0.000 A 
ATOM     32  C   UNL     1       7.722   5.080  13.357  0.00  0.00    +0.000 A 
ENDBRANCH  26  27
ENDBRANCH  24  26
ENDBRANCH  23  24
ENDBRANCH  20  23
ENDBRANCH  19  20
ENDBRANCH  18  19
ENDBRANCH   6  18
TORSDOF 12
ENDMDL
MODEL 9
REMARK VINA RESULT:      -7.5      1.712      2.335
REMARK  Name = 
REMARK  12 active torsions:
REMARK  status: ('A' for Active; 'I' for Inactive)
REMARK    1  A    between atoms: C_2  and  C_3
REMARK    2  A    between atoms: C_2  and  C_12
REMARK    3  A    between atoms: C_3  and  C_4
REMARK    4  A    between atoms: C_4  and  C_5
REMARK    5  A    between atoms: C_17  and  O_18
REMARK    6  A    between atoms: O_18  and  C_19
REMARK    7  A    between atoms: C_19  and  C_20
REMARK    8  A    between atoms: C_20  and  O_21
REMARK    9  A    between atoms: C_20  and  C_22
REMARK   10  A    between atoms: C_22  and  N_23
REMARK   11  A    between atoms: N_23  and  C_24
REMARK   12  A    between atoms: C_24  and  C_25
REMARK                            x       y       z     vdW  Elec       q    Type
REMARK                         _______ _______ _______ _____ _____    ______ ____
ROOT
ATOM      1  C   UNL     1       2.297   5.476  19.865  0.00  0.00    +0.000 A 
ATOM      2  C   UNL     1       1.267   4.775  20.533  0.00  0.00    +0.000 A 
ATOM      3  C   UNL     1       1.276   3.388  20.655  0.00  0.00    +0.000 A 
ATOM      4  C   UNL     1       2.314   2.664  20.104  0.00  0.00    +0.000 A 
ATOM      5  C   UNL     1       3.339   3.333  19.435  0.00  0.00    +0.000 A 
ATOM      6  C   UNL     1       3.364   4.739  19.302  0.00  0.00    +0.000 A 
ENDROOT
BRANCH   1   8
ATOM      7  O   UNL     1       2.211   7.552  18.754  0.00  0.00    +0.000 OA
ATOM      8  C   UNL     1       2.107   6.970  19.833  0.00  0.00    +0.000 C 
BRANCH   8   9
ATOM      9  C   UNL     1       1.787   7.739  21.094  0.00  0.00    +0.000 C 
BRANCH   9  10
ATOM     10  C   UNL     1       0.279   8.018  21.203  0.00  0.00    +0.000 C 
BRANCH  10  11
ATOM     11  C   UNL     1      -0.020   9.454  21.567  0.00  0.00    +0.000 A 
ATOM     12  C   UNL     1      -0.710   9.761  22.748  0.00  0.00    +0.000 A 
ATOM     13  C   UNL     1      -0.990  11.089  23.077  0.00  0.00    +0.000 A 
ATOM     14  C   UNL     1      -0.577  12.108  22.227  0.00  0.00    +0.000 A 
ATOM     15  F   UNL     1      -0.852  13.381  22.538  0.00  0.00    +0.000 F 
ATOM     16  C   UNL     1       0.122  11.824  21.060  0.00  0.00    +0.000 A 
ATOM     17  C   UNL     1       0.406  10.500  20.735  0.00  0.00    +0.000 A 
ENDBRANCH  10  11
ENDBRANCH   9  10
ENDBRANCH   8   9
ENDBRANCH   1   8
BRANCH   6  18
ATOM     18  O   UNL     1       4.391   5.385  18.639  0.00  0.00    +0.000 OA
BRANCH  18  19
ATOM     19  C   UNL     1       5.593   5.578  19.418  0.00  0.00    +0.000 C 
BRANCH  19  20
ATOM     20  C   UNL     1       6.870   5.657  18.570  0.00  0.00    +0.000 C 
BRANCH  20  21
ATOM     21  O   UNL     1       7.995   6.008  19.377  0.00  0.00    +0.000 OA
ATOM     22  H   UNL     1       8.589   5.233  19.384  0.00  0.00    +0.000 HD
ENDBRANCH  20  21
BRANCH  20  23
ATOM     23  C   UNL     1       7.157   4.364  17.790  0.00  0.00    +0.000 C 
BRANCH  23  24
ATOM     24  N   UNL     1       7.770   4.668  16.498  0.00  0.00    +0.000 NA
ATOM     25  H   UNL     1       7.963   3.807  15.985  0.00  0.00    +0.000 HD
BRANCH  24  26
ATOM     26  C   UNL     1       6.929   5.523  15.669  0.00  0.00    +0.000 C 
BRANCH  26  27
ATOM     27  C   UNL     1       6.645   4.842  14.351  0.00  0.00    +0.000 A 
ATOM     28  C   UNL     1       5.486   4.074  14.177  0.00  0.00    +0.000 A 
ATOM     29  C   UNL     1       5.240   3.428  12.964  0.00  0.00    +0.000 A 
ATOM     30  C   UNL     1       6.149   3.541  11.914  0.00  0.00    +0.000 A 
ATOM     31  C   UNL     1       7.304   4.305  12.072  0.00  0.00    +0.000 A 
ATOM     32  C   UNL     1       7.550   4.954  13.282  0.00  0.00    +0.000 A 
ENDBRANCH  26  27
ENDBRANCH  24  26
ENDBRANCH  23  24
ENDBRANCH  20  23
ENDBRANCH  19  20
ENDBRANCH  18  19
ENDBRANCH   6  18
TORSDOF 12
ENDMDL
