MODEL 1
REMARK VINA RESULT:      -7.1      0.000      0.000
REMARK  Name = 
REMARK  12 active torsions:
REMARK  status: ('A' for Active; 'I' for Inactive)
REMARK    1  A    between atoms: C_1  and  O_2
REMARK    2  A    between atoms: O_2  and  C_3
REMARK    3  A    between atoms: C_3  and  C_4
REMARK    4  A    between atoms: C_4  and  O_5
REMARK    5  A    between atoms: O_5  and  C_6
REMARK    6  A    between atoms: C_6  and  C_8
REMARK    7  A    between atoms: C_9  and  C_10
REMARK    8  A    between atoms: C_15  and  O_16
REMARK    9  A    between atoms: O_16  and  C_17
REMARK   10  A    between atoms: C_17  and  C_18
REMARK   11  A    between atoms: C_19  and  C_20
REMARK   12  A    between atoms: C_19  and  C_21
REMARK                            x       y       z     vdW  Elec       q    Type
REMARK                         _______ _______ _______ _____ _____    ______ ____
ROOT
ATOM      1  C   UNL     1       6.253   5.670  16.940  0.00  0.00    +0.000 A 
ATOM      2  C   UNL     1       6.415   6.971  17.388  0.00  0.00    +0.000 A 
ATOM      3  C   UNL     1       7.537   7.933  17.416  0.00  0.00    +0.000 C 
ATOM      4  O   UNL     1       5.243   7.454  17.900  0.00  0.00    +0.000 OA
ATOM      5  C   UNL     1       4.312   6.472  17.761  0.00  0.00    +0.000 A 
ATOM      6  C   UNL     1       2.978   6.550  18.154  0.00  0.00    +0.000 A 
ATOM      7  C   UNL     1       2.189   5.405  17.907  0.00  0.00    +0.000 A 
ATOM      8  C   UNL     1       2.725   4.266  17.299  0.00  0.00    +0.000 A 
ATOM      9  C   UNL     1       4.059   4.264  16.896  0.00  0.00    +0.000 A 
ATOM     10  C   UNL     1       4.879   5.370  17.156  0.00  0.00    +0.000 A 
ENDROOT
BRANCH   1  11
ATOM     11  C   UNL     1       7.259   4.823  16.325  0.00  0.00    +0.000 C 
ATOM     12  O   UNL     1       8.079   4.163  16.930  0.00  0.00    +0.000 OA
BRANCH  11  13
ATOM     13  O   UNL     1       7.210   4.875  14.956  0.00  0.00    +0.000 OA
BRANCH  13  14
ATOM     14  C   UNL     1       6.643   3.702  14.374  0.00  0.00    +0.000 C 
BRANCH  14  15
ATOM     15  C   UNL     1       5.559   4.081  13.377  0.00  0.00    +0.000 C 
BRANCH  15  17
ATOM     16  C   UNL     1       4.431   3.235  11.493  0.00  0.00    +0.000 C 
ATOM     17  O   UNL     1       5.637   3.215  12.247  0.00  0.00    +0.000 OA
ENDBRANCH  15  17
ENDBRANCH  14  15
ENDBRANCH  13  14
ENDBRANCH  11  13
ENDBRANCH   1  11
BRANCH   8  18
ATOM     18  O   UNL     1       1.949   3.140  17.120  0.00  0.00    +0.000 OA
BRANCH  18  19
ATOM     19  C   UNL     1       2.347   2.050  17.983  0.00  0.00    +0.000 C 
BRANCH  19  20
ATOM     20  C   UNL     1       1.676   2.168  19.308  0.00  0.00    +0.000 C 
ATOM     21  C   UNL     1       2.304   2.531  20.445  0.00  0.00    +0.000 C 
ATOM     22  C   UNL     1       3.775   2.853  20.532  0.00  0.00    +0.000 C 
ATOM     23  C   UNL     1       1.561   2.643  21.746  0.00  0.00    +0.000 C 
ENDBRANCH  19  20
ENDBRANCH  18  19
ENDBRANCH   8  18
TORSDOF 8
ENDMDL
MODEL 2
REMARK VINA RESULT:      -7.1      1.463      6.413
REMARK  Name = 
REMARK  12 active torsions:
REMARK  status: ('A' for Active; 'I' for Inactive)
REMARK    1  A    between atoms: C_1  and  O_2
REMARK    2  A    between atoms: O_2  and  C_3
REMARK    3  A    between atoms: C_3  and  C_4
REMARK    4  A    between atoms: C_4  and  O_5
REMARK    5  A    between atoms: O_5  and  C_6
REMARK    6  A    between atoms: C_6  and  C_8
REMARK    7  A    between atoms: C_9  and  C_10
REMARK    8  A    between atoms: C_15  and  O_16
REMARK    9  A    between atoms: O_16  and  C_17
REMARK   10  A    between atoms: C_17  and  C_18
REMARK   11  A    between atoms: C_19  and  C_20
REMARK   12  A    between atoms: C_19  and  C_21
REMARK                            x       y       z     vdW  Elec       q    Type
REMARK                         _______ _______ _______ _____ _____    ______ ____
ROOT
ATOM      1  C   UNL     1       2.740   5.451  18.009  0.00  0.00    +0.000 A 
ATOM      2  C   UNL     1       2.875   6.705  18.581  0.00  0.00    +0.000 A 
ATOM      3  C   UNL     1       2.074   7.513  19.525  0.00  0.00    +0.000 C 
ATOM      4  O   UNL     1       4.036   7.300  18.172  0.00  0.00    +0.000 OA
ATOM      5  C   UNL     1       4.668   6.418  17.351  0.00  0.00    +0.000 A 
ATOM      6  C   UNL     1       5.889   6.626  16.715  0.00  0.00    +0.000 A 
ATOM      7  C   UNL     1       6.359   5.566  15.909  0.00  0.00    +0.000 A 
ATOM      8  C   UNL     1       5.635   4.379  15.767  0.00  0.00    +0.000 A 
ATOM      9  C   UNL     1       4.435   4.219  16.460  0.00  0.00    +0.000 A 
ATOM     10  C   UNL     1       3.924   5.263  17.241  0.00  0.00    +0.000 A 
ENDROOT
BRANCH   1  11
ATOM     11  C   UNL     1       1.652   4.509  18.205  0.00  0.00    +0.000 C 
ATOM     12  O   UNL     1       1.051   3.944  17.313  0.00  0.00    +0.000 OA
BRANCH  11  13
ATOM     13  O   UNL     1       1.342   4.350  19.530  0.00  0.00    +0.000 OA
BRANCH  13  14
ATOM     14  C   UNL     1       0.890   3.032  19.842  0.00  0.00    +0.000 C 
BRANCH  14  15
ATOM     15  C   UNL     1       1.917   2.315  20.705  0.00  0.00    +0.000 C 
BRANCH  15  17
ATOM     16  C   UNL     1       4.173   2.397  20.045  0.00  0.00    +0.000 C 
ATOM     17  O   UNL     1       3.124   3.074  20.725  0.00  0.00    +0.000 OA
ENDBRANCH  15  17
ENDBRANCH  14  15
ENDBRANCH  13  14
ENDBRANCH  11  13
ENDBRANCH   1  11
BRANCH   8  18
ATOM     18  O   UNL     1       6.086   3.381  14.930  0.00  0.00    +0.000 OA
BRANCH  18  19
ATOM     19  C   UNL     1       6.439   3.876  13.618  0.00  0.00    +0.000 C 
BRANCH  19  20
ATOM     20  C   UNL     1       5.230   3.944  12.749  0.00  0.00    +0.000 C 
ATOM     21  C   UNL     1       4.947   3.056  11.774  0.00  0.00    +0.000 C 
ATOM     22  C   UNL     1       5.823   1.882  11.419  0.00  0.00    +0.000 C 
ATOM     23  C   UNL     1       3.700   3.179  10.944  0.00  0.00    +0.000 C 
ENDBRANCH  19  20
ENDBRANCH  18  19
ENDBRANCH   8  18
TORSDOF 8
ENDMDL
MODEL 3
REMARK VINA RESULT:      -6.8      1.502      6.620
REMARK  Name = 
REMARK  12 active torsions:
REMARK  status: ('A' for Active; 'I' for Inactive)
REMARK    1  A    between atoms: C_1  and  O_2
REMARK    2  A    between atoms: O_2  and  C_3
REMARK    3  A    between atoms: C_3  and  C_4
REMARK    4  A    between atoms: C_4  and  O_5
REMARK    5  A    between atoms: O_5  and  C_6
REMARK    6  A    between atoms: C_6  and  C_8
REMARK    7  A    between atoms: C_9  and  C_10
REMARK    8  A    between atoms: C_15  and  O_16
REMARK    9  A    between atoms: O_16  and  C_17
REMARK   10  A    between atoms: C_17  and  C_18
REMARK   11  A    between atoms: C_19  and  C_20
REMARK   12  A    between atoms: C_19  and  C_21
REMARK                            x       y       z     vdW  Elec       q    Type
REMARK                         _______ _______ _______ _____ _____    ______ ____
ROOT
ATOM      1  C   UNL     1       3.061   4.950  17.896  0.00  0.00    +0.000 A 
ATOM      2  C   UNL     1       2.978   6.010  18.784  0.00  0.00    +0.000 A 
ATOM      3  C   UNL     1       2.005   6.436  19.813  0.00  0.00    +0.000 C 
ATOM      4  O   UNL     1       4.074   6.819  18.673  0.00  0.00    +0.000 OA
ATOM      5  C   UNL     1       4.881   6.270  17.725  0.00  0.00    +0.000 A 
ATOM      6  C   UNL     1       6.106   6.778  17.302  0.00  0.00    +0.000 A 
ATOM      7  C   UNL     1       6.777   6.036  16.305  0.00  0.00    +0.000 A 
ATOM      8  C   UNL     1       6.235   4.858  15.783  0.00  0.00    +0.000 A 
ATOM      9  C   UNL     1       5.020   4.382  16.275  0.00  0.00    +0.000 A 
ATOM     10  C   UNL     1       4.313   5.111  17.239  0.00  0.00    +0.000 A 
ENDROOT
BRANCH   1  11
ATOM     11  C   UNL     1       2.101   3.874  17.721  0.00  0.00    +0.000 C 
ATOM     12  O   UNL     1       0.997   3.999  17.229  0.00  0.00    +0.000 OA
BRANCH  11  13
ATOM     13  O   UNL     1       2.565   2.684  18.216  0.00  0.00    +0.000 OA
BRANCH  13  14
ATOM     14  C   UNL     1       2.126   2.425  19.549  0.00  0.00    +0.000 C 
BRANCH  14  15
ATOM     15  C   UNL     1       3.283   2.583  20.523  0.00  0.00    +0.000 C 
BRANCH  15  17
ATOM     16  C   UNL     1       1.417   2.810  21.939  0.00  0.00    +0.000 C 
ATOM     17  O   UNL     1       2.793   2.460  21.857  0.00  0.00    +0.000 OA
ENDBRANCH  15  17
ENDBRANCH  14  15
ENDBRANCH  13  14
ENDBRANCH  11  13
ENDBRANCH   1  11
BRANCH   8  18
ATOM     18  O   UNL     1       6.881   4.181  14.770  0.00  0.00    +0.000 OA
BRANCH  18  19
ATOM     19  C   UNL     1       6.190   4.285  13.504  0.00  0.00    +0.000 C 
BRANCH  19  20
ATOM     20  C   UNL     1       6.456   3.082  12.668  0.00  0.00    +0.000 C 
ATOM     21  C   UNL     1       5.601   2.595  11.746  0.00  0.00    +0.000 C 
ATOM     22  C   UNL     1       4.251   3.195  11.446  0.00  0.00    +0.000 C 
ATOM     23  C   UNL     1       5.942   1.382  10.927  0.00  0.00    +0.000 C 
ENDBRANCH  19  20
ENDBRANCH  18  19
ENDBRANCH   8  18
TORSDOF 8
ENDMDL
MODEL 4
REMARK VINA RESULT:      -6.5      1.873      6.246
REMARK  Name = 
REMARK  12 active torsions:
REMARK  status: ('A' for Active; 'I' for Inactive)
REMARK    1  A    between atoms: C_1  and  O_2
REMARK    2  A    between atoms: O_2  and  C_3
REMARK    3  A    between atoms: C_3  and  C_4
REMARK    4  A    between atoms: C_4  and  O_5
REMARK    5  A    between atoms: O_5  and  C_6
REMARK    6  A    between atoms: C_6  and  C_8
REMARK    7  A    between atoms: C_9  and  C_10
REMARK    8  A    between atoms: C_15  and  O_16
REMARK    9  A    between atoms: O_16  and  C_17
REMARK   10  A    between atoms: C_17  and  C_18
REMARK   11  A    between atoms: C_19  and  C_20
REMARK   12  A    between atoms: C_19  and  C_21
REMARK                            x       y       z     vdW  Elec       q    Type
REMARK                         _______ _______ _______ _____ _____    ______ ____
ROOT
ATOM      1  C   UNL     1       2.543   5.520  19.065  0.00  0.00    +0.000 A 
ATOM      2  C   UNL     1       2.375   6.845  19.433  0.00  0.00    +0.000 A 
ATOM      3  C   UNL     1       1.615   7.548  20.488  0.00  0.00    +0.000 C 
ATOM      4  O   UNL     1       3.111   7.666  18.625  0.00  0.00    +0.000 OA
ATOM      5  C   UNL     1       3.777   6.869  17.746  0.00  0.00    +0.000 A 
ATOM      6  C   UNL     1       4.643   7.302  16.746  0.00  0.00    +0.000 A 
ATOM      7  C   UNL     1       5.228   6.293  15.949  0.00  0.00    +0.000 A 
ATOM      8  C   UNL     1       4.951   4.940  16.165  0.00  0.00    +0.000 A 
ATOM      9  C   UNL     1       4.102   4.570  17.207  0.00  0.00    +0.000 A 
ATOM     10  C   UNL     1       3.478   5.546  17.994  0.00  0.00    +0.000 A 
ENDROOT
BRANCH   1  11
ATOM     11  C   UNL     1       1.939   4.355  19.687  0.00  0.00    +0.000 C 
ATOM     12  O   UNL     1       0.963   3.768  19.264  0.00  0.00    +0.000 OA
BRANCH  11  13
ATOM     13  O   UNL     1       2.577   4.000  20.847  0.00  0.00    +0.000 OA
BRANCH  13  14
ATOM     14  C   UNL     1       3.001   2.638  20.854  0.00  0.00    +0.000 C 
BRANCH  14  15
ATOM     15  C   UNL     1       4.398   2.519  20.264  0.00  0.00    +0.000 C 
BRANCH  15  17
ATOM     16  C   UNL     1       3.470   1.372  18.432  0.00  0.00    +0.000 C 
ATOM     17  O   UNL     1       4.464   1.352  19.449  0.00  0.00    +0.000 OA
ENDBRANCH  15  17
ENDBRANCH  14  15
ENDBRANCH  13  14
ENDBRANCH  11  13
ENDBRANCH   1  11
BRANCH   8  18
ATOM     18  O   UNL     1       5.490   3.977  15.339  0.00  0.00    +0.000 OA
BRANCH  18  19
ATOM     19  C   UNL     1       5.518   4.387  13.953  0.00  0.00    +0.000 C 
BRANCH  19  20
ATOM     20  C   UNL     1       6.178   3.345  13.118  0.00  0.00    +0.000 C 
ATOM     21  C   UNL     1       5.649   2.831  11.989  0.00  0.00    +0.000 C 
ATOM     22  C   UNL     1       4.308   3.230  11.427  0.00  0.00    +0.000 C 
ATOM     23  C   UNL     1       6.378   1.790  11.187  0.00  0.00    +0.000 C 
ENDBRANCH  19  20
ENDBRANCH  18  19
ENDBRANCH   8  18
TORSDOF 8
ENDMDL
MODEL 5
REMARK VINA RESULT:      -6.4      1.805      6.496
REMARK  Name = 
REMARK  12 active torsions:
REMARK  status: ('A' for Active; 'I' for Inactive)
REMARK    1  A    between atoms: C_1  and  O_2
REMARK    2  A    between atoms: O_2  and  C_3
REMARK    3  A    between atoms: C_3  and  C_4
REMARK    4  A    between atoms: C_4  and  O_5
REMARK    5  A    between atoms: O_5  and  C_6
REMARK    6  A    between atoms: C_6  and  C_8
REMARK    7  A    between atoms: C_9  and  C_10
REMARK    8  A    between atoms: C_15  and  O_16
REMARK    9  A    between atoms: O_16  and  C_17
REMARK   10  A    between atoms: C_17  and  C_18
REMARK   11  A    between atoms: C_19  and  C_20
REMARK   12  A    between atoms: C_19  and  C_21
REMARK                            x       y       z     vdW  Elec       q    Type
REMARK                         _______ _______ _______ _____ _____    ______ ____
ROOT
ATOM      1  C   UNL     1       4.352   3.311  18.111  0.00  0.00    +0.000 A 
ATOM      2  C   UNL     1       4.720   3.584  19.418  0.00  0.00    +0.000 A 
ATOM      3  C   UNL     1       4.255   3.137  20.749  0.00  0.00    +0.000 C 
ATOM      4  O   UNL     1       5.772   4.457  19.451  0.00  0.00    +0.000 OA
ATOM      5  C   UNL     1       6.102   4.732  18.160  0.00  0.00    +0.000 A 
ATOM      6  C   UNL     1       7.125   5.580  17.742  0.00  0.00    +0.000 A 
ATOM      7  C   UNL     1       7.290   5.713  16.346  0.00  0.00    +0.000 A 
ATOM      8  C   UNL     1       6.473   5.026  15.444  0.00  0.00    +0.000 A 
ATOM      9  C   UNL     1       5.489   4.164  15.927  0.00  0.00    +0.000 A 
ATOM     10  C   UNL     1       5.276   4.034  17.305  0.00  0.00    +0.000 A 
ENDROOT
BRANCH   1  11
ATOM     11  C   UNL     1       3.291   2.426  17.665  0.00  0.00    +0.000 C 
ATOM     12  O   UNL     1       3.289   1.219  17.798  0.00  0.00    +0.000 OA
BRANCH  11  13
ATOM     13  O   UNL     1       2.285   3.107  17.031  0.00  0.00    +0.000 OA
BRANCH  13  14
ATOM     14  C   UNL     1       1.535   3.942  17.913  0.00  0.00    +0.000 C 
BRANCH  14  15
ATOM     15  C   UNL     1       0.768   3.093  18.914  0.00  0.00    +0.000 C 
BRANCH  15  17
ATOM     16  C   UNL     1       1.137   2.866  21.226  0.00  0.00    +0.000 C 
ATOM     17  O   UNL     1       0.762   3.751  20.179  0.00  0.00    +0.000 OA
ENDBRANCH  15  17
ENDBRANCH  14  15
ENDBRANCH  13  14
ENDBRANCH  11  13
ENDBRANCH   1  11
BRANCH   8  18
ATOM     18  O   UNL     1       6.617   5.216  14.087  0.00  0.00    +0.000 OA
BRANCH  18  19
ATOM     19  C   UNL     1       6.509   3.983  13.340  0.00  0.00    +0.000 C 
BRANCH  19  20
ATOM     20  C   UNL     1       5.253   3.971  12.538  0.00  0.00    +0.000 C 
ATOM     21  C   UNL     1       4.924   3.002  11.660  0.00  0.00    +0.000 C 
ATOM     22  C   UNL     1       5.790   1.806  11.357  0.00  0.00    +0.000 C 
ATOM     23  C   UNL     1       3.631   3.048  10.894  0.00  0.00    +0.000 C 
ENDBRANCH  19  20
ENDBRANCH  18  19
ENDBRANCH   8  18
TORSDOF 8
ENDMDL
MODEL 6
REMARK VINA RESULT:      -6.4      2.318      5.894
REMARK  Name = 
REMARK  12 active torsions:
REMARK  status: ('A' for Active; 'I' for Inactive)
REMARK    1  A    between atoms: C_1  and  O_2
REMARK    2  A    between atoms: O_2  and  C_3
REMARK    3  A    between atoms: C_3  and  C_4
REMARK    4  A    between atoms: C_4  and  O_5
REMARK    5  A    between atoms: O_5  and  C_6
REMARK    6  A    between atoms: C_6  and  C_8
REMARK    7  A    between atoms: C_9  and  C_10
REMARK    8  A    between atoms: C_15  and  O_16
REMARK    9  A    between atoms: O_16  and  C_17
REMARK   10  A    between atoms: C_17  and  C_18
REMARK   11  A    between atoms: C_19  and  C_20
REMARK   12  A    between atoms: C_19  and  C_21
REMARK                            x       y       z     vdW  Elec       q    Type
REMARK                         _______ _______ _______ _____ _____    ______ ____
ROOT
ATOM      1  C   UNL     1       2.114   5.904  20.109  0.00  0.00    +0.000 A 
ATOM      2  C   UNL     1       1.608   7.173  20.343  0.00  0.00    +0.000 A 
ATOM      3  C   UNL     1       0.748   7.778  21.382  0.00  0.00    +0.000 C 
ATOM      4  O   UNL     1       2.039   8.048  19.386  0.00  0.00    +0.000 OA
ATOM      5  C   UNL     1       2.845   7.349  18.541  0.00  0.00    +0.000 A 
ATOM      6  C   UNL     1       3.496   7.864  17.422  0.00  0.00    +0.000 A 
ATOM      7  C   UNL     1       4.289   6.953  16.690  0.00  0.00    +0.000 A 
ATOM      8  C   UNL     1       4.410   5.615  17.077  0.00  0.00    +0.000 A 
ATOM      9  C   UNL     1       3.760   5.171  18.228  0.00  0.00    +0.000 A 
ATOM     10  C   UNL     1       2.939   6.039  18.958  0.00  0.00    +0.000 A 
ENDROOT
BRANCH   1  11
ATOM     11  C   UNL     1       1.893   4.711  20.907  0.00  0.00    +0.000 C 
ATOM     12  O   UNL     1       2.536   4.403  21.890  0.00  0.00    +0.000 OA
BRANCH  11  13
ATOM     13  O   UNL     1       0.886   3.932  20.401  0.00  0.00    +0.000 OA
BRANCH  13  14
ATOM     14  C   UNL     1       1.328   2.631  20.016  0.00  0.00    +0.000 C 
BRANCH  14  15
ATOM     15  C   UNL     1       0.838   2.303  18.615  0.00  0.00    +0.000 C 
BRANCH  15  17
ATOM     16  C   UNL     1       3.103   1.716  18.376  0.00  0.00    +0.000 C 
ATOM     17  O   UNL     1       1.953   2.247  17.729  0.00  0.00    +0.000 OA
ENDBRANCH  15  17
ENDBRANCH  14  15
ENDBRANCH  13  14
ENDBRANCH  11  13
ENDBRANCH   1  11
BRANCH   8  18
ATOM     18  O   UNL     1       5.143   4.732  16.314  0.00  0.00    +0.000 OA
BRANCH  18  19
ATOM     19  C   UNL     1       6.531   4.670  16.718  0.00  0.00    +0.000 C 
BRANCH  19  20
ATOM     20  C   UNL     1       7.093   6.044  16.846  0.00  0.00    +0.000 C 
ATOM     21  C   UNL     1       7.589   6.556  17.991  0.00  0.00    +0.000 C 
ATOM     22  C   UNL     1       7.625   5.812  19.302  0.00  0.00    +0.000 C 
ATOM     23  C   UNL     1       8.154   7.947  18.045  0.00  0.00    +0.000 C 
ENDBRANCH  19  20
ENDBRANCH  18  19
ENDBRANCH   8  18
TORSDOF 8
ENDMDL
MODEL 7
REMARK VINA RESULT:      -6.4      2.627      7.369
REMARK  Name = 
REMARK  12 active torsions:
REMARK  status: ('A' for Active; 'I' for Inactive)
REMARK    1  A    between atoms: C_1  and  O_2
REMARK    2  A    between atoms: O_2  and  C_3
REMARK    3  A    between atoms: C_3  and  C_4
REMARK    4  A    between atoms: C_4  and  O_5
REMARK    5  A    between atoms: O_5  and  C_6
REMARK    6  A    between atoms: C_6  and  C_8
REMARK    7  A    between atoms: C_9  and  C_10
REMARK    8  A    between atoms: C_15  and  O_16
REMARK    9  A    between atoms: O_16  and  C_17
REMARK   10  A    between atoms: C_17  and  C_18
REMARK   11  A    between atoms: C_19  and  C_20
REMARK   12  A    between atoms: C_19  and  C_21
REMARK                            x       y       z     vdW  Elec       q    Type
REMARK                         _______ _______ _______ _____ _____    ______ ____
ROOT
ATOM      1  C   UNL     1       3.294   5.576  18.092  0.00  0.00    +0.000 A 
ATOM      2  C   UNL     1       2.723   4.385  17.676  0.00  0.00    +0.000 A 
ATOM      3  C   UNL     1       1.425   3.715  17.901  0.00  0.00    +0.000 C 
ATOM      4  O   UNL     1       3.575   3.704  16.852  0.00  0.00    +0.000 OA
ATOM      5  C   UNL     1       4.693   4.468  16.715  0.00  0.00    +0.000 A 
ATOM      6  C   UNL     1       5.814   4.144  15.955  0.00  0.00    +0.000 A 
ATOM      7  C   UNL     1       6.860   5.093  15.955  0.00  0.00    +0.000 A 
ATOM      8  C   UNL     1       6.764   6.287  16.675  0.00  0.00    +0.000 A 
ATOM      9  C   UNL     1       5.598   6.568  17.387  0.00  0.00    +0.000 A 
ATOM     10  C   UNL     1       4.556   5.634  17.437  0.00  0.00    +0.000 A 
ENDROOT
BRANCH   1  11
ATOM     11  C   UNL     1       2.701   6.577  18.962  0.00  0.00    +0.000 C 
ATOM     12  O   UNL     1       2.327   6.377  20.100  0.00  0.00    +0.000 OA
BRANCH  11  13
ATOM     13  O   UNL     1       2.568   7.789  18.337  0.00  0.00    +0.000 OA
BRANCH  13  14
ATOM     14  C   UNL     1       1.722   8.693  19.047  0.00  0.00    +0.000 C 
BRANCH  14  15
ATOM     15  C   UNL     1       1.191   9.764  18.108  0.00  0.00    +0.000 C 
BRANCH  15  17
ATOM     16  C   UNL     1       1.244  12.012  18.800  0.00  0.00    +0.000 C 
ATOM     17  O   UNL     1       1.988  10.938  18.237  0.00  0.00    +0.000 OA
ENDBRANCH  15  17
ENDBRANCH  14  15
ENDBRANCH  13  14
ENDBRANCH  11  13
ENDBRANCH   1  11
BRANCH   8  18
ATOM     18  O   UNL     1       7.820   7.171  16.705  0.00  0.00    +0.000 OA
BRANCH  18  19
ATOM     19  C   UNL     1       7.829   7.984  17.901  0.00  0.00    +0.000 C 
BRANCH  19  20
ATOM     20  C   UNL     1       8.045   9.416  17.552  0.00  0.00    +0.000 C 
ATOM     21  C   UNL     1       8.737  10.287  18.315  0.00  0.00    +0.000 C 
ATOM     22  C   UNL     1       9.373   9.932  19.635  0.00  0.00    +0.000 C 
ATOM     23  C   UNL     1       8.926  11.717  17.894  0.00  0.00    +0.000 C 
ENDBRANCH  19  20
ENDBRANCH  18  19
ENDBRANCH   8  18
TORSDOF 8
ENDMDL
MODEL 8
REMARK VINA RESULT:      -6.4      1.816      6.441
REMARK  Name = 
REMARK  12 active torsions:
REMARK  status: ('A' for Active; 'I' for Inactive)
REMARK    1  A    between atoms: C_1  and  O_2
REMARK    2  A    between atoms: O_2  and  C_3
REMARK    3  A    between atoms: C_3  and  C_4
REMARK    4  A    between atoms: C_4  and  O_5
REMARK    5  A    between atoms: O_5  and  C_6
REMARK    6  A    between atoms: C_6  and  C_8
REMARK    7  A    between atoms: C_9  and  C_10
REMARK    8  A    between atoms: C_15  and  O_16
REMARK    9  A    between atoms: O_16  and  C_17
REMARK   10  A    between atoms: C_17  and  C_18
REMARK   11  A    between atoms: C_19  and  C_20
REMARK   12  A    between atoms: C_19  and  C_21
REMARK                            x       y       z     vdW  Elec       q    Type
REMARK                         _______ _______ _______ _____ _____    ______ ____
ROOT
ATOM      1  C   UNL     1       4.070   4.332  18.433  0.00  0.00    +0.000 A 
ATOM      2  C   UNL     1       3.340   5.442  18.824  0.00  0.00    +0.000 A 
ATOM      3  C   UNL     1       2.435   5.753  19.952  0.00  0.00    +0.000 C 
ATOM      4  O   UNL     1       3.538   6.479  17.957  0.00  0.00    +0.000 OA
ATOM      5  C   UNL     1       4.418   6.047  17.013  0.00  0.00    +0.000 A 
ATOM      6  C   UNL     1       4.895   6.794  15.939  0.00  0.00    +0.000 A 
ATOM      7  C   UNL     1       5.810   6.140  15.084  0.00  0.00    +0.000 A 
ATOM      8  C   UNL     1       6.211   4.822  15.315  0.00  0.00    +0.000 A 
ATOM      9  C   UNL     1       5.724   4.140  16.430  0.00  0.00    +0.000 A 
ATOM     10  C   UNL     1       4.790   4.747  17.278  0.00  0.00    +0.000 A 
ENDROOT
BRANCH   1  11
ATOM     11  C   UNL     1       4.131   3.043  19.100  0.00  0.00    +0.000 C 
ATOM     12  O   UNL     1       4.714   2.826  20.143  0.00  0.00    +0.000 OA
BRANCH  11  13
ATOM     13  O   UNL     1       3.479   2.066  18.394  0.00  0.00    +0.000 OA
BRANCH  13  14
ATOM     14  C   UNL     1       2.102   2.367  18.169  0.00  0.00    +0.000 C 
BRANCH  14  15
ATOM     15  C   UNL     1       1.254   1.840  19.316  0.00  0.00    +0.000 C 
BRANCH  15  17
ATOM     16  C   UNL     1       1.304   2.777  21.473  0.00  0.00    +0.000 C 
ATOM     17  O   UNL     1       0.844   2.931  20.136  0.00  0.00    +0.000 OA
ENDBRANCH  15  17
ENDBRANCH  14  15
ENDBRANCH  13  14
ENDBRANCH  11  13
ENDBRANCH   1  11
BRANCH   8  18
ATOM     18  O   UNL     1       7.061   4.186  14.435  0.00  0.00    +0.000 OA
BRANCH  18  19
ATOM     19  C   UNL     1       6.708   4.424  13.053  0.00  0.00    +0.000 C 
BRANCH  19  20
ATOM     20  C   UNL     1       6.836   3.168  12.263  0.00  0.00    +0.000 C 
ATOM     21  C   UNL     1       5.811   2.569  11.621  0.00  0.00    +0.000 C 
ATOM     22  C   UNL     1       4.394   3.082  11.630  0.00  0.00    +0.000 C 
ATOM     23  C   UNL     1       6.016   1.308  10.829  0.00  0.00    +0.000 C 
ENDBRANCH  19  20
ENDBRANCH  18  19
ENDBRANCH   8  18
TORSDOF 8
ENDMDL
MODEL 9
REMARK VINA RESULT:      -6.4      2.499      5.182
REMARK  Name = 
REMARK  12 active torsions:
REMARK  status: ('A' for Active; 'I' for Inactive)
REMARK    1  A    between atoms: C_1  and  O_2
REMARK    2  A    between atoms: O_2  and  C_3
REMARK    3  A    between atoms: C_3  and  C_4
REMARK    4  A    between atoms: C_4  and  O_5
REMARK    5  A    between atoms: O_5  and  C_6
REMARK    6  A    between atoms: C_6  and  C_8
REMARK    7  A    between atoms: C_9  and  C_10
REMARK    8  A    between atoms: C_15  and  O_16
REMARK    9  A    between atoms: O_16  and  C_17
REMARK   10  A    between atoms: C_17  and  C_18
REMARK   11  A    between atoms: C_19  and  C_20
REMARK   12  A    between atoms: C_19  and  C_21
REMARK                            x       y       z     vdW  Elec       q    Type
REMARK                         _______ _______ _______ _____ _____    ______ ____
ROOT
ATOM      1  C   UNL     1       4.526   5.424  16.913  0.00  0.00    +0.000 A 
ATOM      2  C   UNL     1       4.735   4.128  16.468  0.00  0.00    +0.000 A 
ATOM      3  C   UNL     1       5.591   3.504  15.438  0.00  0.00    +0.000 C 
ATOM      4  O   UNL     1       3.973   3.245  17.180  0.00  0.00    +0.000 OA
ATOM      5  C   UNL     1       3.285   3.968  18.106  0.00  0.00    +0.000 A 
ATOM      6  C   UNL     1       2.390   3.455  19.041  0.00  0.00    +0.000 A 
ATOM      7  C   UNL     1       1.792   4.394  19.910  0.00  0.00    +0.000 A 
ATOM      8  C   UNL     1       2.092   5.757  19.831  0.00  0.00    +0.000 A 
ATOM      9  C   UNL     1       3.025   6.202  18.895  0.00  0.00    +0.000 A 
ATOM     10  C   UNL     1       3.611   5.303  17.996  0.00  0.00    +0.000 A 
ENDROOT
BRANCH   1  11
ATOM     11  C   UNL     1       5.158   6.634  16.418  0.00  0.00    +0.000 C 
ATOM     12  O   UNL     1       5.040   7.070  15.291  0.00  0.00    +0.000 OA
BRANCH  11  13
ATOM     13  O   UNL     1       5.952   7.226  17.366  0.00  0.00    +0.000 OA
BRANCH  13  14
ATOM     14  C   UNL     1       7.315   6.812  17.288  0.00  0.00    +0.000 C 
BRANCH  14  15
ATOM     15  C   UNL     1       7.913   6.707  18.682  0.00  0.00    +0.000 C 
BRANCH  15  17
ATOM     16  C   UNL     1       7.940   4.464  17.972  0.00  0.00    +0.000 C 
ATOM     17  O   UNL     1       7.910   5.341  19.091  0.00  0.00    +0.000 OA
ENDBRANCH  15  17
ENDBRANCH  14  15
ENDBRANCH  13  14
ENDBRANCH  11  13
ENDBRANCH   1  11
BRANCH   8  18
ATOM     18  O   UNL     1       1.453   6.662  20.652  0.00  0.00    +0.000 OA
BRANCH  18  19
ATOM     19  C   UNL     1       1.971   8.004  20.506  0.00  0.00    +0.000 C 
BRANCH  19  20
ATOM     20  C   UNL     1       0.865   8.954  20.200  0.00  0.00    +0.000 C 
ATOM     21  C   UNL     1       0.732   9.611  19.029  0.00  0.00    +0.000 C 
ATOM     22  C   UNL     1       1.694   9.484  17.876  0.00  0.00    +0.000 C 
ATOM     23  C   UNL     1      -0.419  10.546  18.784  0.00  0.00    +0.000 C 
ENDBRANCH  19  20
ENDBRANCH  18  19
ENDBRANCH   8  18
TORSDOF 8
ENDMDL
