MODEL 1
REMARK VINA RESULT:      -7.7      0.000      0.000
REMARK  Name = 
REMARK  2 active torsions:
REMARK  status: ('A' for Active; 'I' for Inactive)
REMARK    1  A    between atoms: C_7  and  C_8
REMARK    2  A    between atoms: N_17  and  O_18
REMARK                            x       y       z     vdW  Elec       q    Type
REMARK                         _______ _______ _______ _____ _____    ______ ____
ROOT
ATOM      1  O   UNL     1       6.826   5.636  14.477  0.00  0.00    +0.000 OA
ATOM      2  C   UNL     1       5.987   5.507  15.366  0.00  0.00    +0.000 A 
ATOM      3  N   UNL     1       5.330   6.619  15.844  0.00  0.00    +0.000 N 
ATOM      4  C   UNL     1       4.402   6.484  16.837  0.00  0.00    +0.000 A 
ATOM      5  S   UNL     1       3.650   7.863  17.416  0.00  0.00    +0.000 S 
ATOM      6  C   UNL     1       2.767   6.919  18.542  0.00  0.00    +0.000 A 
ATOM      7  C   UNL     1       3.038   5.555  18.458  0.00  0.00    +0.000 A 
ATOM      8  C   UNL     1       4.017   5.306  17.421  0.00  0.00    +0.000 A 
ATOM      9  C   UNL     1       4.631   4.086  16.915  0.00  0.00    +0.000 A 
ATOM     10  O   UNL     1       4.331   2.947  17.270  0.00  0.00    +0.000 OA
ATOM     11  N   UNL     1       5.622   4.303  15.959  0.00  0.00    +0.000 N 
ATOM     12  H   UNL     1       5.558   7.524  15.456  0.00  0.00    +0.000 HD
ENDROOT
BRANCH   7  13
ATOM     13  C   UNL     1       2.372   4.613  19.371  0.00  0.00    +0.000 A 
ATOM     14  C   UNL     1       1.359   3.755  18.912  0.00  0.00    +0.000 A 
ATOM     15  C   UNL     1       0.726   2.858  19.779  0.00  0.00    +0.000 A 
ATOM     16  C   UNL     1       1.112   2.788  21.114  0.00  0.00    +0.000 A 
ATOM     17  C   UNL     1       2.109   3.634  21.588  0.00  0.00    +0.000 A 
ATOM     18  C   UNL     1       2.715   4.556  20.727  0.00  0.00    +0.000 A 
ENDBRANCH   7  13
BRANCH  11  19
ATOM     19  O   UNL     1       6.269   3.139  15.475  0.00  0.00    +0.000 OA
ATOM     20  H   UNL     1       7.180   3.255  15.813  0.00  0.00    +0.000 HD
ENDBRANCH  11  19
TORSDOF 2
ENDMDL
MODEL 2
REMARK VINA RESULT:      -7.7      0.027      1.134
REMARK  Name = 
REMARK  2 active torsions:
REMARK  status: ('A' for Active; 'I' for Inactive)
REMARK    1  A    between atoms: C_7  and  C_8
REMARK    2  A    between atoms: N_17  and  O_18
REMARK                            x       y       z     vdW  Elec       q    Type
REMARK                         _______ _______ _______ _____ _____    ______ ____
ROOT
ATOM      1  O   UNL     1       6.816   5.614  14.460  0.00  0.00    +0.000 OA
ATOM      2  C   UNL     1       5.979   5.486  15.351  0.00  0.00    +0.000 A 
ATOM      3  N   UNL     1       5.327   6.599  15.833  0.00  0.00    +0.000 N 
ATOM      4  C   UNL     1       4.401   6.465  16.828  0.00  0.00    +0.000 A 
ATOM      5  S   UNL     1       3.655   7.845  17.412  0.00  0.00    +0.000 S 
ATOM      6  C   UNL     1       2.771   6.902  18.538  0.00  0.00    +0.000 A 
ATOM      7  C   UNL     1       3.038   5.537  18.451  0.00  0.00    +0.000 A 
ATOM      8  C   UNL     1       4.013   5.287  17.410  0.00  0.00    +0.000 A 
ATOM      9  C   UNL     1       4.623   4.066  16.901  0.00  0.00    +0.000 A 
ATOM     10  O   UNL     1       4.320   2.927  17.254  0.00  0.00    +0.000 OA
ATOM     11  N   UNL     1       5.612   4.281  15.943  0.00  0.00    +0.000 N 
ATOM     12  H   UNL     1       5.557   7.504  15.446  0.00  0.00    +0.000 HD
ENDROOT
BRANCH   7  13
ATOM     13  C   UNL     1       2.371   4.595  19.363  0.00  0.00    +0.000 A 
ATOM     14  C   UNL     1       2.721   4.534  20.723  0.00  0.00    +0.000 A 
ATOM     15  C   UNL     1       2.087   3.639  21.591  0.00  0.00    +0.000 A 
ATOM     16  C   UNL     1       1.076   2.807  21.119  0.00  0.00    +0.000 A 
ATOM     17  C   UNL     1       0.721   2.850  19.776  0.00  0.00    +0.000 A 
ATOM     18  C   UNL     1       1.382   3.719  18.901  0.00  0.00    +0.000 A 
ENDBRANCH   7  13
BRANCH  11  19
ATOM     19  O   UNL     1       6.253   3.117  15.454  0.00  0.00    +0.000 OA
ATOM     20  H   UNL     1       6.993   3.009  16.087  0.00  0.00    +0.000 HD
ENDBRANCH  11  19
TORSDOF 2
ENDMDL
MODEL 3
REMARK VINA RESULT:      -7.7      1.441      1.832
REMARK  Name = 
REMARK  2 active torsions:
REMARK  status: ('A' for Active; 'I' for Inactive)
REMARK    1  A    between atoms: C_7  and  C_8
REMARK    2  A    between atoms: N_17  and  O_18
REMARK                            x       y       z     vdW  Elec       q    Type
REMARK                         _______ _______ _______ _____ _____    ______ ____
ROOT
ATOM      1  O   UNL     1       7.895   6.730  16.545  0.00  0.00    +0.000 OA
ATOM      2  C   UNL     1       6.844   6.381  17.079  0.00  0.00    +0.000 A 
ATOM      3  N   UNL     1       5.737   7.196  16.992  0.00  0.00    +0.000 N 
ATOM      4  C   UNL     1       4.569   6.818  17.589  0.00  0.00    +0.000 A 
ATOM      5  S   UNL     1       3.255   7.851  17.492  0.00  0.00    +0.000 S 
ATOM      6  C   UNL     1       2.319   6.764  18.431  0.00  0.00    +0.000 A 
ATOM      7  C   UNL     1       3.010   5.612  18.799  0.00  0.00    +0.000 A 
ATOM      8  C   UNL     1       4.360   5.652  18.277  0.00  0.00    +0.000 A 
ATOM      9  C   UNL     1       5.476   4.719  18.352  0.00  0.00    +0.000 A 
ATOM     10  O   UNL     1       5.424   3.597  18.855  0.00  0.00    +0.000 OA
ATOM     11  N   UNL     1       6.657   5.200  17.790  0.00  0.00    +0.000 N 
ATOM     12  H   UNL     1       5.815   8.072  16.494  0.00  0.00    +0.000 HD
ENDROOT
BRANCH   7  13
ATOM     13  C   UNL     1       2.349   4.587  19.623  0.00  0.00    +0.000 A 
ATOM     14  C   UNL     1       2.677   4.428  20.981  0.00  0.00    +0.000 A 
ATOM     15  C   UNL     1       2.048   3.455  21.765  0.00  0.00    +0.000 A 
ATOM     16  C   UNL     1       1.064   2.641  21.212  0.00  0.00    +0.000 A 
ATOM     17  C   UNL     1       0.731   2.781  19.869  0.00  0.00    +0.000 A 
ATOM     18  C   UNL     1       1.388   3.729  19.077  0.00  0.00    +0.000 A 
ENDBRANCH   7  13
BRANCH  11  19
ATOM     19  O   UNL     1       7.774   4.333  17.880  0.00  0.00    +0.000 OA
ATOM     20  H   UNL     1       7.379   3.531  18.278  0.00  0.00    +0.000 HD
ENDBRANCH  11  19
TORSDOF 2
ENDMDL
MODEL 4
REMARK VINA RESULT:      -7.6      1.533      1.533
REMARK  Name = 
REMARK  2 active torsions:
REMARK  status: ('A' for Active; 'I' for Inactive)
REMARK    1  A    between atoms: C_7  and  C_8
REMARK    2  A    between atoms: N_17  and  O_18
REMARK                            x       y       z     vdW  Elec       q    Type
REMARK                         _______ _______ _______ _____ _____    ______ ____
ROOT
ATOM      1  O   UNL     1       7.928   6.842  16.660  0.00  0.00    +0.000 OA
ATOM      2  C   UNL     1       6.874   6.471  17.173  0.00  0.00    +0.000 A 
ATOM      3  N   UNL     1       5.746   7.250  17.041  0.00  0.00    +0.000 N 
ATOM      4  C   UNL     1       4.573   6.849  17.614  0.00  0.00    +0.000 A 
ATOM      5  S   UNL     1       3.232   7.839  17.462  0.00  0.00    +0.000 S 
ATOM      6  C   UNL     1       2.304   6.742  18.397  0.00  0.00    +0.000 A 
ATOM      7  C   UNL     1       3.019   5.618  18.806  0.00  0.00    +0.000 A 
ATOM      8  C   UNL     1       4.380   5.690  18.319  0.00  0.00    +0.000 A 
ATOM      9  C   UNL     1       5.521   4.793  18.442  0.00  0.00    +0.000 A 
ATOM     10  O   UNL     1       5.489   3.680  18.965  0.00  0.00    +0.000 OA
ATOM     11  N   UNL     1       6.702   5.298  17.902  0.00  0.00    +0.000 N 
ATOM     12  H   UNL     1       5.811   8.118  16.527  0.00  0.00    +0.000 HD
ENDROOT
BRANCH   7  13
ATOM     13  C   UNL     1       2.366   4.590  19.633  0.00  0.00    +0.000 A 
ATOM     14  C   UNL     1       1.398   3.730  19.087  0.00  0.00    +0.000 A 
ATOM     15  C   UNL     1       0.779   2.752  19.873  0.00  0.00    +0.000 A 
ATOM     16  C   UNL     1       1.134   2.602  21.210  0.00  0.00    +0.000 A 
ATOM     17  C   UNL     1       2.085   3.449  21.768  0.00  0.00    +0.000 A 
ATOM     18  C   UNL     1       2.676   4.451  20.991  0.00  0.00    +0.000 A 
ENDBRANCH   7  13
BRANCH  11  19
ATOM     19  O   UNL     1       7.842   4.468  18.039  0.00  0.00    +0.000 OA
ATOM     20  H   UNL     1       8.547   5.119  18.237  0.00  0.00    +0.000 HD
ENDBRANCH  11  19
TORSDOF 2
ENDMDL
MODEL 5
REMARK VINA RESULT:      -7.4      2.453      4.079
REMARK  Name = 
REMARK  2 active torsions:
REMARK  status: ('A' for Active; 'I' for Inactive)
REMARK    1  A    between atoms: C_7  and  C_8
REMARK    2  A    between atoms: N_17  and  O_18
REMARK                            x       y       z     vdW  Elec       q    Type
REMARK                         _______ _______ _______ _____ _____    ______ ____
ROOT
ATOM      1  O   UNL     1       8.159   4.112  17.061  0.00  0.00    +0.000 OA
ATOM      2  C   UNL     1       7.116   4.632  17.454  0.00  0.00    +0.000 A 
ATOM      3  N   UNL     1       6.224   3.886  18.192  0.00  0.00    +0.000 N 
ATOM      4  C   UNL     1       5.061   4.455  18.626  0.00  0.00    +0.000 A 
ATOM      5  S   UNL     1       3.985   3.508  19.490  0.00  0.00    +0.000 S 
ATOM      6  C   UNL     1       2.897   4.828  19.601  0.00  0.00    +0.000 A 
ATOM      7  C   UNL     1       3.368   5.989  18.992  0.00  0.00    +0.000 A 
ATOM      8  C   UNL     1       4.676   5.754  18.418  0.00  0.00    +0.000 A 
ATOM      9  C   UNL     1       5.606   6.611  17.695  0.00  0.00    +0.000 A 
ATOM     10  O   UNL     1       5.450   7.816  17.504  0.00  0.00    +0.000 OA
ATOM     11  N   UNL     1       6.735   5.949  17.216  0.00  0.00    +0.000 N 
ATOM     12  H   UNL     1       6.443   2.920  18.390  0.00  0.00    +0.000 HD
ENDROOT
BRANCH   7  13
ATOM     13  C   UNL     1       2.541   7.206  18.986  0.00  0.00    +0.000 A 
ATOM     14  C   UNL     1       1.961   7.693  20.169  0.00  0.00    +0.000 A 
ATOM     15  C   UNL     1       1.175   8.850  20.164  0.00  0.00    +0.000 A 
ATOM     16  C   UNL     1       0.977   9.554  18.980  0.00  0.00    +0.000 A 
ATOM     17  C   UNL     1       1.538   9.083  17.798  0.00  0.00    +0.000 A 
ATOM     18  C   UNL     1       2.292   7.905  17.799  0.00  0.00    +0.000 A 
ENDBRANCH   7  13
BRANCH  11  19
ATOM     19  O   UNL     1       7.642   6.745  16.475  0.00  0.00    +0.000 OA
ATOM     20  H   UNL     1       7.540   7.621  16.899  0.00  0.00    +0.000 HD
ENDBRANCH  11  19
TORSDOF 2
ENDMDL
MODEL 6
REMARK VINA RESULT:      -7.3      2.441      3.971
REMARK  Name = 
REMARK  2 active torsions:
REMARK  status: ('A' for Active; 'I' for Inactive)
REMARK    1  A    between atoms: C_7  and  C_8
REMARK    2  A    between atoms: N_17  and  O_18
REMARK                            x       y       z     vdW  Elec       q    Type
REMARK                         _______ _______ _______ _____ _____    ______ ____
ROOT
ATOM      1  O   UNL     1       8.153   4.120  17.018  0.00  0.00    +0.000 OA
ATOM      2  C   UNL     1       7.113   4.639  17.418  0.00  0.00    +0.000 A 
ATOM      3  N   UNL     1       6.225   3.891  18.160  0.00  0.00    +0.000 N 
ATOM      4  C   UNL     1       5.064   4.458  18.601  0.00  0.00    +0.000 A 
ATOM      5  S   UNL     1       3.994   3.509  19.470  0.00  0.00    +0.000 S 
ATOM      6  C   UNL     1       2.906   4.828  19.590  0.00  0.00    +0.000 A 
ATOM      7  C   UNL     1       3.373   5.991  18.981  0.00  0.00    +0.000 A 
ATOM      8  C   UNL     1       4.678   5.757  18.398  0.00  0.00    +0.000 A 
ATOM      9  C   UNL     1       5.603   6.616  17.672  0.00  0.00    +0.000 A 
ATOM     10  O   UNL     1       5.445   7.822  17.485  0.00  0.00    +0.000 OA
ATOM     11  N   UNL     1       6.730   5.956  17.186  0.00  0.00    +0.000 N 
ATOM     12  H   UNL     1       6.446   2.925  18.355  0.00  0.00    +0.000 HD
ENDROOT
BRANCH   7  13
ATOM     13  C   UNL     1       2.546   7.207  18.982  0.00  0.00    +0.000 A 
ATOM     14  C   UNL     1       2.329   7.937  17.800  0.00  0.00    +0.000 A 
ATOM     15  C   UNL     1       1.543   9.093  17.801  0.00  0.00    +0.000 A 
ATOM     16  C   UNL     1       0.939   9.527  18.977  0.00  0.00    +0.000 A 
ATOM     17  C   UNL     1       1.147   8.821  20.157  0.00  0.00    +0.000 A 
ATOM     18  C   UNL     1       1.965   7.686  20.162  0.00  0.00    +0.000 A 
ENDBRANCH   7  13
BRANCH  11  19
ATOM     19  O   UNL     1       7.632   6.754  16.441  0.00  0.00    +0.000 OA
ATOM     20  H   UNL     1       8.433   6.191  16.419  0.00  0.00    +0.000 HD
ENDBRANCH  11  19
TORSDOF 2
ENDMDL
MODEL 7
REMARK VINA RESULT:      -7.3      2.004      2.267
REMARK  Name = 
REMARK  2 active torsions:
REMARK  status: ('A' for Active; 'I' for Inactive)
REMARK    1  A    between atoms: C_7  and  C_8
REMARK    2  A    between atoms: N_17  and  O_18
REMARK                            x       y       z     vdW  Elec       q    Type
REMARK                         _______ _______ _______ _____ _____    ______ ____
ROOT
ATOM      1  O   UNL     1       7.561   5.202  13.710  0.00  0.00    +0.000 OA
ATOM      2  C   UNL     1       6.979   5.097  14.789  0.00  0.00    +0.000 A 
ATOM      3  N   UNL     1       7.570   5.597  15.928  0.00  0.00    +0.000 N 
ATOM      4  C   UNL     1       6.933   5.477  17.130  0.00  0.00    +0.000 A 
ATOM      5  S   UNL     1       7.697   6.066  18.498  0.00  0.00    +0.000 S 
ATOM      6  C   UNL     1       6.387   5.537  19.469  0.00  0.00    +0.000 A 
ATOM      7  C   UNL     1       5.367   4.929  18.742  0.00  0.00    +0.000 A 
ATOM      8  C   UNL     1       5.703   4.908  17.334  0.00  0.00    +0.000 A 
ATOM      9  C   UNL     1       5.000   4.415  16.157  0.00  0.00    +0.000 A 
ATOM     10  O   UNL     1       3.857   3.960  16.159  0.00  0.00    +0.000 OA
ATOM     11  N   UNL     1       5.737   4.499  14.978  0.00  0.00    +0.000 N 
ATOM     12  H   UNL     1       8.476   6.037  15.854  0.00  0.00    +0.000 HD
ENDROOT
BRANCH   7  13
ATOM     13  C   UNL     1       4.179   4.404  19.434  0.00  0.00    +0.000 A 
ATOM     14  C   UNL     1       4.022   3.025  19.657  0.00  0.00    +0.000 A 
ATOM     15  C   UNL     1       2.894   2.526  20.316  0.00  0.00    +0.000 A 
ATOM     16  C   UNL     1       1.916   3.398  20.785  0.00  0.00    +0.000 A 
ATOM     17  C   UNL     1       2.052   4.764  20.568  0.00  0.00    +0.000 A 
ATOM     18  C   UNL     1       3.163   5.259  19.876  0.00  0.00    +0.000 A 
ENDBRANCH   7  13
BRANCH  11  19
ATOM     19  O   UNL     1       5.098   3.991  13.820  0.00  0.00    +0.000 OA
ATOM     20  H   UNL     1       5.859   3.689  13.282  0.00  0.00    +0.000 HD
ENDBRANCH  11  19
TORSDOF 2
ENDMDL
MODEL 8
REMARK VINA RESULT:      -7.3      1.998      2.306
REMARK  Name = 
REMARK  2 active torsions:
REMARK  status: ('A' for Active; 'I' for Inactive)
REMARK    1  A    between atoms: C_7  and  C_8
REMARK    2  A    between atoms: N_17  and  O_18
REMARK                            x       y       z     vdW  Elec       q    Type
REMARK                         _______ _______ _______ _____ _____    ______ ____
ROOT
ATOM      1  O   UNL     1       7.517   5.214  13.690  0.00  0.00    +0.000 OA
ATOM      2  C   UNL     1       6.946   5.103  14.773  0.00  0.00    +0.000 A 
ATOM      3  N   UNL     1       7.539   5.613  15.907  0.00  0.00    +0.000 N 
ATOM      4  C   UNL     1       6.913   5.487  17.114  0.00  0.00    +0.000 A 
ATOM      5  S   UNL     1       7.681   6.087  18.474  0.00  0.00    +0.000 S 
ATOM      6  C   UNL     1       6.385   5.543  19.457  0.00  0.00    +0.000 A 
ATOM      7  C   UNL     1       5.367   4.922  18.739  0.00  0.00    +0.000 A 
ATOM      8  C   UNL     1       5.692   4.903  17.328  0.00  0.00    +0.000 A 
ATOM      9  C   UNL     1       4.986   4.399  16.158  0.00  0.00    +0.000 A 
ATOM     10  O   UNL     1       3.848   3.930  16.170  0.00  0.00    +0.000 OA
ATOM     11  N   UNL     1       5.713   4.490  14.973  0.00  0.00    +0.000 N 
ATOM     12  H   UNL     1       8.439   6.063  15.824  0.00  0.00    +0.000 HD
ENDROOT
BRANCH   7  13
ATOM     13  C   UNL     1       4.192   4.383  19.441  0.00  0.00    +0.000 A 
ATOM     14  C   UNL     1       3.161   5.231  19.884  0.00  0.00    +0.000 A 
ATOM     15  C   UNL     1       2.044   4.719  20.551  0.00  0.00    +0.000 A 
ATOM     16  C   UNL     1       1.925   3.349  20.766  0.00  0.00    +0.000 A 
ATOM     17  C   UNL     1       2.938   2.496  20.341  0.00  0.00    +0.000 A 
ATOM     18  C   UNL     1       4.073   3.014  19.707  0.00  0.00    +0.000 A 
ENDBRANCH   7  13
BRANCH  11  19
ATOM     19  O   UNL     1       5.071   3.973  13.820  0.00  0.00    +0.000 OA
ATOM     20  H   UNL     1       4.668   3.149  14.163  0.00  0.00    +0.000 HD
ENDBRANCH  11  19
TORSDOF 2
ENDMDL
MODEL 9
REMARK VINA RESULT:      -7.2      2.740      4.501
REMARK  Name = 
REMARK  2 active torsions:
REMARK  status: ('A' for Active; 'I' for Inactive)
REMARK    1  A    between atoms: C_7  and  C_8
REMARK    2  A    between atoms: N_17  and  O_18
REMARK                            x       y       z     vdW  Elec       q    Type
REMARK                         _______ _______ _______ _____ _____    ______ ____
ROOT
ATOM      1  O   UNL     1       3.794   1.015  18.304  0.00  0.00    +0.000 OA
ATOM      2  C   UNL     1       3.577   2.225  18.310  0.00  0.00    +0.000 A 
ATOM      3  N   UNL     1       4.404   3.066  17.598  0.00  0.00    +0.000 N 
ATOM      4  C   UNL     1       4.173   4.411  17.606  0.00  0.00    +0.000 A 
ATOM      5  S   UNL     1       5.219   5.404  16.757  0.00  0.00    +0.000 S 
ATOM      6  C   UNL     1       4.339   6.784  17.267  0.00  0.00    +0.000 A 
ATOM      7  C   UNL     1       3.242   6.478  18.069  0.00  0.00    +0.000 A 
ATOM      8  C   UNL     1       3.147   5.046  18.257  0.00  0.00    +0.000 A 
ATOM      9  C   UNL     1       2.202   4.205  18.979  0.00  0.00    +0.000 A 
ATOM     10  O   UNL     1       1.183   4.609  19.537  0.00  0.00    +0.000 OA
ATOM     11  N   UNL     1       2.539   2.853  18.992  0.00  0.00    +0.000 N 
ATOM     12  H   UNL     1       5.179   2.668  17.088  0.00  0.00    +0.000 HD
ENDROOT
BRANCH   7  13
ATOM     13  C   UNL     1       2.395   7.556  18.602  0.00  0.00    +0.000 A 
ATOM     14  C   UNL     1       1.872   8.551  17.759  0.00  0.00    +0.000 A 
ATOM     15  C   UNL     1       1.066   9.576  18.265  0.00  0.00    +0.000 A 
ATOM     16  C   UNL     1       0.749   9.610  19.620  0.00  0.00    +0.000 A 
ATOM     17  C   UNL     1       1.263   8.637  20.471  0.00  0.00    +0.000 A 
ATOM     18  C   UNL     1       2.099   7.635  19.969  0.00  0.00    +0.000 A 
ENDBRANCH   7  13
BRANCH  11  19
ATOM     19  O   UNL     1       1.662   2.011  19.719  0.00  0.00    +0.000 OA
ATOM     20  H   UNL     1       0.968   1.817  19.057  0.00  0.00    +0.000 HD
ENDBRANCH  11  19
TORSDOF 2
ENDMDL
