MODEL 1
REMARK VINA RESULT:      -8.5      0.000      0.000
REMARK  Name = 
REMARK  10 active torsions:
REMARK  status: ('A' for Active; 'I' for Inactive)
REMARK    1  A    between atoms: C_1  and  C_2
REMARK    2  A    between atoms: C_2  and  C_3
REMARK    3  A    between atoms: C_4  and  C_5
REMARK    4  A    between atoms: C_5  and  O_7
REMARK    5  A    between atoms: O_7  and  C_8
REMARK    6  A    between atoms: C_8  and  C_9
REMARK    7  A    between atoms: C_12  and  C_13
REMARK    8  A    between atoms: C_13  and  O_15
REMARK    9  A    between atoms: C_21  and  N_22
REMARK   10  A    between atoms: C_23  and  C_25
REMARK                            x       y       z     vdW  Elec       q    Type
REMARK                         _______ _______ _______ _____ _____    ______ ____
ROOT
ATOM      1  C   UNL     1       1.483   4.122  17.560  0.00  0.00    +0.000 C 
ATOM      2  C   UNL     1       2.506   3.473  18.522  0.00  0.00    +0.000 C 
ATOM      3  C   UNL     1       2.647   2.011  18.093  0.00  0.00    +0.000 C 
ATOM      4  C   UNL     1       3.821   4.276  18.599  0.00  0.00    +0.000 C 
ATOM      5  N   UNL     1       3.559   5.417  19.493  0.00  0.00    +0.000 N 
ATOM      6  C   UNL     1       2.911   6.538  19.072  0.00  0.00    +0.000 C 
ATOM      7  O   UNL     1       3.033   7.173  18.052  0.00  0.00    +0.000 OA
ATOM      8  C   UNL     1       1.875   6.459  20.224  0.00  0.00    +0.000 C 
ATOM      9  C   UNL     1       2.640   5.185  20.649  0.00  0.00    +0.000 C 
ATOM     10  S   UNL     1       1.896   3.591  20.236  0.00  0.00    +0.000 S 
ATOM     11  O   UNL     1       0.451   3.703  20.195  0.00  0.00    +0.000 OA
ATOM     12  O   UNL     1       2.521   2.529  20.996  0.00  0.00    +0.000 OA
ENDROOT
BRANCH   8  13
ATOM     13  N   UNL     1       1.870   7.592  21.187  0.00  0.00    +0.000 N 
ATOM     14  C   UNL     1       0.667   8.180  21.568  0.00  0.00    +0.000 C 
ATOM     15  O   UNL     1      -0.402   7.709  21.173  0.00  0.00    +0.000 OA
ATOM     16  H   UNL     1       2.735   8.074  21.426  0.00  0.00    +0.000 HD
BRANCH  14  17
ATOM     17  C   UNL     1       0.784   9.397  22.503  0.00  0.00    +0.000 C 
ATOM     18  F   UNL     1       1.976   9.403  23.168  0.00  0.00    +0.000 F 
ATOM     19  F   UNL     1       0.710  10.577  21.836  0.00  0.00    +0.000 F 
ATOM     20  F   UNL     1      -0.186   9.412  23.454  0.00  0.00    +0.000 F 
ENDBRANCH  14  17
ENDBRANCH   8  13
BRANCH   4  21
ATOM     21  C   UNL     1       5.011   3.520  19.221  0.00  0.00    +0.000 C 
ATOM     22  O   UNL     1       4.907   2.668  20.096  0.00  0.00    +0.000 OA
BRANCH  21  23
ATOM     23  O   UNL     1       6.186   3.943  18.684  0.00  0.00    +0.000 OA
BRANCH  23  24
ATOM     24  C   UNL     1       6.083   4.785  17.522  0.00  0.00    +0.000 C 
BRANCH  24  25
ATOM     25  C   UNL     1       6.780   6.087  17.822  0.00  0.00    +0.000 A 
ATOM     26  C   UNL     1       6.475   7.243  17.092  0.00  0.00    +0.000 A 
ATOM     27  C   UNL     1       7.164   8.433  17.335  0.00  0.00    +0.000 A 
ATOM     28  C   UNL     1       8.172   8.483  18.306  0.00  0.00    +0.000 A 
ATOM     29  C   UNL     1       8.458   7.340  19.063  0.00  0.00    +0.000 A 
ATOM     30  C   UNL     1       7.772   6.147  18.813  0.00  0.00    +0.000 A 
BRANCH  28  31
ATOM     31  C   UNL     1       8.873   9.778  18.508  0.00  0.00    +0.000 C 
ATOM     32  O   UNL     1       8.867  10.666  17.672  0.00  0.00    +0.000 OA
BRANCH  31  33
ATOM     33  O   UNL     1       9.559   9.867  19.666  0.00  0.00    +0.000 OA
ATOM     34  H   UNL     1       9.021  10.009  20.465  0.00  0.00    +0.000 HD
ENDBRANCH  31  33
ENDBRANCH  28  31
ENDBRANCH  24  25
ENDBRANCH  23  24
ENDBRANCH  21  23
ENDBRANCH   4  21
TORSDOF 8
ENDMDL
MODEL 2
REMARK VINA RESULT:      -8.3      4.514      7.454
REMARK  Name = 
REMARK  10 active torsions:
REMARK  status: ('A' for Active; 'I' for Inactive)
REMARK    1  A    between atoms: C_1  and  C_2
REMARK    2  A    between atoms: C_2  and  C_3
REMARK    3  A    between atoms: C_4  and  C_5
REMARK    4  A    between atoms: C_5  and  O_7
REMARK    5  A    between atoms: O_7  and  C_8
REMARK    6  A    between atoms: C_8  and  C_9
REMARK    7  A    between atoms: C_12  and  C_13
REMARK    8  A    between atoms: C_13  and  O_15
REMARK    9  A    between atoms: C_21  and  N_22
REMARK   10  A    between atoms: C_23  and  C_25
REMARK                            x       y       z     vdW  Elec       q    Type
REMARK                         _______ _______ _______ _____ _____    ______ ____
ROOT
ATOM      1  C   UNL     1       4.189   2.347  20.518  0.00  0.00    +0.000 C 
ATOM      2  C   UNL     1       2.917   3.138  20.133  0.00  0.00    +0.000 C 
ATOM      3  C   UNL     1       1.769   2.554  20.958  0.00  0.00    +0.000 C 
ATOM      4  C   UNL     1       3.121   4.662  20.258  0.00  0.00    +0.000 C 
ATOM      5  N   UNL     1       3.862   5.082  19.057  0.00  0.00    +0.000 N 
ATOM      6  C   UNL     1       5.210   4.921  18.939  0.00  0.00    +0.000 C 
ATOM      7  O   UNL     1       6.093   5.126  19.738  0.00  0.00    +0.000 OA
ATOM      8  C   UNL     1       5.075   4.173  17.587  0.00  0.00    +0.000 C 
ATOM      9  C   UNL     1       3.554   4.372  17.778  0.00  0.00    +0.000 C 
ATOM     10  S   UNL     1       2.595   2.950  18.348  0.00  0.00    +0.000 S 
ATOM     11  O   UNL     1       3.211   1.714  17.905  0.00  0.00    +0.000 OA
ATOM     12  O   UNL     1       1.182   3.175  18.133  0.00  0.00    +0.000 OA
ENDROOT
BRANCH   8  13
ATOM     13  N   UNL     1       5.695   4.828  16.404  0.00  0.00    +0.000 N 
ATOM     14  C   UNL     1       6.017   4.077  15.278  0.00  0.00    +0.000 C 
ATOM     15  O   UNL     1       5.714   2.883  15.225  0.00  0.00    +0.000 OA
ATOM     16  H   UNL     1       6.066   5.775  16.470  0.00  0.00    +0.000 HD
BRANCH  14  17
ATOM     17  C   UNL     1       6.730   4.840  14.146  0.00  0.00    +0.000 C 
ATOM     18  F   UNL     1       6.044   5.966  13.794  0.00  0.00    +0.000 F 
ATOM     19  F   UNL     1       7.979   5.243  14.494  0.00  0.00    +0.000 F 
ATOM     20  F   UNL     1       6.849   4.094  13.017  0.00  0.00    +0.000 F 
ENDBRANCH  14  17
ENDBRANCH   8  13
BRANCH   4  21
ATOM     21  C   UNL     1       1.825   5.495  20.263  0.00  0.00    +0.000 C 
ATOM     22  O   UNL     1       0.747   5.092  20.684  0.00  0.00    +0.000 OA
BRANCH  21  23
ATOM     23  O   UNL     1       2.038   6.722  19.719  0.00  0.00    +0.000 OA
BRANCH  23  24
ATOM     24  C   UNL     1       1.919   7.841  20.615  0.00  0.00    +0.000 C 
BRANCH  24  25
ATOM     25  C   UNL     1       1.049   8.880  19.957  0.00  0.00    +0.000 A 
ATOM     26  C   UNL     1       0.006   9.489  20.667  0.00  0.00    +0.000 A 
ATOM     27  C   UNL     1      -0.834  10.409  20.036  0.00  0.00    +0.000 A 
ATOM     28  C   UNL     1      -0.649  10.728  18.685  0.00  0.00    +0.000 A 
ATOM     29  C   UNL     1       0.413  10.148  17.979  0.00  0.00    +0.000 A 
ATOM     30  C   UNL     1       1.249   9.221  18.610  0.00  0.00    +0.000 A 
BRANCH  28  31
ATOM     31  C   UNL     1      -1.584  11.707  18.072  0.00  0.00    +0.000 C 
ATOM     32  O   UNL     1      -2.796  11.581  18.125  0.00  0.00    +0.000 OA
BRANCH  31  33
ATOM     33  O   UNL     1      -0.981  12.714  17.406  0.00  0.00    +0.000 OA
ATOM     34  H   UNL     1      -1.240  13.613  17.677  0.00  0.00    +0.000 HD
ENDBRANCH  31  33
ENDBRANCH  28  31
ENDBRANCH  24  25
ENDBRANCH  23  24
ENDBRANCH  21  23
ENDBRANCH   4  21
TORSDOF 8
ENDMDL
MODEL 3
REMARK VINA RESULT:      -8.3      0.644      1.112
REMARK  Name = 
REMARK  10 active torsions:
REMARK  status: ('A' for Active; 'I' for Inactive)
REMARK    1  A    between atoms: C_1  and  C_2
REMARK    2  A    between atoms: C_2  and  C_3
REMARK    3  A    between atoms: C_4  and  C_5
REMARK    4  A    between atoms: C_5  and  O_7
REMARK    5  A    between atoms: O_7  and  C_8
REMARK    6  A    between atoms: C_8  and  C_9
REMARK    7  A    between atoms: C_12  and  C_13
REMARK    8  A    between atoms: C_13  and  O_15
REMARK    9  A    between atoms: C_21  and  N_22
REMARK   10  A    between atoms: C_23  and  C_25
REMARK                            x       y       z     vdW  Elec       q    Type
REMARK                         _______ _______ _______ _____ _____    ______ ____
ROOT
ATOM      1  C   UNL     1       1.098   4.256  17.584  0.00  0.00    +0.000 C 
ATOM      2  C   UNL     1       2.403   3.742  18.237  0.00  0.00    +0.000 C 
ATOM      3  C   UNL     1       2.655   2.342  17.672  0.00  0.00    +0.000 C 
ATOM      4  C   UNL     1       3.564   4.745  18.080  0.00  0.00    +0.000 C 
ATOM      5  N   UNL     1       3.352   5.788  19.098  0.00  0.00    +0.000 N 
ATOM      6  C   UNL     1       2.464   6.805  18.925  0.00  0.00    +0.000 C 
ATOM      7  O   UNL     1       2.247   7.496  17.957  0.00  0.00    +0.000 OA
ATOM      8  C   UNL     1       1.750   6.508  20.270  0.00  0.00    +0.000 C 
ATOM      9  C   UNL     1       2.775   5.359  20.409  0.00  0.00    +0.000 C 
ATOM     10  S   UNL     1       2.201   3.684  20.048  0.00  0.00    +0.000 S 
ATOM     11  O   UNL     1       0.786   3.560  20.341  0.00  0.00    +0.000 OA
ATOM     12  O   UNL     1       3.137   2.707  20.561  0.00  0.00    +0.000 OA
ENDROOT
BRANCH   8  13
ATOM     13  N   UNL     1       1.802   7.582  21.297  0.00  0.00    +0.000 N 
ATOM     14  C   UNL     1       0.642   8.264  21.654  0.00  0.00    +0.000 C 
ATOM     15  O   UNL     1      -0.445   7.923  21.181  0.00  0.00    +0.000 OA
ATOM     16  H   UNL     1       2.695   7.963  21.605  0.00  0.00    +0.000 HD
BRANCH  14  17
ATOM     17  C   UNL     1       0.825   9.411  22.664  0.00  0.00    +0.000 C 
ATOM     18  F   UNL     1       0.478  10.615  22.121  0.00  0.00    +0.000 F 
ATOM     19  F   UNL     1       0.060   9.255  23.775  0.00  0.00    +0.000 F 
ATOM     20  F   UNL     1       2.113   9.534  23.078  0.00  0.00    +0.000 F 
ENDBRANCH  14  17
ENDBRANCH   8  13
BRANCH   4  21
ATOM     21  C   UNL     1       4.966   4.167  18.357  0.00  0.00    +0.000 C 
ATOM     22  O   UNL     1       5.351   3.786  19.455  0.00  0.00    +0.000 OA
BRANCH  21  23
ATOM     23  O   UNL     1       5.718   4.162  17.224  0.00  0.00    +0.000 OA
BRANCH  23  24
ATOM     24  C   UNL     1       7.142   4.238  17.410  0.00  0.00    +0.000 C 
BRANCH  24  25
ATOM     25  C   UNL     1       7.496   5.664  17.745  0.00  0.00    +0.000 A 
ATOM     26  C   UNL     1       7.233   6.696  16.835  0.00  0.00    +0.000 A 
ATOM     27  C   UNL     1       7.616   8.007  17.126  0.00  0.00    +0.000 A 
ATOM     28  C   UNL     1       8.273   8.304  18.326  0.00  0.00    +0.000 A 
ATOM     29  C   UNL     1       8.509   7.283  19.255  0.00  0.00    +0.000 A 
ATOM     30  C   UNL     1       8.132   5.969  18.959  0.00  0.00    +0.000 A 
BRANCH  28  31
ATOM     31  C   UNL     1       8.662   9.718  18.569  0.00  0.00    +0.000 C 
ATOM     32  O   UNL     1       9.288  10.069  19.555  0.00  0.00    +0.000 OA
BRANCH  31  33
ATOM     33  O   UNL     1       8.217  10.587  17.637  0.00  0.00    +0.000 OA
ATOM     34  H   UNL     1       8.476  11.517  17.769  0.00  0.00    +0.000 HD
ENDBRANCH  31  33
ENDBRANCH  28  31
ENDBRANCH  24  25
ENDBRANCH  23  24
ENDBRANCH  21  23
ENDBRANCH   4  21
TORSDOF 8
ENDMDL
MODEL 4
REMARK VINA RESULT:      -8.2      2.405      3.742
REMARK  Name = 
REMARK  10 active torsions:
REMARK  status: ('A' for Active; 'I' for Inactive)
REMARK    1  A    between atoms: C_1  and  C_2
REMARK    2  A    between atoms: C_2  and  C_3
REMARK    3  A    between atoms: C_4  and  C_5
REMARK    4  A    between atoms: C_5  and  O_7
REMARK    5  A    between atoms: O_7  and  C_8
REMARK    6  A    between atoms: C_8  and  C_9
REMARK    7  A    between atoms: C_12  and  C_13
REMARK    8  A    between atoms: C_13  and  O_15
REMARK    9  A    between atoms: C_21  and  N_22
REMARK   10  A    between atoms: C_23  and  C_25
REMARK                            x       y       z     vdW  Elec       q    Type
REMARK                         _______ _______ _______ _____ _____    ______ ____
ROOT
ATOM      1  C   UNL     1       1.401   4.338  17.629  0.00  0.00    +0.000 C 
ATOM      2  C   UNL     1       2.471   3.666  18.522  0.00  0.00    +0.000 C 
ATOM      3  C   UNL     1       2.709   2.268  17.945  0.00  0.00    +0.000 C 
ATOM      4  C   UNL     1       3.728   4.545  18.683  0.00  0.00    +0.000 C 
ATOM      5  N   UNL     1       3.393   5.567  19.689  0.00  0.00    +0.000 N 
ATOM      6  C   UNL     1       2.668   6.678  19.384  0.00  0.00    +0.000 C 
ATOM      7  O   UNL     1       2.741   7.422  18.435  0.00  0.00    +0.000 OA
ATOM      8  C   UNL     1       1.645   6.411  20.520  0.00  0.00    +0.000 C 
ATOM      9  C   UNL     1       2.498   5.156  20.813  0.00  0.00    +0.000 C 
ATOM     10  S   UNL     1       1.862   3.566  20.238  0.00  0.00    +0.000 S 
ATOM     11  O   UNL     1       0.412   3.582  20.204  0.00  0.00    +0.000 OA
ATOM     12  O   UNL     1       2.561   2.476  20.886  0.00  0.00    +0.000 OA
ENDROOT
BRANCH   8  13
ATOM     13  N   UNL     1       1.567   7.436  21.594  0.00  0.00    +0.000 N 
ATOM     14  C   UNL     1       0.579   8.416  21.555  0.00  0.00    +0.000 C 
ATOM     15  O   UNL     1      -0.285   8.386  20.676  0.00  0.00    +0.000 OA
ATOM     16  H   UNL     1       2.335   7.557  22.254  0.00  0.00    +0.000 HD
BRANCH  14  17
ATOM     17  C   UNL     1       0.642   9.475  22.670  0.00  0.00    +0.000 C 
ATOM     18  F   UNL     1       0.435  10.731  22.179  0.00  0.00    +0.000 F 
ATOM     19  F   UNL     1      -0.297   9.278  23.631  0.00  0.00    +0.000 F 
ATOM     20  F   UNL     1       1.851   9.499  23.290  0.00  0.00    +0.000 F 
ENDBRANCH  14  17
ENDBRANCH   8  13
BRANCH   4  21
ATOM     21  C   UNL     1       4.969   3.812  19.228  0.00  0.00    +0.000 C 
ATOM     22  O   UNL     1       4.936   2.943  20.090  0.00  0.00    +0.000 OA
BRANCH  21  23
ATOM     23  O   UNL     1       6.102   4.277  18.637  0.00  0.00    +0.000 OA
BRANCH  23  24
ATOM     24  C   UNL     1       5.938   5.393  17.745  0.00  0.00    +0.000 C 
BRANCH  24  25
ATOM     25  C   UNL     1       6.143   4.904  16.335  0.00  0.00    +0.000 A 
ATOM     26  C   UNL     1       7.362   5.117  15.677  0.00  0.00    +0.000 A 
ATOM     27  C   UNL     1       7.527   4.713  14.351  0.00  0.00    +0.000 A 
ATOM     28  C   UNL     1       6.476   4.096  13.661  0.00  0.00    +0.000 A 
ATOM     29  C   UNL     1       5.267   3.849  14.324  0.00  0.00    +0.000 A 
ATOM     30  C   UNL     1       5.100   4.262  15.650  0.00  0.00    +0.000 A 
BRANCH  28  31
ATOM     31  C   UNL     1       6.716   3.699  12.249  0.00  0.00    +0.000 C 
ATOM     32  O   UNL     1       7.222   4.449  11.432  0.00  0.00    +0.000 OA
BRANCH  31  33
ATOM     33  O   UNL     1       6.277   2.462  11.934  0.00  0.00    +0.000 OA
ATOM     34  H   UNL     1       6.447   2.175  11.019  0.00  0.00    +0.000 HD
ENDBRANCH  31  33
ENDBRANCH  28  31
ENDBRANCH  24  25
ENDBRANCH  23  24
ENDBRANCH  21  23
ENDBRANCH   4  21
TORSDOF 8
ENDMDL
MODEL 5
REMARK VINA RESULT:      -8.1      0.633      1.231
REMARK  Name = 
REMARK  10 active torsions:
REMARK  status: ('A' for Active; 'I' for Inactive)
REMARK    1  A    between atoms: C_1  and  C_2
REMARK    2  A    between atoms: C_2  and  C_3
REMARK    3  A    between atoms: C_4  and  C_5
REMARK    4  A    between atoms: C_5  and  O_7
REMARK    5  A    between atoms: O_7  and  C_8
REMARK    6  A    between atoms: C_8  and  C_9
REMARK    7  A    between atoms: C_12  and  C_13
REMARK    8  A    between atoms: C_13  and  O_15
REMARK    9  A    between atoms: C_21  and  N_22
REMARK   10  A    between atoms: C_23  and  C_25
REMARK                            x       y       z     vdW  Elec       q    Type
REMARK                         _______ _______ _______ _____ _____    ______ ____
ROOT
ATOM      1  C   UNL     1       1.063   4.199  17.627  0.00  0.00    +0.000 C 
ATOM      2  C   UNL     1       2.362   3.713  18.313  0.00  0.00    +0.000 C 
ATOM      3  C   UNL     1       2.621   2.293  17.805  0.00  0.00    +0.000 C 
ATOM      4  C   UNL     1       3.524   4.710  18.128  0.00  0.00    +0.000 C 
ATOM      5  N   UNL     1       3.301   5.792  19.103  0.00  0.00    +0.000 N 
ATOM      6  C   UNL     1       2.414   6.800  18.881  0.00  0.00    +0.000 C 
ATOM      7  O   UNL     1       2.206   7.453  17.886  0.00  0.00    +0.000 OA
ATOM      8  C   UNL     1       1.687   6.555  20.230  0.00  0.00    +0.000 C 
ATOM      9  C   UNL     1       2.711   5.414  20.424  0.00  0.00    +0.000 C 
ATOM     10  S   UNL     1       2.142   3.726  20.123  0.00  0.00    +0.000 S 
ATOM     11  O   UNL     1       0.724   3.611  20.406  0.00  0.00    +0.000 OA
ATOM     12  O   UNL     1       3.074   2.770  20.682  0.00  0.00    +0.000 OA
ENDROOT
BRANCH   8  13
ATOM     13  N   UNL     1       1.728   7.668  21.215  0.00  0.00    +0.000 N 
ATOM     14  C   UNL     1       0.544   8.228  21.687  0.00  0.00    +0.000 C 
ATOM     15  O   UNL     1      -0.541   7.746  21.355  0.00  0.00    +0.000 OA
ATOM     16  H   UNL     1       2.600   8.161  21.406  0.00  0.00    +0.000 HD
BRANCH  14  17
ATOM     17  C   UNL     1       0.704   9.428  22.638  0.00  0.00    +0.000 C 
ATOM     18  F   UNL     1       0.743  10.607  21.952  0.00  0.00    +0.000 F 
ATOM     19  F   UNL     1      -0.320   9.532  23.524  0.00  0.00    +0.000 F 
ATOM     20  F   UNL     1       1.854   9.365  23.359  0.00  0.00    +0.000 F 
ENDBRANCH  14  17
ENDBRANCH   8  13
BRANCH   4  21
ATOM     21  C   UNL     1       4.923   4.145  18.441  0.00  0.00    +0.000 C 
ATOM     22  O   UNL     1       5.270   3.729  19.540  0.00  0.00    +0.000 OA
BRANCH  21  23
ATOM     23  O   UNL     1       5.720   4.194  17.341  0.00  0.00    +0.000 OA
BRANCH  23  24
ATOM     24  C   UNL     1       7.137   4.212  17.587  0.00  0.00    +0.000 C 
BRANCH  24  25
ATOM     25  C   UNL     1       7.559   5.643  17.802  0.00  0.00    +0.000 A 
ATOM     26  C   UNL     1       8.185   6.030  18.993  0.00  0.00    +0.000 A 
ATOM     27  C   UNL     1       8.521   7.368  19.211  0.00  0.00    +0.000 A 
ATOM     28  C   UNL     1       8.230   8.339  18.244  0.00  0.00    +0.000 A 
ATOM     29  C   UNL     1       7.634   7.953  17.037  0.00  0.00    +0.000 A 
ATOM     30  C   UNL     1       7.291   6.614  16.824  0.00  0.00    +0.000 A 
BRANCH  28  31
ATOM     31  C   UNL     1       8.605   9.745  18.544  0.00  0.00    +0.000 C 
ATOM     32  O   UNL     1       8.324  10.673  17.804  0.00  0.00    +0.000 OA
BRANCH  31  33
ATOM     33  O   UNL     1       9.330   9.902  19.671  0.00  0.00    +0.000 OA
ATOM     34  H   UNL     1       9.415   9.110  20.231  0.00  0.00    +0.000 HD
ENDBRANCH  31  33
ENDBRANCH  28  31
ENDBRANCH  24  25
ENDBRANCH  23  24
ENDBRANCH  21  23
ENDBRANCH   4  21
TORSDOF 8
ENDMDL
MODEL 6
REMARK VINA RESULT:      -8.1      2.614      4.057
REMARK  Name = 
REMARK  10 active torsions:
REMARK  status: ('A' for Active; 'I' for Inactive)
REMARK    1  A    between atoms: C_1  and  C_2
REMARK    2  A    between atoms: C_2  and  C_3
REMARK    3  A    between atoms: C_4  and  C_5
REMARK    4  A    between atoms: C_5  and  O_7
REMARK    5  A    between atoms: O_7  and  C_8
REMARK    6  A    between atoms: C_8  and  C_9
REMARK    7  A    between atoms: C_12  and  C_13
REMARK    8  A    between atoms: C_13  and  O_15
REMARK    9  A    between atoms: C_21  and  N_22
REMARK   10  A    between atoms: C_23  and  C_25
REMARK                            x       y       z     vdW  Elec       q    Type
REMARK                         _______ _______ _______ _____ _____    ______ ____
ROOT
ATOM      1  C   UNL     1       1.544   4.526  17.622  0.00  0.00    +0.000 C 
ATOM      2  C   UNL     1       2.699   4.036  18.527  0.00  0.00    +0.000 C 
ATOM      3  C   UNL     1       3.063   2.628  18.050  0.00  0.00    +0.000 C 
ATOM      4  C   UNL     1       3.864   5.045  18.580  0.00  0.00    +0.000 C 
ATOM      5  N   UNL     1       3.452   6.105  19.517  0.00  0.00    +0.000 N 
ATOM      6  C   UNL     1       2.610   7.111  19.153  0.00  0.00    +0.000 C 
ATOM      7  O   UNL     1       2.583   7.782  18.149  0.00  0.00    +0.000 OA
ATOM      8  C   UNL     1       1.649   6.832  20.339  0.00  0.00    +0.000 C 
ATOM      9  C   UNL     1       2.632   5.695  20.698  0.00  0.00    +0.000 C 
ATOM     10  S   UNL     1       2.147   4.009  20.265  0.00  0.00    +0.000 S 
ATOM     11  O   UNL     1       0.703   3.878  20.279  0.00  0.00    +0.000 OA
ATOM     12  O   UNL     1       2.970   3.050  20.969  0.00  0.00    +0.000 OA
ENDROOT
BRANCH   8  13
ATOM     13  N   UNL     1       1.494   7.926  21.335  0.00  0.00    +0.000 N 
ATOM     14  C   UNL     1       0.224   8.355  21.710  0.00  0.00    +0.000 C 
ATOM     15  O   UNL     1      -0.775   7.774  21.282  0.00  0.00    +0.000 OA
ATOM     16  H   UNL     1       2.293   8.499  21.605  0.00  0.00    +0.000 HD
BRANCH  14  17
ATOM     17  C   UNL     1       0.182   9.547  22.683  0.00  0.00    +0.000 C 
ATOM     18  F   UNL     1      -1.071   9.729  23.195  0.00  0.00    +0.000 F 
ATOM     19  F   UNL     1       1.011   9.384  23.746  0.00  0.00    +0.000 F 
ATOM     20  F   UNL     1       0.525  10.716  22.082  0.00  0.00    +0.000 F 
ENDBRANCH  14  17
ENDBRANCH   8  13
BRANCH   4  21
ATOM     21  C   UNL     1       5.187   4.484  19.136  0.00  0.00    +0.000 C 
ATOM     22  O   UNL     1       5.333   4.062  20.277  0.00  0.00    +0.000 OA
BRANCH  21  23
ATOM     23  O   UNL     1       6.169   4.544  18.197  0.00  0.00    +0.000 OA
BRANCH  23  24
ATOM     24  C   UNL     1       6.060   5.608  17.236  0.00  0.00    +0.000 C 
BRANCH  24  25
ATOM     25  C   UNL     1       6.021   4.996  15.859  0.00  0.00    +0.000 A 
ATOM     26  C   UNL     1       4.838   4.431  15.365  0.00  0.00    +0.000 A 
ATOM     27  C   UNL     1       4.822   3.813  14.112  0.00  0.00    +0.000 A 
ATOM     28  C   UNL     1       5.989   3.745  13.340  0.00  0.00    +0.000 A 
ATOM     29  C   UNL     1       7.166   4.338  13.814  0.00  0.00    +0.000 A 
ATOM     30  C   UNL     1       7.182   4.949  15.072  0.00  0.00    +0.000 A 
BRANCH  28  31
ATOM     31  C   UNL     1       5.905   3.065  12.021  0.00  0.00    +0.000 C 
ATOM     32  O   UNL     1       4.873   3.010  11.374  0.00  0.00    +0.000 OA
BRANCH  31  33
ATOM     33  O   UNL     1       7.049   2.469  11.626  0.00  0.00    +0.000 OA
ATOM     34  H   UNL     1       7.622   2.139  12.342  0.00  0.00    +0.000 HD
ENDBRANCH  31  33
ENDBRANCH  28  31
ENDBRANCH  24  25
ENDBRANCH  23  24
ENDBRANCH  21  23
ENDBRANCH   4  21
TORSDOF 8
ENDMDL
MODEL 7
REMARK VINA RESULT:      -8.0      3.390      5.434
REMARK  Name = 
REMARK  10 active torsions:
REMARK  status: ('A' for Active; 'I' for Inactive)
REMARK    1  A    between atoms: C_1  and  C_2
REMARK    2  A    between atoms: C_2  and  C_3
REMARK    3  A    between atoms: C_4  and  C_5
REMARK    4  A    between atoms: C_5  and  O_7
REMARK    5  A    between atoms: O_7  and  C_8
REMARK    6  A    between atoms: C_8  and  C_9
REMARK    7  A    between atoms: C_12  and  C_13
REMARK    8  A    between atoms: C_13  and  O_15
REMARK    9  A    between atoms: C_21  and  N_22
REMARK   10  A    between atoms: C_23  and  C_25
REMARK                            x       y       z     vdW  Elec       q    Type
REMARK                         _______ _______ _______ _____ _____    ______ ____
ROOT
ATOM      1  C   UNL     1       5.370   6.013  15.046  0.00  0.00    +0.000 C 
ATOM      2  C   UNL     1       6.572   5.967  16.018  0.00  0.00    +0.000 C 
ATOM      3  C   UNL     1       7.831   6.164  15.170  0.00  0.00    +0.000 C 
ATOM      4  C   UNL     1       6.403   6.946  17.198  0.00  0.00    +0.000 C 
ATOM      5  N   UNL     1       5.486   6.294  18.149  0.00  0.00    +0.000 N 
ATOM      6  C   UNL     1       4.136   6.289  17.972  0.00  0.00    +0.000 C 
ATOM      7  O   UNL     1       3.390   7.175  17.631  0.00  0.00    +0.000 OA
ATOM      8  C   UNL     1       4.051   4.745  18.106  0.00  0.00    +0.000 C 
ATOM      9  C   UNL     1       5.585   4.809  18.289  0.00  0.00    +0.000 C 
ATOM     10  S   UNL     1       6.610   4.356  16.872  0.00  0.00    +0.000 S 
ATOM     11  O   UNL     1       5.924   3.387  16.039  0.00  0.00    +0.000 OA
ATOM     12  O   UNL     1       7.975   4.116  17.291  0.00  0.00    +0.000 OA
ENDROOT
BRANCH   8  13
ATOM     13  N   UNL     1       3.260   4.224  19.252  0.00  0.00    +0.000 N 
ATOM     14  C   UNL     1       2.052   3.571  19.027  0.00  0.00    +0.000 C 
ATOM     15  O   UNL     1       1.676   3.348  17.875  0.00  0.00    +0.000 OA
ATOM     16  H   UNL     1       3.483   4.502  20.207  0.00  0.00    +0.000 HD
BRANCH  14  17
ATOM     17  C   UNL     1       1.276   3.147  20.287  0.00  0.00    +0.000 C 
ATOM     18  F   UNL     1      -0.073   3.204  20.087  0.00  0.00    +0.000 F 
ATOM     19  F   UNL     1       1.554   1.873  20.668  0.00  0.00    +0.000 F 
ATOM     20  F   UNL     1       1.540   3.950  21.351  0.00  0.00    +0.000 F 
ENDBRANCH  14  17
ENDBRANCH   8  13
BRANCH   4  21
ATOM     21  C   UNL     1       7.690   7.240  17.992  0.00  0.00    +0.000 C 
ATOM     22  O   UNL     1       8.233   6.443  18.747  0.00  0.00    +0.000 OA
BRANCH  21  23
ATOM     23  O   UNL     1       8.124   8.507  17.755  0.00  0.00    +0.000 OA
BRANCH  23  24
ATOM     24  C   UNL     1       8.686   9.203  18.881  0.00  0.00    +0.000 C 
BRANCH  24  25
ATOM     25  C   UNL     1       9.234  10.520  18.393  0.00  0.00    +0.000 A 
ATOM     26  C   UNL     1      10.583  10.845  18.585  0.00  0.00    +0.000 A 
ATOM     27  C   UNL     1      11.072  12.090  18.182  0.00  0.00    +0.000 A 
ATOM     28  C   UNL     1      10.219  13.029  17.590  0.00  0.00    +0.000 A 
ATOM     29  C   UNL     1       8.877  12.697  17.365  0.00  0.00    +0.000 A 
ATOM     30  C   UNL     1       8.387  11.453  17.775  0.00  0.00    +0.000 A 
BRANCH  28  31
ATOM     31  C   UNL     1      10.802  14.338  17.195  0.00  0.00    +0.000 C 
ATOM     32  O   UNL     1      10.979  15.246  17.989  0.00  0.00    +0.000 OA
BRANCH  31  33
ATOM     33  O   UNL     1      11.066  14.456  15.877  0.00  0.00    +0.000 OA
ATOM     34  H   UNL     1      11.202  15.365  15.554  0.00  0.00    +0.000 HD
ENDBRANCH  31  33
ENDBRANCH  28  31
ENDBRANCH  24  25
ENDBRANCH  23  24
ENDBRANCH  21  23
ENDBRANCH   4  21
TORSDOF 8
ENDMDL
MODEL 8
REMARK VINA RESULT:      -8.0      4.493      7.334
REMARK  Name = 
REMARK  10 active torsions:
REMARK  status: ('A' for Active; 'I' for Inactive)
REMARK    1  A    between atoms: C_1  and  C_2
REMARK    2  A    between atoms: C_2  and  C_3
REMARK    3  A    between atoms: C_4  and  C_5
REMARK    4  A    between atoms: C_5  and  O_7
REMARK    5  A    between atoms: O_7  and  C_8
REMARK    6  A    between atoms: C_8  and  C_9
REMARK    7  A    between atoms: C_12  and  C_13
REMARK    8  A    between atoms: C_13  and  O_15
REMARK    9  A    between atoms: C_21  and  N_22
REMARK   10  A    between atoms: C_23  and  C_25
REMARK                            x       y       z     vdW  Elec       q    Type
REMARK                         _______ _______ _______ _____ _____    ______ ____
ROOT
ATOM      1  C   UNL     1       4.090   2.325  20.558  0.00  0.00    +0.000 C 
ATOM      2  C   UNL     1       2.822   3.127  20.181  0.00  0.00    +0.000 C 
ATOM      3  C   UNL     1       1.672   2.543  21.004  0.00  0.00    +0.000 C 
ATOM      4  C   UNL     1       3.036   4.648  20.317  0.00  0.00    +0.000 C 
ATOM      5  N   UNL     1       3.777   5.072  19.117  0.00  0.00    +0.000 N 
ATOM      6  C   UNL     1       5.123   4.904  18.996  0.00  0.00    +0.000 C 
ATOM      7  O   UNL     1       6.009   5.097  19.794  0.00  0.00    +0.000 OA
ATOM      8  C   UNL     1       4.982   4.166  17.638  0.00  0.00    +0.000 C 
ATOM      9  C   UNL     1       3.463   4.373  17.834  0.00  0.00    +0.000 C 
ATOM     10  S   UNL     1       2.496   2.954  18.395  0.00  0.00    +0.000 S 
ATOM     11  O   UNL     1       3.103   1.717  17.942  0.00  0.00    +0.000 OA
ATOM     12  O   UNL     1       1.083   3.189  18.185  0.00  0.00    +0.000 OA
ENDROOT
BRANCH   8  13
ATOM     13  N   UNL     1       5.604   4.827  16.459  0.00  0.00    +0.000 N 
ATOM     14  C   UNL     1       6.018   4.066  15.370  0.00  0.00    +0.000 C 
ATOM     15  O   UNL     1       5.795   2.854  15.344  0.00  0.00    +0.000 OA
ATOM     16  H   UNL     1       5.910   5.798  16.510  0.00  0.00    +0.000 HD
BRANCH  14  17
ATOM     17  C   UNL     1       6.723   4.841  14.243  0.00  0.00    +0.000 C 
ATOM     18  F   UNL     1       6.080   6.013  13.964  0.00  0.00    +0.000 F 
ATOM     19  F   UNL     1       8.003   5.169  14.556  0.00  0.00    +0.000 F 
ATOM     20  F   UNL     1       6.762   4.138  13.080  0.00  0.00    +0.000 F 
ENDBRANCH  14  17
ENDBRANCH   8  13
BRANCH   4  21
ATOM     21  C   UNL     1       1.744   5.489  20.331  0.00  0.00    +0.000 C 
ATOM     22  O   UNL     1       0.625   5.032  20.526  0.00  0.00    +0.000 OA
BRANCH  21  23
ATOM     23  O   UNL     1       2.017   6.796  20.074  0.00  0.00    +0.000 OA
BRANCH  23  24
ATOM     24  C   UNL     1       1.610   7.736  21.084  0.00  0.00    +0.000 C 
BRANCH  24  25
ATOM     25  C   UNL     1       0.950   8.905  20.398  0.00  0.00    +0.000 A 
ATOM     26  C   UNL     1       1.261   9.220  19.069  0.00  0.00    +0.000 A 
ATOM     27  C   UNL     1       0.690  10.338  18.457  0.00  0.00    +0.000 A 
ATOM     28  C   UNL     1      -0.193  11.161  19.167  0.00  0.00    +0.000 A 
ATOM     29  C   UNL     1      -0.535  10.832  20.484  0.00  0.00    +0.000 A 
ATOM     30  C   UNL     1       0.044   9.716  21.099  0.00  0.00    +0.000 A 
BRANCH  28  31
ATOM     31  C   UNL     1      -0.757  12.340  18.459  0.00  0.00    +0.000 C 
ATOM     32  O   UNL     1      -0.092  13.325  18.189  0.00  0.00    +0.000 OA
BRANCH  31  33
ATOM     33  O   UNL     1      -2.077  12.251  18.190  0.00  0.00    +0.000 OA
ATOM     34  H   UNL     1      -2.305  11.923  17.302  0.00  0.00    +0.000 HD
ENDBRANCH  31  33
ENDBRANCH  28  31
ENDBRANCH  24  25
ENDBRANCH  23  24
ENDBRANCH  21  23
ENDBRANCH   4  21
TORSDOF 8
ENDMDL
MODEL 9
REMARK VINA RESULT:      -8.0      4.555      7.447
REMARK  Name = 
REMARK  10 active torsions:
REMARK  status: ('A' for Active; 'I' for Inactive)
REMARK    1  A    between atoms: C_1  and  C_2
REMARK    2  A    between atoms: C_2  and  C_3
REMARK    3  A    between atoms: C_4  and  C_5
REMARK    4  A    between atoms: C_5  and  O_7
REMARK    5  A    between atoms: O_7  and  C_8
REMARK    6  A    between atoms: C_8  and  C_9
REMARK    7  A    between atoms: C_12  and  C_13
REMARK    8  A    between atoms: C_13  and  O_15
REMARK    9  A    between atoms: C_21  and  N_22
REMARK   10  A    between atoms: C_23  and  C_25
REMARK                            x       y       z     vdW  Elec       q    Type
REMARK                         _______ _______ _______ _____ _____    ______ ____
ROOT
ATOM      1  C   UNL     1       4.471   2.453  20.539  0.00  0.00    +0.000 C 
ATOM      2  C   UNL     1       3.108   3.109  20.217  0.00  0.00    +0.000 C 
ATOM      3  C   UNL     1       2.132   2.651  21.303  0.00  0.00    +0.000 C 
ATOM      4  C   UNL     1       3.228   4.635  20.028  0.00  0.00    +0.000 C 
ATOM      5  N   UNL     1       3.757   4.845  18.669  0.00  0.00    +0.000 N 
ATOM      6  C   UNL     1       5.081   4.714  18.376  0.00  0.00    +0.000 C 
ATOM      7  O   UNL     1       6.055   5.100  18.977  0.00  0.00    +0.000 OA
ATOM      8  C   UNL     1       4.801   3.716  17.221  0.00  0.00    +0.000 C 
ATOM      9  C   UNL     1       3.314   3.892  17.606  0.00  0.00    +0.000 C 
ATOM     10  S   UNL     1       2.543   2.571  18.569  0.00  0.00    +0.000 S 
ATOM     11  O   UNL     1       3.167   1.297  18.271  0.00  0.00    +0.000 OA
ATOM     12  O   UNL     1       1.102   2.699  18.538  0.00  0.00    +0.000 OA
ENDROOT
BRANCH   8  13
ATOM     13  N   UNL     1       5.198   4.156  15.857  0.00  0.00    +0.000 N 
ATOM     14  C   UNL     1       6.544   4.236  15.513  0.00  0.00    +0.000 C 
ATOM     15  O   UNL     1       7.408   3.862  16.310  0.00  0.00    +0.000 OA
ATOM     16  H   UNL     1       4.517   4.585  15.231  0.00  0.00    +0.000 HD
BRANCH  14  17
ATOM     17  C   UNL     1       6.843   4.781  14.105  0.00  0.00    +0.000 C 
ATOM     18  F   UNL     1       6.748   3.802  13.159  0.00  0.00    +0.000 F 
ATOM     19  F   UNL     1       5.982   5.763  13.732  0.00  0.00    +0.000 F 
ATOM     20  F   UNL     1       8.099   5.290  14.006  0.00  0.00    +0.000 F 
ENDBRANCH  14  17
ENDBRANCH   8  13
BRANCH   4  21
ATOM     21  C   UNL     1       1.894   5.405  20.081  0.00  0.00    +0.000 C 
ATOM     22  O   UNL     1       0.922   5.059  20.742  0.00  0.00    +0.000 OA
BRANCH  21  23
ATOM     23  O   UNL     1       1.938   6.503  19.280  0.00  0.00    +0.000 OA
BRANCH  23  24
ATOM     24  C   UNL     1       2.293   7.740  19.921  0.00  0.00    +0.000 C 
BRANCH  24  25
ATOM     25  C   UNL     1       1.252   8.770  19.565  0.00  0.00    +0.000 A 
ATOM     26  C   UNL     1       1.174   9.284  18.265  0.00  0.00    +0.000 A 
ATOM     27  C   UNL     1       0.245  10.280  17.955  0.00  0.00    +0.000 A 
ATOM     28  C   UNL     1      -0.614  10.780  18.942  0.00  0.00    +0.000 A 
ATOM     29  C   UNL     1      -0.564  10.246  20.235  0.00  0.00    +0.000 A 
ATOM     30  C   UNL     1       0.372   9.254  20.546  0.00  0.00    +0.000 A 
BRANCH  28  31
ATOM     31  C   UNL     1      -1.572  11.846  18.547  0.00  0.00    +0.000 C 
ATOM     32  O   UNL     1      -2.545  12.138  19.221  0.00  0.00    +0.000 OA
BRANCH  31  33
ATOM     33  O   UNL     1      -1.306  12.424  17.357  0.00  0.00    +0.000 OA
ATOM     34  H   UNL     1      -1.523  11.891  16.572  0.00  0.00    +0.000 HD
ENDBRANCH  31  33
ENDBRANCH  28  31
ENDBRANCH  24  25
ENDBRANCH  23  24
ENDBRANCH  21  23
ENDBRANCH   4  21
TORSDOF 8
ENDMDL
