MODEL 1
REMARK VINA RESULT:      -7.1      0.000      0.000
REMARK  Name = 
REMARK  7 active torsions:
REMARK  status: ('A' for Active; 'I' for Inactive)
REMARK    1  A    between atoms: C_1  and  C_2
REMARK    2  A    between atoms: C_2  and  O_3
REMARK    3  A    between atoms: O_3  and  C_4
REMARK    4  A    between atoms: C_4  and  C_6
REMARK    5  A    between atoms: C_6  and  C_21
REMARK    6  A    between atoms: C_14  and  S_15
REMARK    7  A    between atoms: S_15  and  N_16
REMARK                            x       y       z     vdW  Elec       q    Type
REMARK                         _______ _______ _______ _____ _____    ______ ____
ROOT
ATOM      1  C   UNL     1       0.875   9.221  20.130  0.00  0.00    +0.000 C 
ATOM      2  C   UNL     1       1.655   8.500  19.286  0.00  0.00    +0.000 C 
ATOM      3  C   UNL     1       2.272   9.087  18.017  0.00  0.00    +0.000 C 
ATOM      4  O   UNL     1       2.209  10.214  17.563  0.00  0.00    +0.000 OA
ATOM      5  N   UNL     1       3.006   8.070  17.446  0.00  0.00    +0.000 N 
ATOM      6  C   UNL     1       2.951   6.917  18.198  0.00  0.00    +0.000 A 
ATOM      7  C   UNL     1       3.620   5.746  17.892  0.00  0.00    +0.000 A 
ATOM      8  C   UNL     1       3.458   4.678  18.759  0.00  0.00    +0.000 A 
ATOM      9  C   UNL     1       2.588   4.799  19.850  0.00  0.00    +0.000 A 
ATOM     10  C   UNL     1       1.900   5.985  20.122  0.00  0.00    +0.000 A 
ATOM     11  C   UNL     1       2.122   7.086  19.318  0.00  0.00    +0.000 A 
ATOM     12  H   UNL     1       3.518   8.196  16.585  0.00  0.00    +0.000 HD
ENDROOT
BRANCH   1  13
ATOM     13  C   UNL     1       0.473  10.544  19.794  0.00  0.00    +0.000 A 
ATOM     14  C   UNL     1      -0.602  11.050  19.089  0.00  0.00    +0.000 A 
ATOM     15  C   UNL     1      -0.433  12.450  18.987  0.00  0.00    +0.000 A 
ATOM     16  C   UNL     1       0.712  12.773  19.680  0.00  0.00    +0.000 A 
ATOM     17  N   UNL     1       1.243  11.616  20.189  0.00  0.00    +0.000 N 
ATOM     18  H   UNL     1       2.103  11.560  20.719  0.00  0.00    +0.000 HD
ENDBRANCH   1  13
BRANCH   9  19
ATOM     19  S   UNL     1       2.342   3.394  20.890  0.00  0.00    +0.000 S 
ATOM     20  O   UNL     1       3.164   2.321  20.411  0.00  0.00    +0.000 OA
ATOM     21  O   UNL     1       2.343   3.832  22.274  0.00  0.00    +0.000 OA
BRANCH  19  22
ATOM     22  N   UNL     1       0.752   3.036  20.519  0.00  0.00    +0.000 NA
ATOM     23  H   UNL     1       0.114   3.760  20.840  0.00  0.00    +0.000 HD
ATOM     24  H   UNL     1       0.639   2.713  19.560  0.00  0.00    +0.000 HD
ENDBRANCH  19  22
ENDBRANCH   9  19
BRANCH   1  25
ATOM     25  C   UNL     1       0.289   8.613  21.379  0.00  0.00    +0.000 C 
ATOM     26  O   UNL     1      -0.576   7.773  21.411  0.00  0.00    +0.000 OA
BRANCH  25  27
ATOM     27  O   UNL     1       0.817   9.189  22.495  0.00  0.00    +0.000 OA
BRANCH  27  29
ATOM     28  C   UNL     1      -0.908  10.764  23.063  0.00  0.00    +0.000 C 
ATOM     29  C   UNL     1      -0.166   9.511  23.497  0.00  0.00    +0.000 C 
ENDBRANCH  27  29
ENDBRANCH  25  27
ENDBRANCH   1  25
TORSDOF 6
ENDMDL
MODEL 2
REMARK VINA RESULT:      -6.8      0.904      1.195
REMARK  Name = 
REMARK  7 active torsions:
REMARK  status: ('A' for Active; 'I' for Inactive)
REMARK    1  A    between atoms: C_1  and  C_2
REMARK    2  A    between atoms: C_2  and  O_3
REMARK    3  A    between atoms: O_3  and  C_4
REMARK    4  A    between atoms: C_4  and  C_6
REMARK    5  A    between atoms: C_6  and  C_21
REMARK    6  A    between atoms: C_14  and  S_15
REMARK    7  A    between atoms: S_15  and  N_16
REMARK                            x       y       z     vdW  Elec       q    Type
REMARK                         _______ _______ _______ _____ _____    ______ ____
ROOT
ATOM      1  C   UNL     1       0.938   9.169  20.116  0.00  0.00    +0.000 C 
ATOM      2  C   UNL     1       1.703   8.425  19.278  0.00  0.00    +0.000 C 
ATOM      3  C   UNL     1       2.332   8.988  18.005  0.00  0.00    +0.000 C 
ATOM      4  O   UNL     1       2.293  10.112  17.541  0.00  0.00    +0.000 OA
ATOM      5  N   UNL     1       3.044   7.952  17.442  0.00  0.00    +0.000 N 
ATOM      6  C   UNL     1       2.966   6.806  18.204  0.00  0.00    +0.000 A 
ATOM      7  C   UNL     1       3.610   5.619  17.907  0.00  0.00    +0.000 A 
ATOM      8  C   UNL     1       3.425   4.562  18.783  0.00  0.00    +0.000 A 
ATOM      9  C   UNL     1       2.558   4.710  19.873  0.00  0.00    +0.000 A 
ATOM     10  C   UNL     1       1.895   5.912  20.135  0.00  0.00    +0.000 A 
ATOM     11  C   UNL     1       2.140   7.002  19.322  0.00  0.00    +0.000 A 
ATOM     12  H   UNL     1       3.560   8.060  16.580  0.00  0.00    +0.000 HD
ENDROOT
BRANCH   1  13
ATOM     13  C   UNL     1       0.564  10.498  19.769  0.00  0.00    +0.000 A 
ATOM     14  C   UNL     1       1.043  11.738  20.145  0.00  0.00    +0.000 A 
ATOM     15  C   UNL     1       0.216  12.719  19.554  0.00  0.00    +0.000 A 
ATOM     16  C   UNL     1      -0.716  12.057  18.786  0.00  0.00    +0.000 A 
ATOM     17  N   UNL     1      -0.483  10.711  18.900  0.00  0.00    +0.000 N 
ATOM     18  H   UNL     1      -1.040   9.990  18.460  0.00  0.00    +0.000 HD
ENDBRANCH   1  13
BRANCH   9  19
ATOM     19  S   UNL     1       2.282   3.320  20.925  0.00  0.00    +0.000 S 
ATOM     20  O   UNL     1       2.355   3.757  22.290  0.00  0.00    +0.000 OA
ATOM     21  O   UNL     1       1.168   2.551  20.401  0.00  0.00    +0.000 OA
BRANCH  19  22
ATOM     22  N   UNL     1       3.658   2.429  20.591  0.00  0.00    +0.000 NA
ATOM     23  H   UNL     1       4.471   3.024  20.452  0.00  0.00    +0.000 HD
ATOM     24  H   UNL     1       3.768   1.635  21.217  0.00  0.00    +0.000 HD
ENDBRANCH  19  22
ENDBRANCH   9  19
BRANCH   1  25
ATOM     25  C   UNL     1       0.340   8.584  21.370  0.00  0.00    +0.000 C 
ATOM     26  O   UNL     1      -0.555   7.776  21.409  0.00  0.00    +0.000 OA
BRANCH  25  27
ATOM     27  O   UNL     1       0.896   9.142  22.481  0.00  0.00    +0.000 OA
BRANCH  27  29
ATOM     28  C   UNL     1      -0.848  10.688  23.072  0.00  0.00    +0.000 C 
ATOM     29  C   UNL     1      -0.064   9.461  23.507  0.00  0.00    +0.000 C 
ENDBRANCH  27  29
ENDBRANCH  25  27
ENDBRANCH   1  25
TORSDOF 6
ENDMDL
MODEL 3
REMARK VINA RESULT:      -6.4      2.552      6.159
REMARK  Name = 
REMARK  7 active torsions:
REMARK  status: ('A' for Active; 'I' for Inactive)
REMARK    1  A    between atoms: C_1  and  C_2
REMARK    2  A    between atoms: C_2  and  O_3
REMARK    3  A    between atoms: O_3  and  C_4
REMARK    4  A    between atoms: C_4  and  C_6
REMARK    5  A    between atoms: C_6  and  C_21
REMARK    6  A    between atoms: C_14  and  S_15
REMARK    7  A    between atoms: S_15  and  N_16
REMARK                            x       y       z     vdW  Elec       q    Type
REMARK                         _______ _______ _______ _____ _____    ______ ____
ROOT
ATOM      1  C   UNL     1       2.630   5.861  19.177  0.00  0.00    +0.000 C 
ATOM      2  C   UNL     1       2.456   7.178  18.903  0.00  0.00    +0.000 C 
ATOM      3  C   UNL     1       2.980   7.839  17.629  0.00  0.00    +0.000 C 
ATOM      4  O   UNL     1       3.582   7.360  16.687  0.00  0.00    +0.000 OA
ATOM      5  N   UNL     1       2.593   9.159  17.699  0.00  0.00    +0.000 N 
ATOM      6  C   UNL     1       1.873   9.420  18.844  0.00  0.00    +0.000 A 
ATOM      7  C   UNL     1       1.324  10.647  19.166  0.00  0.00    +0.000 A 
ATOM      8  C   UNL     1       0.625  10.737  20.359  0.00  0.00    +0.000 A 
ATOM      9  C   UNL     1       0.563   9.625  21.209  0.00  0.00    +0.000 A 
ATOM     10  C   UNL     1       1.152   8.402  20.874  0.00  0.00    +0.000 A 
ATOM     11  C   UNL     1       1.774   8.273  19.647  0.00  0.00    +0.000 A 
ATOM     12  H   UNL     1       2.818   9.824  16.973  0.00  0.00    +0.000 HD
ENDROOT
BRANCH   1  13
ATOM     13  C   UNL     1       3.444   5.047  18.340  0.00  0.00    +0.000 A 
ATOM     14  C   UNL     1       3.151   4.106  17.372  0.00  0.00    +0.000 A 
ATOM     15  C   UNL     1       4.370   3.541  16.935  0.00  0.00    +0.000 A 
ATOM     16  C   UNL     1       5.383   4.189  17.605  0.00  0.00    +0.000 A 
ATOM     17  N   UNL     1       4.816   5.120  18.437  0.00  0.00    +0.000 N 
ATOM     18  H   UNL     1       5.331   5.719  19.068  0.00  0.00    +0.000 HD
ENDBRANCH   1  13
BRANCH   9  19
ATOM     19  S   UNL     1      -0.266   9.794  22.758  0.00  0.00    +0.000 S 
ATOM     20  O   UNL     1       0.712   9.747  23.807  0.00  0.00    +0.000 OA
ATOM     21  O   UNL     1      -1.253  10.852  22.646  0.00  0.00    +0.000 OA
BRANCH  19  22
ATOM     22  N   UNL     1      -1.124   8.360  22.784  0.00  0.00    +0.000 NA
ATOM     23  H   UNL     1      -1.080   7.874  21.891  0.00  0.00    +0.000 HD
ATOM     24  H   UNL     1      -0.936   7.809  23.619  0.00  0.00    +0.000 HD
ENDBRANCH  19  22
ENDBRANCH   9  19
BRANCH   1  25
ATOM     25  C   UNL     1       2.091   5.238  20.440  0.00  0.00    +0.000 C 
ATOM     26  O   UNL     1       2.628   5.267  21.520  0.00  0.00    +0.000 OA
BRANCH  25  27
ATOM     27  O   UNL     1       0.934   4.563  20.196  0.00  0.00    +0.000 OA
BRANCH  27  29
ATOM     28  C   UNL     1       0.650   2.439  19.105  0.00  0.00    +0.000 C 
ATOM     29  C   UNL     1       1.044   3.140  20.395  0.00  0.00    +0.000 C 
ENDBRANCH  27  29
ENDBRANCH  25  27
ENDBRANCH   1  25
TORSDOF 6
ENDMDL
MODEL 4
REMARK VINA RESULT:      -6.3      5.211      8.065
REMARK  Name = 
REMARK  7 active torsions:
REMARK  status: ('A' for Active; 'I' for Inactive)
REMARK    1  A    between atoms: C_1  and  C_2
REMARK    2  A    between atoms: C_2  and  O_3
REMARK    3  A    between atoms: O_3  and  C_4
REMARK    4  A    between atoms: C_4  and  C_6
REMARK    5  A    between atoms: C_6  and  C_21
REMARK    6  A    between atoms: C_14  and  S_15
REMARK    7  A    between atoms: S_15  and  N_16
REMARK                            x       y       z     vdW  Elec       q    Type
REMARK                         _______ _______ _______ _____ _____    ______ ____
ROOT
ATOM      1  C   UNL     1      -0.967  12.372  20.753  0.00  0.00    +0.000 C 
ATOM      2  C   UNL     1      -2.201  12.358  20.189  0.00  0.00    +0.000 C 
ATOM      3  C   UNL     1      -2.428  12.203  18.686  0.00  0.00    +0.000 C 
ATOM      4  O   UNL     1      -1.627  12.055  17.783  0.00  0.00    +0.000 OA
ATOM      5  N   UNL     1      -3.794  12.212  18.505  0.00  0.00    +0.000 N 
ATOM      6  C   UNL     1      -4.466  12.333  19.702  0.00  0.00    +0.000 A 
ATOM      7  C   UNL     1      -5.842  12.334  19.834  0.00  0.00    +0.000 A 
ATOM      8  C   UNL     1      -6.356  12.463  21.114  0.00  0.00    +0.000 A 
ATOM      9  C   UNL     1      -5.484  12.655  22.194  0.00  0.00    +0.000 A 
ATOM     10  C   UNL     1      -4.096  12.680  22.030  0.00  0.00    +0.000 A 
ATOM     11  C   UNL     1      -3.567  12.462  20.773  0.00  0.00    +0.000 A 
ATOM     12  H   UNL     1      -4.215  12.125  17.592  0.00  0.00    +0.000 HD
ENDROOT
BRANCH   1  13
ATOM     13  C   UNL     1       0.202  12.382  19.939  0.00  0.00    +0.000 A 
ATOM     14  C   UNL     1       0.973  13.400  19.413  0.00  0.00    +0.000 A 
ATOM     15  C   UNL     1       1.964  12.814  18.595  0.00  0.00    +0.000 A 
ATOM     16  C   UNL     1       1.811  11.448  18.684  0.00  0.00    +0.000 A 
ATOM     17  N   UNL     1       0.757  11.192  19.522  0.00  0.00    +0.000 N 
ATOM     18  H   UNL     1       0.407  10.269  19.744  0.00  0.00    +0.000 HD
ENDBRANCH   1  13
BRANCH   9  19
ATOM     19  S   UNL     1      -6.173  12.896  23.801  0.00  0.00    +0.000 S 
ATOM     20  O   UNL     1      -6.330  14.305  24.024  0.00  0.00    +0.000 OA
ATOM     21  O   UNL     1      -7.249  11.942  23.996  0.00  0.00    +0.000 OA
BRANCH  19  22
ATOM     22  N   UNL     1      -4.901  12.360  24.743  0.00  0.00    +0.000 NA
ATOM     23  H   UNL     1      -4.327  13.129  25.081  0.00  0.00    +0.000 HD
ATOM     24  H   UNL     1      -5.190  11.664  25.428  0.00  0.00    +0.000 HD
ENDBRANCH  19  22
ENDBRANCH   9  19
BRANCH   1  25
ATOM     25  C   UNL     1      -0.778  12.518  22.241  0.00  0.00    +0.000 C 
ATOM     26  O   UNL     1      -1.115  13.471  22.900  0.00  0.00    +0.000 OA
BRANCH  25  27
ATOM     27  O   UNL     1      -0.103  11.451  22.754  0.00  0.00    +0.000 OA
BRANCH  27  29
ATOM     28  C   UNL     1      -0.480   9.095  22.463  0.00  0.00    +0.000 C 
ATOM     29  C   UNL     1      -0.961  10.363  23.148  0.00  0.00    +0.000 C 
ENDBRANCH  27  29
ENDBRANCH  25  27
ENDBRANCH   1  25
TORSDOF 6
ENDMDL
MODEL 5
REMARK VINA RESULT:      -6.1      6.898      9.207
REMARK  Name = 
REMARK  7 active torsions:
REMARK  status: ('A' for Active; 'I' for Inactive)
REMARK    1  A    between atoms: C_1  and  C_2
REMARK    2  A    between atoms: C_2  and  O_3
REMARK    3  A    between atoms: O_3  and  C_4
REMARK    4  A    between atoms: C_4  and  C_6
REMARK    5  A    between atoms: C_6  and  C_21
REMARK    6  A    between atoms: C_14  and  S_15
REMARK    7  A    between atoms: S_15  and  N_16
REMARK                            x       y       z     vdW  Elec       q    Type
REMARK                         _______ _______ _______ _____ _____    ______ ____
ROOT
ATOM      1  C   UNL     1      -4.508  11.395  18.248  0.00  0.00    +0.000 C 
ATOM      2  C   UNL     1      -3.782  12.052  19.188  0.00  0.00    +0.000 C 
ATOM      3  C   UNL     1      -2.292  12.350  19.030  0.00  0.00    +0.000 C 
ATOM      4  O   UNL     1      -1.535  12.101  18.111  0.00  0.00    +0.000 OA
ATOM      5  N   UNL     1      -1.921  13.042  20.162  0.00  0.00    +0.000 N 
ATOM      6  C   UNL     1      -2.988  13.239  21.012  0.00  0.00    +0.000 A 
ATOM      7  C   UNL     1      -2.923  13.933  22.206  0.00  0.00    +0.000 A 
ATOM      8  C   UNL     1      -4.093  14.041  22.941  0.00  0.00    +0.000 A 
ATOM      9  C   UNL     1      -5.253  13.397  22.491  0.00  0.00    +0.000 A 
ATOM     10  C   UNL     1      -5.285  12.677  21.294  0.00  0.00    +0.000 A 
ATOM     11  C   UNL     1      -4.150  12.637  20.507  0.00  0.00    +0.000 A 
ATOM     12  H   UNL     1      -0.974  13.361  20.311  0.00  0.00    +0.000 HD
ENDROOT
BRANCH   1  13
ATOM     13  C   UNL     1      -3.872  10.820  17.111  0.00  0.00    +0.000 A 
ATOM     14  C   UNL     1      -3.275   9.595  16.887  0.00  0.00    +0.000 A 
ATOM     15  C   UNL     1      -2.721   9.615  15.587  0.00  0.00    +0.000 A 
ATOM     16  C   UNL     1      -3.041  10.831  15.027  0.00  0.00    +0.000 A 
ATOM     17  N   UNL     1      -3.762  11.548  15.947  0.00  0.00    +0.000 N 
ATOM     18  H   UNL     1      -4.101  12.491  15.806  0.00  0.00    +0.000 HD
ENDBRANCH   1  13
BRANCH   9  19
ATOM     19  S   UNL     1      -6.706  13.487  23.489  0.00  0.00    +0.000 S 
ATOM     20  O   UNL     1      -6.765  14.786  24.097  0.00  0.00    +0.000 OA
ATOM     21  O   UNL     1      -7.815  12.909  22.753  0.00  0.00    +0.000 OA
BRANCH  19  22
ATOM     22  N   UNL     1      -6.309  12.377  24.675  0.00  0.00    +0.000 NA
ATOM     23  H   UNL     1      -5.480  11.841  24.432  0.00  0.00    +0.000 HD
ATOM     24  H   UNL     1      -6.342  12.778  25.610  0.00  0.00    +0.000 HD
ENDBRANCH  19  22
ENDBRANCH   9  19
BRANCH   1  25
ATOM     25  C   UNL     1      -5.979  11.125  18.432  0.00  0.00    +0.000 C 
ATOM     26  O   UNL     1      -6.873  11.877  18.132  0.00  0.00    +0.000 OA
BRANCH  25  27
ATOM     27  O   UNL     1      -6.182   9.930  19.055  0.00  0.00    +0.000 OA
BRANCH  27  29
ATOM     28  C   UNL     1      -7.550   8.526  20.447  0.00  0.00    +0.000 C 
ATOM     29  C   UNL     1      -7.268   9.951  20.001  0.00  0.00    +0.000 C 
ENDBRANCH  27  29
ENDBRANCH  25  27
ENDBRANCH   1  25
TORSDOF 6
ENDMDL
MODEL 6
REMARK VINA RESULT:      -6.0      6.822      9.354
REMARK  Name = 
REMARK  7 active torsions:
REMARK  status: ('A' for Active; 'I' for Inactive)
REMARK    1  A    between atoms: C_1  and  C_2
REMARK    2  A    between atoms: C_2  and  O_3
REMARK    3  A    between atoms: O_3  and  C_4
REMARK    4  A    between atoms: C_4  and  C_6
REMARK    5  A    between atoms: C_6  and  C_21
REMARK    6  A    between atoms: C_14  and  S_15
REMARK    7  A    between atoms: S_15  and  N_16
REMARK                            x       y       z     vdW  Elec       q    Type
REMARK                         _______ _______ _______ _____ _____    ______ ____
ROOT
ATOM      1  C   UNL     1      -4.487  11.458  18.346  0.00  0.00    +0.000 C 
ATOM      2  C   UNL     1      -3.769  12.067  19.324  0.00  0.00    +0.000 C 
ATOM      3  C   UNL     1      -2.262  12.295  19.231  0.00  0.00    +0.000 C 
ATOM      4  O   UNL     1      -1.480  12.021  18.339  0.00  0.00    +0.000 OA
ATOM      5  N   UNL     1      -1.904  12.953  20.387  0.00  0.00    +0.000 N 
ATOM      6  C   UNL     1      -2.995  13.190  21.196  0.00  0.00    +0.000 A 
ATOM      7  C   UNL     1      -2.946  13.864  22.402  0.00  0.00    +0.000 A 
ATOM      8  C   UNL     1      -4.139  14.018  23.091  0.00  0.00    +0.000 A 
ATOM      9  C   UNL     1      -5.309  13.438  22.585  0.00  0.00    +0.000 A 
ATOM     10  C   UNL     1      -5.326  12.735  21.377  0.00  0.00    +0.000 A 
ATOM     11  C   UNL     1      -4.163  12.651  20.635  0.00  0.00    +0.000 A 
ATOM     12  H   UNL     1      -0.951  13.223  20.579  0.00  0.00    +0.000 HD
ENDROOT
BRANCH   1  13
ATOM     13  C   UNL     1      -3.833  10.869  17.227  0.00  0.00    +0.000 A 
ATOM     14  C   UNL     1      -3.207   9.652  17.037  0.00  0.00    +0.000 A 
ATOM     15  C   UNL     1      -2.648   9.651  15.739  0.00  0.00    +0.000 A 
ATOM     16  C   UNL     1      -2.994  10.844  15.146  0.00  0.00    +0.000 A 
ATOM     17  N   UNL     1      -3.735  11.568  16.044  0.00  0.00    +0.000 N 
ATOM     18  H   UNL     1      -4.095  12.498  15.877  0.00  0.00    +0.000 HD
ENDBRANCH   1  13
BRANCH   9  19
ATOM     19  S   UNL     1      -6.796  13.584  23.525  0.00  0.00    +0.000 S 
ATOM     20  O   UNL     1      -6.996  12.366  24.256  0.00  0.00    +0.000 OA
ATOM     21  O   UNL     1      -6.826  14.893  24.150  0.00  0.00    +0.000 OA
BRANCH  19  22
ATOM     22  N   UNL     1      -7.916  13.636  22.286  0.00  0.00    +0.000 NA
ATOM     23  H   UNL     1      -8.701  13.012  22.457  0.00  0.00    +0.000 HD
ATOM     24  H   UNL     1      -8.136  14.588  22.000  0.00  0.00    +0.000 HD
ENDBRANCH  19  22
ENDBRANCH   9  19
BRANCH   1  25
ATOM     25  C   UNL     1      -5.976  11.257  18.466  0.00  0.00    +0.000 C 
ATOM     26  O   UNL     1      -6.518  10.430  19.156  0.00  0.00    +0.000 OA
BRANCH  25  27
ATOM     27  O   UNL     1      -6.650  12.094  17.629  0.00  0.00    +0.000 OA
BRANCH  27  29
ATOM     28  C   UNL     1      -6.833  14.393  18.309  0.00  0.00    +0.000 C 
ATOM     29  C   UNL     1      -7.504  13.029  18.314  0.00  0.00    +0.000 C 
ENDBRANCH  27  29
ENDBRANCH  25  27
ENDBRANCH   1  25
TORSDOF 6
ENDMDL
MODEL 7
REMARK VINA RESULT:      -6.0      2.901      7.336
REMARK  Name = 
REMARK  7 active torsions:
REMARK  status: ('A' for Active; 'I' for Inactive)
REMARK    1  A    between atoms: C_1  and  C_2
REMARK    2  A    between atoms: C_2  and  O_3
REMARK    3  A    between atoms: O_3  and  C_4
REMARK    4  A    between atoms: C_4  and  C_6
REMARK    5  A    between atoms: C_6  and  C_21
REMARK    6  A    between atoms: C_14  and  S_15
REMARK    7  A    between atoms: S_15  and  N_16
REMARK                            x       y       z     vdW  Elec       q    Type
REMARK                         _______ _______ _______ _____ _____    ______ ____
ROOT
ATOM      1  C   UNL     1       3.124   6.428  18.560  0.00  0.00    +0.000 C 
ATOM      2  C   UNL     1       2.323   6.943  19.527  0.00  0.00    +0.000 C 
ATOM      3  C   UNL     1       1.768   6.108  20.680  0.00  0.00    +0.000 C 
ATOM      4  O   UNL     1       1.932   4.933  20.947  0.00  0.00    +0.000 OA
ATOM      5  N   UNL     1       1.031   6.975  21.456  0.00  0.00    +0.000 N 
ATOM      6  C   UNL     1       1.061   8.259  20.956  0.00  0.00    +0.000 A 
ATOM      7  C   UNL     1       0.443   9.346  21.546  0.00  0.00    +0.000 A 
ATOM      8  C   UNL     1       0.576  10.571  20.912  0.00  0.00    +0.000 A 
ATOM      9  C   UNL     1       1.255  10.647  19.689  0.00  0.00    +0.000 A 
ATOM     10  C   UNL     1       1.846   9.526  19.098  0.00  0.00    +0.000 A 
ATOM     11  C   UNL     1       1.800   8.317  19.764  0.00  0.00    +0.000 A 
ATOM     12  H   UNL     1       0.549   6.672  22.290  0.00  0.00    +0.000 HD
ENDROOT
BRANCH   1  13
ATOM     13  C   UNL     1       3.376   5.028  18.496  0.00  0.00    +0.000 A 
ATOM     14  C   UNL     1       2.767   3.994  17.813  0.00  0.00    +0.000 A 
ATOM     15  C   UNL     1       3.387   2.788  18.211  0.00  0.00    +0.000 A 
ATOM     16  C   UNL     1       4.397   3.119  19.085  0.00  0.00    +0.000 A 
ATOM     17  N   UNL     1       4.402   4.482  19.234  0.00  0.00    +0.000 N 
ATOM     18  H   UNL     1       5.027   4.993  19.844  0.00  0.00    +0.000 HD
ENDBRANCH   1  13
BRANCH   9  19
ATOM     19  S   UNL     1       1.338  12.207  18.867  0.00  0.00    +0.000 S 
ATOM     20  O   UNL     1       0.037  12.521  18.350  0.00  0.00    +0.000 OA
ATOM     21  O   UNL     1       2.105  13.127  19.686  0.00  0.00    +0.000 OA
BRANCH  19  22
ATOM     22  N   UNL     1       2.324  11.801  17.579  0.00  0.00    +0.000 NA
ATOM     23  H   UNL     1       2.599  10.823  17.604  0.00  0.00    +0.000 HD
ATOM     24  H   UNL     1       1.974  12.160  16.693  0.00  0.00    +0.000 HD
ENDBRANCH  19  22
ENDBRANCH   9  19
BRANCH   1  25
ATOM     25  C   UNL     1       3.663   7.282  17.441  0.00  0.00    +0.000 C 
ATOM     26  O   UNL     1       3.035   8.107  16.824  0.00  0.00    +0.000 OA
BRANCH  25  27
ATOM     27  O   UNL     1       4.954   6.955  17.156  0.00  0.00    +0.000 OA
BRANCH  27  29
ATOM     28  C   UNL     1       5.774   5.181  15.756  0.00  0.00    +0.000 C 
ATOM     29  C   UNL     1       5.162   6.572  15.783  0.00  0.00    +0.000 C 
ENDBRANCH  27  29
ENDBRANCH  25  27
ENDBRANCH   1  25
TORSDOF 6
ENDMDL
MODEL 8
REMARK VINA RESULT:      -6.0      5.542      8.914
REMARK  Name = 
REMARK  7 active torsions:
REMARK  status: ('A' for Active; 'I' for Inactive)
REMARK    1  A    between atoms: C_1  and  C_2
REMARK    2  A    between atoms: C_2  and  O_3
REMARK    3  A    between atoms: O_3  and  C_4
REMARK    4  A    between atoms: C_4  and  C_6
REMARK    5  A    between atoms: C_6  and  C_21
REMARK    6  A    between atoms: C_14  and  S_15
REMARK    7  A    between atoms: S_15  and  N_16
REMARK                            x       y       z     vdW  Elec       q    Type
REMARK                         _______ _______ _______ _____ _____    ______ ____
ROOT
ATOM      1  C   UNL     1      -2.772  11.681  18.657  0.00  0.00    +0.000 C 
ATOM      2  C   UNL     1      -3.867  12.021  19.383  0.00  0.00    +0.000 C 
ATOM      3  C   UNL     1      -5.286  11.617  18.988  0.00  0.00    +0.000 C 
ATOM      4  O   UNL     1      -5.680  10.955  18.046  0.00  0.00    +0.000 OA
ATOM      5  N   UNL     1      -6.112  12.120  19.969  0.00  0.00    +0.000 N 
ATOM      6  C   UNL     1      -5.399  12.777  20.949  0.00  0.00    +0.000 A 
ATOM      7  C   UNL     1      -5.957  13.351  22.076  0.00  0.00    +0.000 A 
ATOM      8  C   UNL     1      -5.094  13.972  22.964  0.00  0.00    +0.000 A 
ATOM      9  C   UNL     1      -3.729  14.054  22.659  0.00  0.00    +0.000 A 
ATOM     10  C   UNL     1      -3.193  13.491  21.498  0.00  0.00    +0.000 A 
ATOM     11  C   UNL     1      -4.028  12.790  20.648  0.00  0.00    +0.000 A 
ATOM     12  H   UNL     1      -7.113  11.993  19.946  0.00  0.00    +0.000 HD
ENDROOT
BRANCH   1  13
ATOM     13  C   UNL     1      -2.910  11.035  17.396  0.00  0.00    +0.000 A 
ATOM     14  C   UNL     1      -2.691   9.738  16.974  0.00  0.00    +0.000 A 
ATOM     15  C   UNL     1      -2.903   9.695  15.578  0.00  0.00    +0.000 A 
ATOM     16  C   UNL     1      -3.301  10.954  15.187  0.00  0.00    +0.000 A 
ATOM     17  N   UNL     1      -3.329  11.756  16.299  0.00  0.00    +0.000 N 
ATOM     18  H   UNL     1      -3.561  12.741  16.294  0.00  0.00    +0.000 HD
ENDBRANCH   1  13
BRANCH   9  19
ATOM     19  S   UNL     1      -2.668  14.921  23.772  0.00  0.00    +0.000 S 
ATOM     20  O   UNL     1      -1.435  14.196  23.888  0.00  0.00    +0.000 OA
ATOM     21  O   UNL     1      -2.724  16.338  23.463  0.00  0.00    +0.000 OA
BRANCH  19  22
ATOM     22  N   UNL     1      -3.522  14.724  25.196  0.00  0.00    +0.000 NA
ATOM     23  H   UNL     1      -4.163  13.936  25.148  0.00  0.00    +0.000 HD
ATOM     24  H   UNL     1      -2.926  14.786  26.019  0.00  0.00    +0.000 HD
ENDBRANCH  19  22
ENDBRANCH   9  19
BRANCH   1  25
ATOM     25  C   UNL     1      -1.384  12.088  19.080  0.00  0.00    +0.000 C 
ATOM     26  O   UNL     1      -0.833  13.118  18.778  0.00  0.00    +0.000 OA
BRANCH  25  27
ATOM     27  O   UNL     1      -0.786  11.102  19.805  0.00  0.00    +0.000 OA
BRANCH  27  29
ATOM     28  C   UNL     1       0.741   9.912  18.380  0.00  0.00    +0.000 C 
ATOM     29  C   UNL     1       0.612  10.930  19.500  0.00  0.00    +0.000 C 
ENDBRANCH  27  29
ENDBRANCH  25  27
ENDBRANCH   1  25
TORSDOF 6
ENDMDL
MODEL 9
REMARK VINA RESULT:      -6.0      6.352      9.275
REMARK  Name = 
REMARK  7 active torsions:
REMARK  status: ('A' for Active; 'I' for Inactive)
REMARK    1  A    between atoms: C_1  and  C_2
REMARK    2  A    between atoms: C_2  and  O_3
REMARK    3  A    between atoms: O_3  and  C_4
REMARK    4  A    between atoms: C_4  and  C_6
REMARK    5  A    between atoms: C_6  and  C_21
REMARK    6  A    between atoms: C_14  and  S_15
REMARK    7  A    between atoms: S_15  and  N_16
REMARK                            x       y       z     vdW  Elec       q    Type
REMARK                         _______ _______ _______ _____ _____    ______ ____
ROOT
ATOM      1  C   UNL     1      -3.078  11.867  19.077  0.00  0.00    +0.000 C 
ATOM      2  C   UNL     1      -4.290  12.182  19.600  0.00  0.00    +0.000 C 
ATOM      3  C   UNL     1      -5.607  11.690  19.002  0.00  0.00    +0.000 C 
ATOM      4  O   UNL     1      -5.813  10.972  18.042  0.00  0.00    +0.000 OA
ATOM      5  N   UNL     1      -6.603  12.192  19.811  0.00  0.00    +0.000 N 
ATOM      6  C   UNL     1      -6.088  12.923  20.859  0.00  0.00    +0.000 A 
ATOM      7  C   UNL     1      -6.847  13.515  21.852  0.00  0.00    +0.000 A 
ATOM      8  C   UNL     1      -6.168  14.214  22.837  0.00  0.00    +0.000 A 
ATOM      9  C   UNL     1      -4.776  14.352  22.752  0.00  0.00    +0.000 A 
ATOM     10  C   UNL     1      -4.035  13.769  21.721  0.00  0.00    +0.000 A 
ATOM     11  C   UNL     1      -4.688  12.993  20.783  0.00  0.00    +0.000 A 
ATOM     12  H   UNL     1      -7.581  12.013  19.633  0.00  0.00    +0.000 HD
ENDROOT
BRANCH   1  13
ATOM     13  C   UNL     1      -2.981  11.164  17.843  0.00  0.00    +0.000 A 
ATOM     14  C   UNL     1      -2.666   9.857  17.528  0.00  0.00    +0.000 A 
ATOM     15  C   UNL     1      -2.629   9.747  16.120  0.00  0.00    +0.000 A 
ATOM     16  C   UNL     1      -2.976  10.977  15.607  0.00  0.00    +0.000 A 
ATOM     17  N   UNL     1      -3.214  11.825  16.658  0.00  0.00    +0.000 N 
ATOM     18  H   UNL     1      -3.460  12.803  16.565  0.00  0.00    +0.000 HD
ENDBRANCH   1  13
BRANCH   9  19
ATOM     19  S   UNL     1      -3.950  15.317  23.978  0.00  0.00    +0.000 S 
ATOM     20  O   UNL     1      -2.682  15.736  23.453  0.00  0.00    +0.000 OA
ATOM     21  O   UNL     1      -4.903  16.239  24.568  0.00  0.00    +0.000 OA
BRANCH  19  22
ATOM     22  N   UNL     1      -3.670  14.139  25.131  0.00  0.00    +0.000 NA
ATOM     23  H   UNL     1      -3.762  14.502  26.076  0.00  0.00    +0.000 HD
ATOM     24  H   UNL     1      -4.153  13.268  24.922  0.00  0.00    +0.000 HD
ENDBRANCH  19  22
ENDBRANCH   9  19
BRANCH   1  25
ATOM     25  C   UNL     1      -1.797  12.361  19.698  0.00  0.00    +0.000 C 
ATOM     26  O   UNL     1      -1.261  13.415  19.457  0.00  0.00    +0.000 OA
BRANCH  25  27
ATOM     27  O   UNL     1      -1.266  11.424  20.532  0.00  0.00    +0.000 OA
BRANCH  27  29
ATOM     28  C   UNL     1      -1.417  11.457  22.931  0.00  0.00    +0.000 C 
ATOM     29  C   UNL     1      -0.667  11.981  21.718  0.00  0.00    +0.000 C 
ENDBRANCH  27  29
ENDBRANCH  25  27
ENDBRANCH   1  25
TORSDOF 6
ENDMDL
