MODEL 1
REMARK VINA RESULT:      -7.9      0.000      0.000
REMARK  Name = 
REMARK  8 active torsions:
REMARK  status: ('A' for Active; 'I' for Inactive)
REMARK    1  A    between atoms: N_12  and  C_13
REMARK    2  A    between atoms: C_13  and  C_14
REMARK    3  A    between atoms: C_14  and  C_15
REMARK    4  A    between atoms: C_15  and  N_16
REMARK    5  A    between atoms: N_19  and  C_20
REMARK    6  A    between atoms: C_25  and  O_26
REMARK    7  A    between atoms: O_26  and  C_27
REMARK    8  A    between atoms: C_27  and  C_28
REMARK                            x       y       z     vdW  Elec       q    Type
REMARK                         _______ _______ _______ _____ _____    ______ ____
ROOT
ATOM      1  N   UNL     1       1.351   9.556  19.673  0.00  0.00    +0.000 NA
ATOM      2  C   UNL     1       1.776   8.470  20.581  0.00  0.00    +0.000 C 
ATOM      3  C   UNL     1       1.598   7.045  20.013  0.00  0.00    +0.000 C 
ATOM      4  N   UNL     1       2.373   6.889  18.761  0.00  0.00    +0.000 N 
ATOM      5  C   UNL     1       2.022   7.910  17.752  0.00  0.00    +0.000 C 
ATOM      6  C   UNL     1       2.044   9.347  18.371  0.00  0.00    +0.000 C 
ENDROOT
BRANCH   4   7
ATOM      7  C   UNL     1       2.789   5.603  18.365  0.00  0.00    +0.000 A 
ATOM      8  C   UNL     1       1.838   4.686  17.848  0.00  0.00    +0.000 A 
ATOM      9  C   UNL     1       2.137   3.347  17.571  0.00  0.00    +0.000 A 
ATOM     10  C   UNL     1       3.406   2.863  17.817  0.00  0.00    +0.000 A 
ATOM     11  C   UNL     1       4.377   3.730  18.303  0.00  0.00    +0.000 A 
ATOM     12  C   UNL     1       4.106   5.098  18.539  0.00  0.00    +0.000 A 
BRANCH  12  13
ATOM     13  O   UNL     1       5.100   5.949  18.985  0.00  0.00    +0.000 OA
BRANCH  13  14
ATOM     14  C   UNL     1       6.362   5.330  19.298  0.00  0.00    +0.000 C 
BRANCH  14  15
ATOM     15  C   UNL     1       7.490   5.714  18.352  0.00  0.00    +0.000 C 
ATOM     16  F   UNL     1       8.405   6.529  18.915  0.00  0.00    +0.000 F 
ATOM     17  F   UNL     1       8.142   4.605  17.923  0.00  0.00    +0.000 F 
ATOM     18  F   UNL     1       7.005   6.333  17.250  0.00  0.00    +0.000 F 
ENDBRANCH  14  15
ENDBRANCH  13  14
ENDBRANCH  12  13
ENDBRANCH   4   7
BRANCH   1  19
ATOM     19  C   UNL     1      -0.108   9.675  19.531  0.00  0.00    +0.000 C 
BRANCH  19  20
ATOM     20  C   UNL     1      -0.603  10.148  18.143  0.00  0.00    +0.000 C 
BRANCH  20  21
ATOM     21  C   UNL     1      -1.124  11.592  18.123  0.00  0.00    +0.000 C 
BRANCH  21  33
ATOM     22  O   UNL     1      -2.609  10.972  15.839  0.00  0.00    +0.000 OA
ATOM     23  C   UNL     1      -3.208  11.349  16.847  0.00  0.00    +0.000 A 
ATOM     24  N   UNL     1      -4.573  11.470  16.800  0.00  0.00    +0.000 N 
ATOM     25  C   UNL     1      -5.348  11.914  17.867  0.00  0.00    +0.000 A 
ATOM     26  C   UNL     1      -6.726  12.093  17.712  0.00  0.00    +0.000 A 
ATOM     27  C   UNL     1      -7.487  12.576  18.781  0.00  0.00    +0.000 A 
ATOM     28  C   UNL     1      -6.876  12.867  20.001  0.00  0.00    +0.000 A 
ATOM     29  C   UNL     1      -5.503  12.668  20.159  0.00  0.00    +0.000 A 
ATOM     30  C   UNL     1      -4.741  12.195  19.085  0.00  0.00    +0.000 A 
ATOM     31  C   UNL     1      -3.282  11.997  19.211  0.00  0.00    +0.000 A 
ATOM     32  O   UNL     1      -2.760  12.127  20.312  0.00  0.00    +0.000 OA
ATOM     33  N   UNL     1      -2.589  11.664  18.047  0.00  0.00    +0.000 N 
ATOM     34  H   UNL     1      -4.997  11.255  15.908  0.00  0.00    +0.000 HD
ENDBRANCH  21  33
ENDBRANCH  20  21
ENDBRANCH  19  20
ENDBRANCH   1  19
TORSDOF 8
ENDMDL
MODEL 2
REMARK VINA RESULT:      -7.9      3.207      4.342
REMARK  Name = 
REMARK  8 active torsions:
REMARK  status: ('A' for Active; 'I' for Inactive)
REMARK    1  A    between atoms: N_12  and  C_13
REMARK    2  A    between atoms: C_13  and  C_14
REMARK    3  A    between atoms: C_14  and  C_15
REMARK    4  A    between atoms: C_15  and  N_16
REMARK    5  A    between atoms: N_19  and  C_20
REMARK    6  A    between atoms: C_25  and  O_26
REMARK    7  A    between atoms: O_26  and  C_27
REMARK    8  A    between atoms: C_27  and  C_28
REMARK                            x       y       z     vdW  Elec       q    Type
REMARK                         _______ _______ _______ _____ _____    ______ ____
ROOT
ATOM      1  N   UNL     1      -0.667  10.030  20.997  0.00  0.00    +0.000 NA
ATOM      2  C   UNL     1      -0.395   9.930  19.548  0.00  0.00    +0.000 C 
ATOM      3  C   UNL     1       1.047   9.511  19.188  0.00  0.00    +0.000 C 
ATOM      4  N   UNL     1       1.363   8.190  19.778  0.00  0.00    +0.000 N 
ATOM      5  C   UNL     1       1.151   8.164  21.241  0.00  0.00    +0.000 C 
ATOM      6  C   UNL     1      -0.252   8.742  21.620  0.00  0.00    +0.000 C 
ENDROOT
BRANCH   4   7
ATOM      7  C   UNL     1       2.357   7.390  19.183  0.00  0.00    +0.000 A 
ATOM      8  C   UNL     1       3.131   7.910  18.116  0.00  0.00    +0.000 A 
ATOM      9  C   UNL     1       4.033   7.138  17.375  0.00  0.00    +0.000 A 
ATOM     10  C   UNL     1       4.186   5.797  17.665  0.00  0.00    +0.000 A 
ATOM     11  C   UNL     1       3.464   5.247  18.717  0.00  0.00    +0.000 A 
ATOM     12  C   UNL     1       2.588   6.026  19.509  0.00  0.00    +0.000 A 
BRANCH  12  13
ATOM     13  O   UNL     1       1.911   5.464  20.575  0.00  0.00    +0.000 OA
BRANCH  13  14
ATOM     14  C   UNL     1       1.122   4.298  20.272  0.00  0.00    +0.000 C 
BRANCH  14  15
ATOM     15  C   UNL     1       1.632   3.020  20.922  0.00  0.00    +0.000 C 
ATOM     16  F   UNL     1       1.537   1.938  20.122  0.00  0.00    +0.000 F 
ATOM     17  F   UNL     1       2.937   3.157  21.267  0.00  0.00    +0.000 F 
ATOM     18  F   UNL     1       0.952   2.754  22.062  0.00  0.00    +0.000 F 
ENDBRANCH  14  15
ENDBRANCH  13  14
ENDBRANCH  12  13
ENDBRANCH   4   7
BRANCH   1  19
ATOM     19  C   UNL     1      -0.049  11.201  21.638  0.00  0.00    +0.000 C 
BRANCH  19  20
ATOM     20  C   UNL     1      -0.885  11.860  22.761  0.00  0.00    +0.000 C 
BRANCH  20  21
ATOM     21  C   UNL     1      -1.609  13.143  22.331  0.00  0.00    +0.000 C 
BRANCH  21  33
ATOM     22  O   UNL     1      -3.837  13.092  24.015  0.00  0.00    +0.000 OA
ATOM     23  C   UNL     1      -4.002  12.873  22.815  0.00  0.00    +0.000 A 
ATOM     24  N   UNL     1      -5.263  12.591  22.359  0.00  0.00    +0.000 N 
ATOM     25  C   UNL     1      -5.560  12.299  21.031  0.00  0.00    +0.000 A 
ATOM     26  C   UNL     1      -6.859  11.936  20.661  0.00  0.00    +0.000 A 
ATOM     27  C   UNL     1      -7.135  11.608  19.330  0.00  0.00    +0.000 A 
ATOM     28  C   UNL     1      -6.121  11.654  18.373  0.00  0.00    +0.000 A 
ATOM     29  C   UNL     1      -4.830  12.035  18.742  0.00  0.00    +0.000 A 
ATOM     30  C   UNL     1      -4.553  12.353  20.076  0.00  0.00    +0.000 A 
ATOM     31  C   UNL     1      -3.191  12.737  20.504  0.00  0.00    +0.000 A 
ATOM     32  O   UNL     1      -2.328  12.904  19.651  0.00  0.00    +0.000 OA
ATOM     33  N   UNL     1      -2.983  12.892  21.875  0.00  0.00    +0.000 N 
ATOM     34  H   UNL     1      -5.984  12.561  23.067  0.00  0.00    +0.000 HD
ENDBRANCH  21  33
ENDBRANCH  20  21
ENDBRANCH  19  20
ENDBRANCH   1  19
TORSDOF 8
ENDMDL
MODEL 3
REMARK VINA RESULT:      -7.8      3.218      4.209
REMARK  Name = 
REMARK  8 active torsions:
REMARK  status: ('A' for Active; 'I' for Inactive)
REMARK    1  A    between atoms: N_12  and  C_13
REMARK    2  A    between atoms: C_13  and  C_14
REMARK    3  A    between atoms: C_14  and  C_15
REMARK    4  A    between atoms: C_15  and  N_16
REMARK    5  A    between atoms: N_19  and  C_20
REMARK    6  A    between atoms: C_25  and  O_26
REMARK    7  A    between atoms: O_26  and  C_27
REMARK    8  A    between atoms: C_27  and  C_28
REMARK                            x       y       z     vdW  Elec       q    Type
REMARK                         _______ _______ _______ _____ _____    ______ ____
ROOT
ATOM      1  N   UNL     1       0.966   9.913  19.726  0.00  0.00    +0.000 NA
ATOM      2  C   UNL     1       1.670   8.923  20.568  0.00  0.00    +0.000 C 
ATOM      3  C   UNL     1       1.764   7.507  19.960  0.00  0.00    +0.000 C 
ATOM      4  N   UNL     1       2.473   7.549  18.661  0.00  0.00    +0.000 N 
ATOM      5  C   UNL     1       1.847   8.494  17.711  0.00  0.00    +0.000 C 
ATOM      6  C   UNL     1       1.602   9.887  18.379  0.00  0.00    +0.000 C 
ENDROOT
BRANCH   4   7
ATOM      7  C   UNL     1       3.127   6.392  18.195  0.00  0.00    +0.000 A 
ATOM      8  C   UNL     1       4.339   6.515  17.470  0.00  0.00    +0.000 A 
ATOM      9  C   UNL     1       4.973   5.434  16.848  0.00  0.00    +0.000 A 
ATOM     10  C   UNL     1       4.406   4.178  16.913  0.00  0.00    +0.000 A 
ATOM     11  C   UNL     1       3.229   4.004  17.631  0.00  0.00    +0.000 A 
ATOM     12  C   UNL     1       2.604   5.076  18.309  0.00  0.00    +0.000 A 
BRANCH  12  13
ATOM     13  O   UNL     1       1.455   4.870  19.049  0.00  0.00    +0.000 OA
BRANCH  13  14
ATOM     14  C   UNL     1       1.331   3.575  19.669  0.00  0.00    +0.000 C 
BRANCH  14  15
ATOM     15  C   UNL     1       2.056   3.456  21.001  0.00  0.00    +0.000 C 
ATOM     16  F   UNL     1       3.255   2.847  20.905  0.00  0.00    +0.000 F 
ATOM     17  F   UNL     1       2.266   4.686  21.534  0.00  0.00    +0.000 F 
ATOM     18  F   UNL     1       1.309   2.766  21.896  0.00  0.00    +0.000 F 
ENDBRANCH  14  15
ENDBRANCH  13  14
ENDBRANCH  12  13
ENDBRANCH   4   7
BRANCH   1  19
ATOM     19  C   UNL     1      -0.491   9.718  19.674  0.00  0.00    +0.000 C 
BRANCH  19  20
ATOM     20  C   UNL     1      -1.304  10.930  19.157  0.00  0.00    +0.000 C 
BRANCH  20  21
ATOM     21  C   UNL     1      -1.048  12.230  19.931  0.00  0.00    +0.000 C 
BRANCH  21  33
ATOM     22  O   UNL     1      -0.103  11.833  22.530  0.00  0.00    +0.000 OA
ATOM     23  C   UNL     1      -1.294  12.102  22.372  0.00  0.00    +0.000 A 
ATOM     24  N   UNL     1      -2.110  12.173  23.471  0.00  0.00    +0.000 N 
ATOM     25  C   UNL     1      -3.475  12.439  23.406  0.00  0.00    +0.000 A 
ATOM     26  C   UNL     1      -4.256  12.408  24.566  0.00  0.00    +0.000 A 
ATOM     27  C   UNL     1      -5.632  12.639  24.482  0.00  0.00    +0.000 A 
ATOM     28  C   UNL     1      -6.222  12.912  23.248  0.00  0.00    +0.000 A 
ATOM     29  C   UNL     1      -5.437  12.962  22.095  0.00  0.00    +0.000 A 
ATOM     30  C   UNL     1      -4.061  12.719  22.179  0.00  0.00    +0.000 A 
ATOM     31  C   UNL     1      -3.206  12.740  20.974  0.00  0.00    +0.000 A 
ATOM     32  O   UNL     1      -3.691  13.104  19.909  0.00  0.00    +0.000 OA
ATOM     33  N   UNL     1      -1.879  12.343  21.138  0.00  0.00    +0.000 N 
ATOM     34  H   UNL     1      -1.665  11.972  24.355  0.00  0.00    +0.000 HD
ENDBRANCH  21  33
ENDBRANCH  20  21
ENDBRANCH  19  20
ENDBRANCH   1  19
TORSDOF 8
ENDMDL
MODEL 4
REMARK VINA RESULT:      -7.8      3.031      3.734
REMARK  Name = 
REMARK  8 active torsions:
REMARK  status: ('A' for Active; 'I' for Inactive)
REMARK    1  A    between atoms: N_12  and  C_13
REMARK    2  A    between atoms: C_13  and  C_14
REMARK    3  A    between atoms: C_14  and  C_15
REMARK    4  A    between atoms: C_15  and  N_16
REMARK    5  A    between atoms: N_19  and  C_20
REMARK    6  A    between atoms: C_25  and  O_26
REMARK    7  A    between atoms: O_26  and  C_27
REMARK    8  A    between atoms: C_27  and  C_28
REMARK                            x       y       z     vdW  Elec       q    Type
REMARK                         _______ _______ _______ _____ _____    ______ ____
ROOT
ATOM      1  N   UNL     1       0.415  10.069  19.534  0.00  0.00    +0.000 NA
ATOM      2  C   UNL     1       0.561   9.641  18.127  0.00  0.00    +0.000 C 
ATOM      3  C   UNL     1       1.904   8.954  17.796  0.00  0.00    +0.000 C 
ATOM      4  N   UNL     1       2.087   7.749  18.634  0.00  0.00    +0.000 N 
ATOM      5  C   UNL     1       1.986   8.049  20.078  0.00  0.00    +0.000 C 
ATOM      6  C   UNL     1       0.704   8.887  20.393  0.00  0.00    +0.000 C 
ENDROOT
BRANCH   4   7
ATOM      7  C   UNL     1       2.920   6.710  18.174  0.00  0.00    +0.000 A 
ATOM      8  C   UNL     1       4.102   7.024  17.457  0.00  0.00    +0.000 A 
ATOM      9  C   UNL     1       4.904   6.057  16.840  0.00  0.00    +0.000 A 
ATOM     10  C   UNL     1       4.543   4.726  16.903  0.00  0.00    +0.000 A 
ATOM     11  C   UNL     1       3.403   4.368  17.613  0.00  0.00    +0.000 A 
ATOM     12  C   UNL     1       2.612   5.327  18.287  0.00  0.00    +0.000 A 
BRANCH  12  13
ATOM     13  O   UNL     1       1.504   4.941  19.019  0.00  0.00    +0.000 OA
BRANCH  13  14
ATOM     14  C   UNL     1       1.776   4.384  20.320  0.00  0.00    +0.000 C 
BRANCH  14  15
ATOM     15  C   UNL     1       1.336   2.937  20.476  0.00  0.00    +0.000 C 
ATOM     16  F   UNL     1       0.938   2.631  21.728  0.00  0.00    +0.000 F 
ATOM     17  F   UNL     1       0.299   2.668  19.643  0.00  0.00    +0.000 F 
ATOM     18  F   UNL     1       2.337   2.089  20.139  0.00  0.00    +0.000 F 
ENDBRANCH  14  15
ENDBRANCH  13  14
ENDBRANCH  12  13
ENDBRANCH   4   7
BRANCH   1  19
ATOM     19  C   UNL     1       1.228  11.243  19.885  0.00  0.00    +0.000 C 
BRANCH  19  20
ATOM     20  C   UNL     1       0.626  12.166  20.972  0.00  0.00    +0.000 C 
BRANCH  20  21
ATOM     21  C   UNL     1      -0.217  13.321  20.415  0.00  0.00    +0.000 C 
BRANCH  21  33
ATOM     22  O   UNL     1      -1.486  12.440  18.087  0.00  0.00    +0.000 OA
ATOM     23  C   UNL     1      -2.160  12.580  19.108  0.00  0.00    +0.000 A 
ATOM     24  N   UNL     1      -3.505  12.320  19.055  0.00  0.00    +0.000 N 
ATOM     25  C   UNL     1      -4.366  12.474  20.138  0.00  0.00    +0.000 A 
ATOM     26  C   UNL     1      -5.742  12.272  19.980  0.00  0.00    +0.000 A 
ATOM     27  C   UNL     1      -6.600  12.467  21.066  0.00  0.00    +0.000 A 
ATOM     28  C   UNL     1      -6.086  12.848  22.305  0.00  0.00    +0.000 A 
ATOM     29  C   UNL     1      -4.711  13.029  22.465  0.00  0.00    +0.000 A 
ATOM     30  C   UNL     1      -3.854  12.845  21.374  0.00  0.00    +0.000 A 
ATOM     31  C   UNL     1      -2.396  13.052  21.503  0.00  0.00    +0.000 A 
ATOM     32  O   UNL     1      -1.924  13.261  22.614  0.00  0.00    +0.000 OA
ATOM     33  N   UNL     1      -1.646  12.988  20.329  0.00  0.00    +0.000 N 
ATOM     34  H   UNL     1      -3.858  12.046  18.149  0.00  0.00    +0.000 HD
ENDBRANCH  21  33
ENDBRANCH  20  21
ENDBRANCH  19  20
ENDBRANCH   1  19
TORSDOF 8
ENDMDL
MODEL 5
REMARK VINA RESULT:      -7.8      3.008      4.959
REMARK  Name = 
REMARK  8 active torsions:
REMARK  status: ('A' for Active; 'I' for Inactive)
REMARK    1  A    between atoms: N_12  and  C_13
REMARK    2  A    between atoms: C_13  and  C_14
REMARK    3  A    between atoms: C_14  and  C_15
REMARK    4  A    between atoms: C_15  and  N_16
REMARK    5  A    between atoms: N_19  and  C_20
REMARK    6  A    between atoms: C_25  and  O_26
REMARK    7  A    between atoms: O_26  and  C_27
REMARK    8  A    between atoms: C_27  and  C_28
REMARK                            x       y       z     vdW  Elec       q    Type
REMARK                         _______ _______ _______ _____ _____    ______ ____
ROOT
ATOM      1  N   UNL     1       2.179   3.966  19.651  0.00  0.00    +0.000 NA
ATOM      2  C   UNL     1       1.889   4.525  18.314  0.00  0.00    +0.000 C 
ATOM      3  C   UNL     1       3.089   5.212  17.625  0.00  0.00    +0.000 C 
ATOM      4  N   UNL     1       4.206   4.254  17.460  0.00  0.00    +0.000 N 
ATOM      5  C   UNL     1       4.610   3.637  18.741  0.00  0.00    +0.000 C 
ATOM      6  C   UNL     1       3.371   3.083  19.518  0.00  0.00    +0.000 C 
ENDROOT
BRANCH   4   7
ATOM      7  C   UNL     1       5.150   4.468  16.437  0.00  0.00    +0.000 A 
ATOM      8  C   UNL     1       5.001   3.801  15.194  0.00  0.00    +0.000 A 
ATOM      9  C   UNL     1       5.967   3.842  14.183  0.00  0.00    +0.000 A 
ATOM     10  C   UNL     1       7.138   4.544  14.381  0.00  0.00    +0.000 A 
ATOM     11  C   UNL     1       7.319   5.231  15.575  0.00  0.00    +0.000 A 
ATOM     12  C   UNL     1       6.331   5.244  16.586  0.00  0.00    +0.000 A 
BRANCH  12  13
ATOM     13  O   UNL     1       6.518   5.968  17.749  0.00  0.00    +0.000 OA
BRANCH  13  14
ATOM     14  C   UNL     1       6.445   7.400  17.615  0.00  0.00    +0.000 C 
BRANCH  14  15
ATOM     15  C   UNL     1       7.786   8.103  17.765  0.00  0.00    +0.000 C 
ATOM     16  F   UNL     1       8.530   7.624  18.784  0.00  0.00    +0.000 F 
ATOM     17  F   UNL     1       8.517   7.969  16.630  0.00  0.00    +0.000 F 
ATOM     18  F   UNL     1       7.615   9.431  17.964  0.00  0.00    +0.000 F 
ENDBRANCH  14  15
ENDBRANCH  13  14
ENDBRANCH  12  13
ENDBRANCH   4   7
BRANCH   1  19
ATOM     19  C   UNL     1       2.338   4.986  20.699  0.00  0.00    +0.000 C 
BRANCH  19  20
ATOM     20  C   UNL     1       1.421   6.226  20.562  0.00  0.00    +0.000 C 
BRANCH  20  21
ATOM     21  C   UNL     1       2.179   7.552  20.415  0.00  0.00    +0.000 C 
BRANCH  21  33
ATOM     22  O   UNL     1       1.446   8.946  22.723  0.00  0.00    +0.000 OA
ATOM     23  C   UNL     1       0.982   9.311  21.642  0.00  0.00    +0.000 A 
ATOM     24  N   UNL     1       0.111  10.369  21.619  0.00  0.00    +0.000 N 
ATOM     25  C   UNL     1      -0.496  10.846  20.460  0.00  0.00    +0.000 A 
ATOM     26  C   UNL     1      -1.442  11.875  20.531  0.00  0.00    +0.000 A 
ATOM     27  C   UNL     1      -2.072  12.319  19.365  0.00  0.00    +0.000 A 
ATOM     28  C   UNL     1      -1.750  11.747  18.134  0.00  0.00    +0.000 A 
ATOM     29  C   UNL     1      -0.792  10.735  18.064  0.00  0.00    +0.000 A 
ATOM     30  C   UNL     1      -0.169  10.284  19.233  0.00  0.00    +0.000 A 
ATOM     31  C   UNL     1       0.831   9.196  19.197  0.00  0.00    +0.000 A 
ATOM     32  O   UNL     1       1.212   8.779  18.110  0.00  0.00    +0.000 OA
ATOM     33  N   UNL     1       1.285   8.718  20.426  0.00  0.00    +0.000 N 
ATOM     34  H   UNL     1      -0.110  10.769  22.520  0.00  0.00    +0.000 HD
ENDBRANCH  21  33
ENDBRANCH  20  21
ENDBRANCH  19  20
ENDBRANCH   1  19
TORSDOF 8
ENDMDL
MODEL 6
REMARK VINA RESULT:      -7.8      0.947      1.836
REMARK  Name = 
REMARK  8 active torsions:
REMARK  status: ('A' for Active; 'I' for Inactive)
REMARK    1  A    between atoms: N_12  and  C_13
REMARK    2  A    between atoms: C_13  and  C_14
REMARK    3  A    between atoms: C_14  and  C_15
REMARK    4  A    between atoms: C_15  and  N_16
REMARK    5  A    between atoms: N_19  and  C_20
REMARK    6  A    between atoms: C_25  and  O_26
REMARK    7  A    between atoms: O_26  and  C_27
REMARK    8  A    between atoms: C_27  and  C_28
REMARK                            x       y       z     vdW  Elec       q    Type
REMARK                         _______ _______ _______ _____ _____    ______ ____
ROOT
ATOM      1  N   UNL     1       1.448   9.293  19.689  0.00  0.00    +0.000 NA
ATOM      2  C   UNL     1       1.859   8.226  20.627  0.00  0.00    +0.000 C 
ATOM      3  C   UNL     1       1.660   6.789  20.099  0.00  0.00    +0.000 C 
ATOM      4  N   UNL     1       2.431   6.587  18.851  0.00  0.00    +0.000 N 
ATOM      5  C   UNL     1       2.092   7.585  17.814  0.00  0.00    +0.000 C 
ATOM      6  C   UNL     1       2.136   9.037  18.393  0.00  0.00    +0.000 C 
ENDROOT
BRANCH   4   7
ATOM      7  C   UNL     1       2.828   5.284  18.490  0.00  0.00    +0.000 A 
ATOM      8  C   UNL     1       1.886   4.401  17.903  0.00  0.00    +0.000 A 
ATOM      9  C   UNL     1       2.155   3.051  17.652  0.00  0.00    +0.000 A 
ATOM     10  C   UNL     1       3.382   2.522  17.995  0.00  0.00    +0.000 A 
ATOM     11  C   UNL     1       4.345   3.354  18.553  0.00  0.00    +0.000 A 
ATOM     12  C   UNL     1       4.108   4.732  18.765  0.00  0.00    +0.000 A 
BRANCH  12  13
ATOM     13  O   UNL     1       5.095   5.548  19.285  0.00  0.00    +0.000 OA
BRANCH  13  14
ATOM     14  C   UNL     1       6.100   5.989  18.352  0.00  0.00    +0.000 C 
BRANCH  14  15
ATOM     15  C   UNL     1       7.527   5.788  18.840  0.00  0.00    +0.000 C 
ATOM     16  F   UNL     1       7.620   5.644  20.178  0.00  0.00    +0.000 F 
ATOM     17  F   UNL     1       8.065   4.678  18.275  0.00  0.00    +0.000 F 
ATOM     18  F   UNL     1       8.312   6.830  18.478  0.00  0.00    +0.000 F 
ENDBRANCH  14  15
ENDBRANCH  13  14
ENDBRANCH  12  13
ENDBRANCH   4   7
BRANCH   1  19
ATOM     19  C   UNL     1      -0.009   9.429  19.547  0.00  0.00    +0.000 C 
BRANCH  19  20
ATOM     20  C   UNL     1      -0.483  10.183  18.281  0.00  0.00    +0.000 C 
BRANCH  20  21
ATOM     21  C   UNL     1      -0.784  11.670  18.516  0.00  0.00    +0.000 C 
BRANCH  21  33
ATOM     22  O   UNL     1      -1.522  12.770  20.976  0.00  0.00    +0.000 OA
ATOM     23  C   UNL     1      -2.409  12.442  20.187  0.00  0.00    +0.000 A 
ATOM     24  N   UNL     1      -3.718  12.609  20.557  0.00  0.00    +0.000 N 
ATOM     25  C   UNL     1      -4.800  12.246  19.760  0.00  0.00    +0.000 A 
ATOM     26  C   UNL     1      -6.107  12.367  20.245  0.00  0.00    +0.000 A 
ATOM     27  C   UNL     1      -7.182  11.963  19.448  0.00  0.00    +0.000 A 
ATOM     28  C   UNL     1      -6.954  11.452  18.170  0.00  0.00    +0.000 A 
ATOM     29  C   UNL     1      -5.651  11.350  17.682  0.00  0.00    +0.000 A 
ATOM     30  C   UNL     1      -4.574  11.745  18.484  0.00  0.00    +0.000 A 
ATOM     31  C   UNL     1      -3.180  11.627  18.007  0.00  0.00    +0.000 A 
ATOM     32  O   UNL     1      -2.979  11.302  16.843  0.00  0.00    +0.000 OA
ATOM     33  N   UNL     1      -2.173  11.908  18.930  0.00  0.00    +0.000 N 
ATOM     34  H   UNL     1      -3.863  12.979  21.486  0.00  0.00    +0.000 HD
ENDBRANCH  21  33
ENDBRANCH  20  21
ENDBRANCH  19  20
ENDBRANCH   1  19
TORSDOF 8
ENDMDL
MODEL 7
REMARK VINA RESULT:      -7.8      3.840      4.683
REMARK  Name = 
REMARK  8 active torsions:
REMARK  status: ('A' for Active; 'I' for Inactive)
REMARK    1  A    between atoms: N_12  and  C_13
REMARK    2  A    between atoms: C_13  and  C_14
REMARK    3  A    between atoms: C_14  and  C_15
REMARK    4  A    between atoms: C_15  and  N_16
REMARK    5  A    between atoms: N_19  and  C_20
REMARK    6  A    between atoms: C_25  and  O_26
REMARK    7  A    between atoms: O_26  and  C_27
REMARK    8  A    between atoms: C_27  and  C_28
REMARK                            x       y       z     vdW  Elec       q    Type
REMARK                         _______ _______ _______ _____ _____    ______ ____
ROOT
ATOM      1  N   UNL     1       0.271  10.214  19.654  0.00  0.00    +0.000 NA
ATOM      2  C   UNL     1       0.418   9.760  18.255  0.00  0.00    +0.000 C 
ATOM      3  C   UNL     1       1.763   9.073  17.935  0.00  0.00    +0.000 C 
ATOM      4  N   UNL     1       1.952   7.883  18.795  0.00  0.00    +0.000 N 
ATOM      5  C   UNL     1       1.851   8.210  20.234  0.00  0.00    +0.000 C 
ATOM      6  C   UNL     1       0.565   9.048  20.534  0.00  0.00    +0.000 C 
ENDROOT
BRANCH   4   7
ATOM      7  C   UNL     1       2.788   6.840  18.354  0.00  0.00    +0.000 A 
ATOM      8  C   UNL     1       3.882   7.131  17.499  0.00  0.00    +0.000 A 
ATOM      9  C   UNL     1       4.669   6.142  16.899  0.00  0.00    +0.000 A 
ATOM     10  C   UNL     1       4.382   4.810  17.118  0.00  0.00    +0.000 A 
ATOM     11  C   UNL     1       3.332   4.476  17.966  0.00  0.00    +0.000 A 
ATOM     12  C   UNL     1       2.560   5.463  18.622  0.00  0.00    +0.000 A 
BRANCH  12  13
ATOM     13  O   UNL     1       1.546   5.105  19.491  0.00  0.00    +0.000 OA
BRANCH  13  14
ATOM     14  C   UNL     1       1.967   4.525  20.740  0.00  0.00    +0.000 C 
BRANCH  14  15
ATOM     15  C   UNL     1       1.689   3.034  20.854  0.00  0.00    +0.000 C 
ATOM     16  F   UNL     1       0.970   2.544  19.823  0.00  0.00    +0.000 F 
ATOM     17  F   UNL     1       2.854   2.341  20.903  0.00  0.00    +0.000 F 
ATOM     18  F   UNL     1       1.020   2.754  21.998  0.00  0.00    +0.000 F 
ENDBRANCH  14  15
ENDBRANCH  13  14
ENDBRANCH  12  13
ENDBRANCH   4   7
BRANCH   1  19
ATOM     19  C   UNL     1       1.080  11.397  19.982  0.00  0.00    +0.000 C 
BRANCH  19  20
ATOM     20  C   UNL     1       0.286  12.713  20.167  0.00  0.00    +0.000 C 
BRANCH  20  21
ATOM     21  C   UNL     1       0.298  13.254  21.603  0.00  0.00    +0.000 C 
BRANCH  21  33
ATOM     22  O   UNL     1      -0.504  11.078  23.161  0.00  0.00    +0.000 OA
ATOM     23  C   UNL     1      -1.297  12.004  22.991  0.00  0.00    +0.000 A 
ATOM     24  N   UNL     1      -2.544  11.920  23.551  0.00  0.00    +0.000 N 
ATOM     25  C   UNL     1      -3.529  12.892  23.400  0.00  0.00    +0.000 A 
ATOM     26  C   UNL     1      -4.808  12.691  23.931  0.00  0.00    +0.000 A 
ATOM     27  C   UNL     1      -5.799  13.658  23.739  0.00  0.00    +0.000 A 
ATOM     28  C   UNL     1      -5.510  14.824  23.029  0.00  0.00    +0.000 A 
ATOM     29  C   UNL     1      -4.229  15.031  22.517  0.00  0.00    +0.000 A 
ATOM     30  C   UNL     1      -3.241  14.057  22.701  0.00  0.00    +0.000 A 
ATOM     31  C   UNL     1      -1.880  14.233  22.150  0.00  0.00    +0.000 A 
ATOM     32  O   UNL     1      -1.583  15.307  21.639  0.00  0.00    +0.000 OA
ATOM     33  N   UNL     1      -1.012  13.147  22.259  0.00  0.00    +0.000 N 
ATOM     34  H   UNL     1      -2.735  11.068  24.061  0.00  0.00    +0.000 HD
ENDBRANCH  21  33
ENDBRANCH  20  21
ENDBRANCH  19  20
ENDBRANCH   1  19
TORSDOF 8
ENDMDL
MODEL 8
REMARK VINA RESULT:      -7.8      4.526      5.788
REMARK  Name = 
REMARK  8 active torsions:
REMARK  status: ('A' for Active; 'I' for Inactive)
REMARK    1  A    between atoms: N_12  and  C_13
REMARK    2  A    between atoms: C_13  and  C_14
REMARK    3  A    between atoms: C_14  and  C_15
REMARK    4  A    between atoms: C_15  and  N_16
REMARK    5  A    between atoms: N_19  and  C_20
REMARK    6  A    between atoms: C_25  and  O_26
REMARK    7  A    between atoms: O_26  and  C_27
REMARK    8  A    between atoms: C_27  and  C_28
REMARK                            x       y       z     vdW  Elec       q    Type
REMARK                         _______ _______ _______ _____ _____    ______ ____
ROOT
ATOM      1  N   UNL     1       0.103  10.380  19.611  0.00  0.00    +0.000 NA
ATOM      2  C   UNL     1       0.353   9.902  18.235  0.00  0.00    +0.000 C 
ATOM      3  C   UNL     1       1.732   9.240  18.021  0.00  0.00    +0.000 C 
ATOM      4  N   UNL     1       1.888   8.073  18.918  0.00  0.00    +0.000 N 
ATOM      5  C   UNL     1       1.684   8.427  20.339  0.00  0.00    +0.000 C 
ATOM      6  C   UNL     1       0.363   9.241  20.535  0.00  0.00    +0.000 C 
ENDROOT
BRANCH   4   7
ATOM      7  C   UNL     1       2.775   7.041  18.557  0.00  0.00    +0.000 A 
ATOM      8  C   UNL     1       3.757   7.276  17.561  0.00  0.00    +0.000 A 
ATOM      9  C   UNL     1       4.577   6.268  17.040  0.00  0.00    +0.000 A 
ATOM     10  C   UNL     1       4.434   4.970  17.486  0.00  0.00    +0.000 A 
ATOM     11  C   UNL     1       3.499   4.695  18.477  0.00  0.00    +0.000 A 
ATOM     12  C   UNL     1       2.701   5.711  19.052  0.00  0.00    +0.000 A 
BRANCH  12  13
ATOM     13  O   UNL     1       1.805   5.418  20.064  0.00  0.00    +0.000 OA
BRANCH  13  14
ATOM     14  C   UNL     1       2.215   4.390  20.985  0.00  0.00    +0.000 C 
BRANCH  14  15
ATOM     15  C   UNL     1       1.428   3.094  20.854  0.00  0.00    +0.000 C 
ATOM     16  F   UNL     1       1.005   2.603  22.037  0.00  0.00    +0.000 F 
ATOM     17  F   UNL     1       0.332   3.286  20.078  0.00  0.00    +0.000 F 
ATOM     18  F   UNL     1       2.172   2.138  20.250  0.00  0.00    +0.000 F 
ENDBRANCH  14  15
ENDBRANCH  13  14
ENDBRANCH  12  13
ENDBRANCH   4   7
BRANCH   1  19
ATOM     19  C   UNL     1       0.862  11.589  19.967  0.00  0.00    +0.000 C 
BRANCH  19  20
ATOM     20  C   UNL     1       0.071  12.659  20.758  0.00  0.00    +0.000 C 
BRANCH  20  21
ATOM     21  C   UNL     1       0.911  13.872  21.181  0.00  0.00    +0.000 C 
BRANCH  21  33
ATOM     22  O   UNL     1       3.386  14.266  19.944  0.00  0.00    +0.000 OA
ATOM     23  C   UNL     1       2.423  14.931  19.561  0.00  0.00    +0.000 A 
ATOM     24  N   UNL     1       2.610  15.851  18.562  0.00  0.00    +0.000 N 
ATOM     25  C   UNL     1       1.602  16.677  18.072  0.00  0.00    +0.000 A 
ATOM     26  C   UNL     1       1.892  17.651  17.111  0.00  0.00    +0.000 A 
ATOM     27  C   UNL     1       0.879  18.499  16.655  0.00  0.00    +0.000 A 
ATOM     28  C   UNL     1      -0.420  18.366  17.148  0.00  0.00    +0.000 A 
ATOM     29  C   UNL     1      -0.711  17.381  18.092  0.00  0.00    +0.000 A 
ATOM     30  C   UNL     1       0.307  16.539  18.555  0.00  0.00    +0.000 A 
ATOM     31  C   UNL     1       0.038  15.501  19.573  0.00  0.00    +0.000 A 
ATOM     32  O   UNL     1      -1.120  15.294  19.914  0.00  0.00    +0.000 OA
ATOM     33  N   UNL     1       1.142  14.813  20.076  0.00  0.00    +0.000 N 
ATOM     34  H   UNL     1       3.557  15.933  18.218  0.00  0.00    +0.000 HD
ENDBRANCH  21  33
ENDBRANCH  20  21
ENDBRANCH  19  20
ENDBRANCH   1  19
TORSDOF 8
ENDMDL
MODEL 9
REMARK VINA RESULT:      -7.8      0.830      1.049
REMARK  Name = 
REMARK  8 active torsions:
REMARK  status: ('A' for Active; 'I' for Inactive)
REMARK    1  A    between atoms: N_12  and  C_13
REMARK    2  A    between atoms: C_13  and  C_14
REMARK    3  A    between atoms: C_14  and  C_15
REMARK    4  A    between atoms: C_15  and  N_16
REMARK    5  A    between atoms: N_19  and  C_20
REMARK    6  A    between atoms: C_25  and  O_26
REMARK    7  A    between atoms: O_26  and  C_27
REMARK    8  A    between atoms: C_27  and  C_28
REMARK                            x       y       z     vdW  Elec       q    Type
REMARK                         _______ _______ _______ _____ _____    ______ ____
ROOT
ATOM      1  N   UNL     1       1.257   9.545  19.857  0.00  0.00    +0.000 NA
ATOM      2  C   UNL     1       1.538   8.683  21.024  0.00  0.00    +0.000 C 
ATOM      3  C   UNL     1       1.330   7.173  20.778  0.00  0.00    +0.000 C 
ATOM      4  N   UNL     1       2.203   6.706  19.678  0.00  0.00    +0.000 N 
ATOM      5  C   UNL     1       2.002   7.480  18.434  0.00  0.00    +0.000 C 
ATOM      6  C   UNL     1       2.050   9.018  18.712  0.00  0.00    +0.000 C 
ENDROOT
BRANCH   4   7
ATOM      7  C   UNL     1       2.579   5.349  19.625  0.00  0.00    +0.000 A 
ATOM      8  C   UNL     1       1.618   4.344  19.904  0.00  0.00    +0.000 A 
ATOM      9  C   UNL     1       1.941   2.987  20.018  0.00  0.00    +0.000 A 
ATOM     10  C   UNL     1       3.251   2.579  19.873  0.00  0.00    +0.000 A 
ATOM     11  C   UNL     1       4.224   3.527  19.578  0.00  0.00    +0.000 A 
ATOM     12  C   UNL     1       3.907   4.894  19.407  0.00  0.00    +0.000 A 
BRANCH  12  13
ATOM     13  O   UNL     1       4.887   5.811  19.074  0.00  0.00    +0.000 OA
BRANCH  13  14
ATOM     14  C   UNL     1       6.246   5.382  19.287  0.00  0.00    +0.000 C 
BRANCH  14  15
ATOM     15  C   UNL     1       7.210   5.821  18.196  0.00  0.00    +0.000 C 
ATOM     16  F   UNL     1       6.617   6.525  17.210  0.00  0.00    +0.000 F 
ATOM     17  F   UNL     1       8.189   6.601  18.720  0.00  0.00    +0.000 F 
ATOM     18  F   UNL     1       7.822   4.752  17.633  0.00  0.00    +0.000 F 
ENDBRANCH  14  15
ENDBRANCH  13  14
ENDBRANCH  12  13
ENDBRANCH   4   7
BRANCH   1  19
ATOM     19  C   UNL     1      -0.174   9.680  19.548  0.00  0.00    +0.000 C 
BRANCH  19  20
ATOM     20  C   UNL     1      -0.499  10.213  18.132  0.00  0.00    +0.000 C 
BRANCH  20  21
ATOM     21  C   UNL     1      -1.063  11.641  18.115  0.00  0.00    +0.000 C 
BRANCH  21  33
ATOM     22  O   UNL     1      -2.568  10.950  15.865  0.00  0.00    +0.000 OA
ATOM     23  C   UNL     1      -3.161  11.320  16.879  0.00  0.00    +0.000 A 
ATOM     24  N   UNL     1      -4.529  11.400  16.854  0.00  0.00    +0.000 N 
ATOM     25  C   UNL     1      -5.299  11.834  17.930  0.00  0.00    +0.000 A 
ATOM     26  C   UNL     1      -6.685  11.970  17.798  0.00  0.00    +0.000 A 
ATOM     27  C   UNL     1      -7.441  12.443  18.874  0.00  0.00    +0.000 A 
ATOM     28  C   UNL     1      -6.818  12.766  20.080  0.00  0.00    +0.000 A 
ATOM     29  C   UNL     1      -5.437  12.610  20.215  0.00  0.00    +0.000 A 
ATOM     30  C   UNL     1      -4.680  12.147  19.134  0.00  0.00    +0.000 A 
ATOM     31  C   UNL     1      -3.213  11.994  19.236  0.00  0.00    +0.000 A 
ATOM     32  O   UNL     1      -2.677  12.152  20.326  0.00  0.00    +0.000 OA
ATOM     33  N   UNL     1      -2.531  11.668  18.064  0.00  0.00    +0.000 N 
ATOM     34  H   UNL     1      -4.962  11.163  15.973  0.00  0.00    +0.000 HD
ENDBRANCH  21  33
ENDBRANCH  20  21
ENDBRANCH  19  20
ENDBRANCH   1  19
TORSDOF 8
ENDMDL
