MODEL 1
REMARK VINA RESULT:      -8.0      0.000      0.000
REMARK  Name = 
REMARK  9 active torsions:
REMARK  status: ('A' for Active; 'I' for Inactive)
REMARK    1  A    between atoms: C_1  and  O_2
REMARK    2  A    between atoms: O_2  and  C_3
REMARK    3  A    between atoms: C_11  and  C_13
REMARK    4  A    between atoms: C_13  and  N_14
REMARK    5  A    between atoms: C_13  and  C_15
REMARK    6  A    between atoms: C_15  and  C_16
REMARK    7  A    between atoms: C_17  and  C_18
REMARK    8  A    between atoms: C_20  and  O_21
REMARK    9  A    between atoms: C_23  and  C_24
REMARK                            x       y       z     vdW  Elec       q    Type
REMARK                         _______ _______ _______ _____ _____    ______ ____
ROOT
ATOM      1  C   UNL     1       2.010   6.332  20.443  0.00  0.00    +0.000 C 
ENDROOT
BRANCH   1  10
ATOM      2  C   UNL     1       6.457   5.095  14.824  0.00  0.00    +0.000 A 
ATOM      3  C   UNL     1       7.353   4.404  15.641  0.00  0.00    +0.000 A 
ATOM      4  C   UNL     1       7.292   4.538  17.027  0.00  0.00    +0.000 A 
ATOM      5  C   UNL     1       6.314   5.357  17.594  0.00  0.00    +0.000 A 
ATOM      6  C   UNL     1       5.416   6.069  16.784  0.00  0.00    +0.000 A 
ATOM      7  C   UNL     1       5.502   5.941  15.396  0.00  0.00    +0.000 A 
ATOM      8  C   UNL     1       4.387   6.968  17.437  0.00  0.00    +0.000 C 
ATOM      9  N   UNL     1       3.865   6.440  18.701  0.00  0.00    +0.000 N 
ATOM     10  C   UNL     1       2.589   6.871  19.098  0.00  0.00    +0.000 C 
ATOM     11  O   UNL     1       1.954   7.659  18.409  0.00  0.00    +0.000 OA
ATOM     12  C   UNL     1       4.655   5.404  19.377  0.00  0.00    +0.000 C 
ATOM     13  C   UNL     1       6.148   5.478  19.074  0.00  0.00    +0.000 C 
BRANCH   2  15
ATOM     14  C   UNL     1       6.125   3.558  13.068  0.00  0.00    +0.000 C 
ATOM     15  O   UNL     1       6.572   4.845  13.482  0.00  0.00    +0.000 OA
ENDBRANCH   2  15
ENDBRANCH   1  10
BRANCH   1  16
ATOM     16  N   UNL     1       1.227   7.377  21.134  0.00  0.00    +0.000 NA
ATOM     17  H   UNL     1       1.588   7.500  22.083  0.00  0.00    +0.000 HD
ATOM     18  H   UNL     1       0.247   7.171  21.208  0.00  0.00    +0.000 HD
ENDBRANCH   1  16
BRANCH   1  19
ATOM     19  C   UNL     1       1.079   5.126  20.166  0.00  0.00    +0.000 C 
BRANCH  19  20
ATOM     20  C   UNL     1       1.795   3.887  19.636  0.00  0.00    +0.000 A 
ATOM     21  C   UNL     1       1.862   3.628  18.242  0.00  0.00    +0.000 A 
ATOM     22  C   UNL     1       1.232   4.504  17.191  0.00  0.00    +0.000 C 
ATOM     23  C   UNL     1       2.577   2.511  17.775  0.00  0.00    +0.000 A 
ATOM     24  C   UNL     1       3.201   1.653  18.669  0.00  0.00    +0.000 A 
ATOM     25  C   UNL     1       3.123   1.876  20.033  0.00  0.00    +0.000 A 
ATOM     26  C   UNL     1       2.420   2.982  20.536  0.00  0.00    +0.000 A 
ATOM     27  C   UNL     1       2.387   3.172  22.031  0.00  0.00    +0.000 C 
BRANCH  24  28
ATOM     28  O   UNL     1       3.911   0.571  18.239  0.00  0.00    +0.000 OA
ATOM     29  H   UNL     1       3.709  -0.178  18.820  0.00  0.00    +0.000 HD
ENDBRANCH  24  28
ENDBRANCH  19  20
ENDBRANCH   1  19
TORSDOF 6
ENDMDL
MODEL 2
REMARK VINA RESULT:      -7.4      0.081      1.719
REMARK  Name = 
REMARK  9 active torsions:
REMARK  status: ('A' for Active; 'I' for Inactive)
REMARK    1  A    between atoms: C_1  and  O_2
REMARK    2  A    between atoms: O_2  and  C_3
REMARK    3  A    between atoms: C_11  and  C_13
REMARK    4  A    between atoms: C_13  and  N_14
REMARK    5  A    between atoms: C_13  and  C_15
REMARK    6  A    between atoms: C_15  and  C_16
REMARK    7  A    between atoms: C_17  and  C_18
REMARK    8  A    between atoms: C_20  and  O_21
REMARK    9  A    between atoms: C_23  and  C_24
REMARK                            x       y       z     vdW  Elec       q    Type
REMARK                         _______ _______ _______ _____ _____    ______ ____
ROOT
ATOM      1  C   UNL     1       1.922   6.387  20.413  0.00  0.00    +0.000 C 
ENDROOT
BRANCH   1  10
ATOM      2  C   UNL     1       6.455   5.101  14.875  0.00  0.00    +0.000 A 
ATOM      3  C   UNL     1       7.335   4.412  15.710  0.00  0.00    +0.000 A 
ATOM      4  C   UNL     1       7.252   4.554  17.094  0.00  0.00    +0.000 A 
ATOM      5  C   UNL     1       6.268   5.380  17.641  0.00  0.00    +0.000 A 
ATOM      6  C   UNL     1       5.386   6.090  16.812  0.00  0.00    +0.000 A 
ATOM      7  C   UNL     1       5.494   5.954  15.426  0.00  0.00    +0.000 A 
ATOM      8  C   UNL     1       4.350   6.997  17.443  0.00  0.00    +0.000 C 
ATOM      9  N   UNL     1       3.806   6.479  18.702  0.00  0.00    +0.000 N 
ATOM     10  C   UNL     1       2.526   6.917  19.075  0.00  0.00    +0.000 C 
ATOM     11  O   UNL     1       1.905   7.703  18.371  0.00  0.00    +0.000 OA
ATOM     12  C   UNL     1       4.580   5.443  19.396  0.00  0.00    +0.000 C 
ATOM     13  C   UNL     1       6.078   5.510  19.117  0.00  0.00    +0.000 C 
BRANCH   2  15
ATOM     14  C   UNL     1       6.181   3.542  13.129  0.00  0.00    +0.000 C 
ATOM     15  O   UNL     1       6.591   4.843  13.537  0.00  0.00    +0.000 OA
ENDBRANCH   2  15
ENDBRANCH   1  10
BRANCH   1  16
ATOM     16  N   UNL     1       1.064   7.412  21.045  0.00  0.00    +0.000 NA
ATOM     17  H   UNL     1       0.277   7.624  20.427  0.00  0.00    +0.000 HD
ATOM     18  H   UNL     1       1.537   8.276  21.240  0.00  0.00    +0.000 HD
ENDBRANCH   1  16
BRANCH   1  19
ATOM     19  C   UNL     1       1.061   5.130  20.139  0.00  0.00    +0.000 C 
BRANCH  19  20
ATOM     20  C   UNL     1       1.852   3.923  19.642  0.00  0.00    +0.000 A 
ATOM     21  C   UNL     1       2.494   3.049  20.558  0.00  0.00    +0.000 A 
ATOM     22  C   UNL     1       2.481   3.237  22.053  0.00  0.00    +0.000 C 
ATOM     23  C   UNL     1       3.168   1.912  20.080  0.00  0.00    +0.000 A 
ATOM     24  C   UNL     1       3.224   1.649  18.719  0.00  0.00    +0.000 A 
ATOM     25  C   UNL     1       2.626   2.505  17.810  0.00  0.00    +0.000 A 
ATOM     26  C   UNL     1       1.942   3.649  18.250  0.00  0.00    +0.000 A 
ATOM     27  C   UNL     1       1.303   4.530  17.208  0.00  0.00    +0.000 C 
BRANCH  24  28
ATOM     28  O   UNL     1       3.859   0.545  18.233  0.00  0.00    +0.000 OA
ATOM     29  H   UNL     1       3.227   0.040  17.697  0.00  0.00    +0.000 HD
ENDBRANCH  24  28
ENDBRANCH  19  20
ENDBRANCH   1  19
TORSDOF 6
ENDMDL
MODEL 3
REMARK VINA RESULT:      -7.0      4.002      6.890
REMARK  Name = 
REMARK  9 active torsions:
REMARK  status: ('A' for Active; 'I' for Inactive)
REMARK    1  A    between atoms: C_1  and  O_2
REMARK    2  A    between atoms: O_2  and  C_3
REMARK    3  A    between atoms: C_11  and  C_13
REMARK    4  A    between atoms: C_13  and  N_14
REMARK    5  A    between atoms: C_13  and  C_15
REMARK    6  A    between atoms: C_15  and  C_16
REMARK    7  A    between atoms: C_17  and  C_18
REMARK    8  A    between atoms: C_20  and  O_21
REMARK    9  A    between atoms: C_23  and  C_24
REMARK                            x       y       z     vdW  Elec       q    Type
REMARK                         _______ _______ _______ _____ _____    ______ ____
ROOT
ATOM      1  C   UNL     1       2.879   6.758  18.967  0.00  0.00    +0.000 C 
ENDROOT
BRANCH   1  10
ATOM      2  C   UNL     1      -2.054  12.062  19.602  0.00  0.00    +0.000 A 
ATOM      3  C   UNL     1      -1.431  12.809  18.602  0.00  0.00    +0.000 A 
ATOM      4  C   UNL     1      -0.122  12.521  18.219  0.00  0.00    +0.000 A 
ATOM      5  C   UNL     1       0.556  11.467  18.833  0.00  0.00    +0.000 A 
ATOM      6  C   UNL     1      -0.053  10.718  19.850  0.00  0.00    +0.000 A 
ATOM      7  C   UNL     1      -1.358  11.030  20.239  0.00  0.00    +0.000 A 
ATOM      8  C   UNL     1       0.726   9.600  20.510  0.00  0.00    +0.000 C 
ATOM      9  N   UNL     1       1.607   8.875  19.589  0.00  0.00    +0.000 N 
ATOM     10  C   UNL     1       1.939   7.553  19.926  0.00  0.00    +0.000 C 
ATOM     11  O   UNL     1       1.508   7.043  20.952  0.00  0.00    +0.000 OA
ATOM     12  C   UNL     1       1.955   9.538  18.327  0.00  0.00    +0.000 C 
ATOM     13  C   UNL     1       1.930  11.061  18.409  0.00  0.00    +0.000 C 
BRANCH   2  15
ATOM     14  C   UNL     1      -4.295  11.954  18.883  0.00  0.00    +0.000 C 
ATOM     15  O   UNL     1      -3.358  12.395  19.858  0.00  0.00    +0.000 OA
ENDBRANCH   2  15
ENDBRANCH   1  10
BRANCH   1  16
ATOM     16  N   UNL     1       3.904   6.017  19.732  0.00  0.00    +0.000 NA
ATOM     17  H   UNL     1       3.503   5.697  20.616  0.00  0.00    +0.000 HD
ATOM     18  H   UNL     1       4.722   6.558  19.948  0.00  0.00    +0.000 HD
ENDBRANCH   1  16
BRANCH   1  19
ATOM     19  C   UNL     1       2.051   5.741  18.145  0.00  0.00    +0.000 C 
BRANCH  19  20
ATOM     20  C   UNL     1       2.576   4.309  18.205  0.00  0.00    +0.000 A 
ATOM     21  C   UNL     1       3.665   3.901  17.390  0.00  0.00    +0.000 A 
ATOM     22  C   UNL     1       4.364   4.801  16.404  0.00  0.00    +0.000 C 
ATOM     23  C   UNL     1       4.168   2.593  17.504  0.00  0.00    +0.000 A 
ATOM     24  C   UNL     1       3.597   1.696  18.394  0.00  0.00    +0.000 A 
ATOM     25  C   UNL     1       2.517   2.069  19.177  0.00  0.00    +0.000 A 
ATOM     26  C   UNL     1       1.989   3.367  19.092  0.00  0.00    +0.000 A 
ATOM     27  C   UNL     1       0.822   3.710  19.982  0.00  0.00    +0.000 C 
BRANCH  24  28
ATOM     28  O   UNL     1       4.076   0.427  18.533  0.00  0.00    +0.000 OA
ATOM     29  H   UNL     1       3.340  -0.193  18.409  0.00  0.00    +0.000 HD
ENDBRANCH  24  28
ENDBRANCH  19  20
ENDBRANCH   1  19
TORSDOF 6
ENDMDL
MODEL 4
REMARK VINA RESULT:      -6.9      5.154      7.795
REMARK  Name = 
REMARK  9 active torsions:
REMARK  status: ('A' for Active; 'I' for Inactive)
REMARK    1  A    between atoms: C_1  and  O_2
REMARK    2  A    between atoms: O_2  and  C_3
REMARK    3  A    between atoms: C_11  and  C_13
REMARK    4  A    between atoms: C_13  and  N_14
REMARK    5  A    between atoms: C_13  and  C_15
REMARK    6  A    between atoms: C_15  and  C_16
REMARK    7  A    between atoms: C_17  and  C_18
REMARK    8  A    between atoms: C_20  and  O_21
REMARK    9  A    between atoms: C_23  and  C_24
REMARK                            x       y       z     vdW  Elec       q    Type
REMARK                         _______ _______ _______ _____ _____    ______ ____
ROOT
ATOM      1  C   UNL     1       0.158  11.082  19.619  0.00  0.00    +0.000 C 
ENDROOT
BRANCH   1  10
ATOM      2  C   UNL     1       2.184   4.242  18.212  0.00  0.00    +0.000 A 
ATOM      3  C   UNL     1       1.885   3.848  19.517  0.00  0.00    +0.000 A 
ATOM      4  C   UNL     1       1.737   4.800  20.525  0.00  0.00    +0.000 A 
ATOM      5  C   UNL     1       1.875   6.154  20.215  0.00  0.00    +0.000 A 
ATOM      6  C   UNL     1       2.190   6.563  18.910  0.00  0.00    +0.000 A 
ATOM      7  C   UNL     1       2.356   5.597  17.915  0.00  0.00    +0.000 A 
ATOM      8  C   UNL     1       2.357   8.040  18.621  0.00  0.00    +0.000 C 
ATOM      9  N   UNL     1       1.439   8.894  19.380  0.00  0.00    +0.000 N 
ATOM     10  C   UNL     1       1.129  10.148  18.830  0.00  0.00    +0.000 C 
ATOM     11  O   UNL     1       1.616  10.501  17.764  0.00  0.00    +0.000 OA
ATOM     12  C   UNL     1       0.815   8.317  20.576  0.00  0.00    +0.000 C 
ATOM     13  C   UNL     1       1.649   7.223  21.234  0.00  0.00    +0.000 C 
BRANCH   2  15
ATOM     14  C   UNL     1       2.654   1.967  17.815  0.00  0.00    +0.000 C 
ATOM     15  O   UNL     1       2.251   3.229  17.293  0.00  0.00    +0.000 OA
ENDBRANCH   2  15
ENDBRANCH   1  10
BRANCH   1  16
ATOM     16  N   UNL     1       0.910  11.970  20.531  0.00  0.00    +0.000 NA
ATOM     17  H   UNL     1       1.913  11.830  20.392  0.00  0.00    +0.000 HD
ATOM     18  H   UNL     1       0.715  11.816  21.503  0.00  0.00    +0.000 HD
ENDBRANCH   1  16
BRANCH   1  19
ATOM     19  C   UNL     1      -0.642  11.962  18.629  0.00  0.00    +0.000 C 
BRANCH  19  20
ATOM     20  C   UNL     1      -2.152  11.740  18.669  0.00  0.00    +0.000 A 
ATOM     21  C   UNL     1      -2.969  12.473  19.570  0.00  0.00    +0.000 A 
ATOM     22  C   UNL     1      -2.441  13.484  20.555  0.00  0.00    +0.000 C 
ATOM     23  C   UNL     1      -4.363  12.293  19.549  0.00  0.00    +0.000 A 
ATOM     24  C   UNL     1      -4.941  11.393  18.667  0.00  0.00    +0.000 A 
ATOM     25  C   UNL     1      -4.157  10.650  17.801  0.00  0.00    +0.000 A 
ATOM     26  C   UNL     1      -2.761  10.804  17.791  0.00  0.00    +0.000 A 
ATOM     27  C   UNL     1      -1.971   9.975  16.814  0.00  0.00    +0.000 C 
BRANCH  24  28
ATOM     28  O   UNL     1      -6.292  11.212  18.619  0.00  0.00    +0.000 OA
ATOM     29  H   UNL     1      -6.646  11.310  19.517  0.00  0.00    +0.000 HD
ENDBRANCH  24  28
ENDBRANCH  19  20
ENDBRANCH   1  19
TORSDOF 6
ENDMDL
MODEL 5
REMARK VINA RESULT:      -6.9      4.081      7.150
REMARK  Name = 
REMARK  9 active torsions:
REMARK  status: ('A' for Active; 'I' for Inactive)
REMARK    1  A    between atoms: C_1  and  O_2
REMARK    2  A    between atoms: O_2  and  C_3
REMARK    3  A    between atoms: C_11  and  C_13
REMARK    4  A    between atoms: C_13  and  N_14
REMARK    5  A    between atoms: C_13  and  C_15
REMARK    6  A    between atoms: C_15  and  C_16
REMARK    7  A    between atoms: C_17  and  C_18
REMARK    8  A    between atoms: C_20  and  O_21
REMARK    9  A    between atoms: C_23  and  C_24
REMARK                            x       y       z     vdW  Elec       q    Type
REMARK                         _______ _______ _______ _____ _____    ______ ____
ROOT
ATOM      1  C   UNL     1       2.867   6.833  18.928  0.00  0.00    +0.000 C 
ENDROOT
BRANCH   1  10
ATOM      2  C   UNL     1      -2.089  12.106  19.635  0.00  0.00    +0.000 A 
ATOM      3  C   UNL     1      -1.466  12.872  18.648  0.00  0.00    +0.000 A 
ATOM      4  C   UNL     1      -0.155  12.596  18.264  0.00  0.00    +0.000 A 
ATOM      5  C   UNL     1       0.526  11.535  18.863  0.00  0.00    +0.000 A 
ATOM      6  C   UNL     1      -0.084  10.766  19.866  0.00  0.00    +0.000 A 
ATOM      7  C   UNL     1      -1.391  11.067  20.256  0.00  0.00    +0.000 A 
ATOM      8  C   UNL     1       0.699   9.641  20.511  0.00  0.00    +0.000 C 
ATOM      9  N   UNL     1       1.584   8.934  19.580  0.00  0.00    +0.000 N 
ATOM     10  C   UNL     1       1.920   7.609  19.897  0.00  0.00    +0.000 C 
ATOM     11  O   UNL     1       1.489   7.081  20.914  0.00  0.00    +0.000 OA
ATOM     12  C   UNL     1       1.934   9.619  18.330  0.00  0.00    +0.000 C 
ATOM     13  C   UNL     1       1.902  11.140  18.437  0.00  0.00    +0.000 C 
BRANCH   2  15
ATOM     14  C   UNL     1      -3.581  13.550  20.751  0.00  0.00    +0.000 C 
ATOM     15  O   UNL     1      -3.395  12.430  19.892  0.00  0.00    +0.000 OA
ENDBRANCH   2  15
ENDBRANCH   1  10
BRANCH   1  16
ATOM     16  N   UNL     1       3.937   6.144  19.680  0.00  0.00    +0.000 NA
ATOM     17  H   UNL     1       3.521   5.586  20.429  0.00  0.00    +0.000 HD
ATOM     18  H   UNL     1       4.606   6.764  20.099  0.00  0.00    +0.000 HD
ENDBRANCH   1  16
BRANCH   1  19
ATOM     19  C   UNL     1       2.058   5.772  18.143  0.00  0.00    +0.000 C 
BRANCH  19  20
ATOM     20  C   UNL     1       2.598   4.350  18.270  0.00  0.00    +0.000 A 
ATOM     21  C   UNL     1       2.018   3.433  19.186  0.00  0.00    +0.000 A 
ATOM     22  C   UNL     1       0.874   3.771  20.107  0.00  0.00    +0.000 C 
ATOM     23  C   UNL     1       2.495   2.111  19.245  0.00  0.00    +0.000 A 
ATOM     24  C   UNL     1       3.538   1.705  18.426  0.00  0.00    +0.000 A 
ATOM     25  C   UNL     1       4.132   2.594  17.546  0.00  0.00    +0.000 A 
ATOM     26  C   UNL     1       3.682   3.920  17.458  0.00  0.00    +0.000 A 
ATOM     27  C   UNL     1       4.365   4.830  16.470  0.00  0.00    +0.000 C 
BRANCH  24  28
ATOM     28  O   UNL     1       4.007   0.425  18.454  0.00  0.00    +0.000 OA
ATOM     29  H   UNL     1       4.853   0.399  17.979  0.00  0.00    +0.000 HD
ENDBRANCH  24  28
ENDBRANCH  19  20
ENDBRANCH   1  19
TORSDOF 6
ENDMDL
MODEL 6
REMARK VINA RESULT:      -6.9      3.964      7.238
REMARK  Name = 
REMARK  9 active torsions:
REMARK  status: ('A' for Active; 'I' for Inactive)
REMARK    1  A    between atoms: C_1  and  O_2
REMARK    2  A    between atoms: O_2  and  C_3
REMARK    3  A    between atoms: C_11  and  C_13
REMARK    4  A    between atoms: C_13  and  N_14
REMARK    5  A    between atoms: C_13  and  C_15
REMARK    6  A    between atoms: C_15  and  C_16
REMARK    7  A    between atoms: C_17  and  C_18
REMARK    8  A    between atoms: C_20  and  O_21
REMARK    9  A    between atoms: C_23  and  C_24
REMARK                            x       y       z     vdW  Elec       q    Type
REMARK                         _______ _______ _______ _____ _____    ______ ____
ROOT
ATOM      1  C   UNL     1       2.795   7.011  18.716  0.00  0.00    +0.000 C 
ENDROOT
BRANCH   1  10
ATOM      2  C   UNL     1      -0.296  12.849  21.754  0.00  0.00    +0.000 A 
ATOM      3  C   UNL     1      -0.764  12.087  22.825  0.00  0.00    +0.000 A 
ATOM      4  C   UNL     1      -0.819  10.698  22.731  0.00  0.00    +0.000 A 
ATOM      5  C   UNL     1      -0.387  10.072  21.561  0.00  0.00    +0.000 A 
ATOM      6  C   UNL     1       0.072  10.827  20.471  0.00  0.00    +0.000 A 
ATOM      7  C   UNL     1       0.103  12.219  20.571  0.00  0.00    +0.000 A 
ATOM      8  C   UNL     1       0.507  10.111  19.209  0.00  0.00    +0.000 C 
ATOM      9  N   UNL     1       1.180   8.834  19.462  0.00  0.00    +0.000 N 
ATOM     10  C   UNL     1       2.068   8.371  18.477  0.00  0.00    +0.000 C 
ATOM     11  O   UNL     1       2.256   9.016  17.454  0.00  0.00    +0.000 OA
ATOM     12  C   UNL     1       0.980   8.214  20.777  0.00  0.00    +0.000 C 
ATOM     13  C   UNL     1      -0.348   8.584  21.431  0.00  0.00    +0.000 C 
BRANCH   2  15
ATOM     14  C   UNL     1      -0.252  15.006  20.804  0.00  0.00    +0.000 C 
ATOM     15  O   UNL     1      -0.232  14.199  21.976  0.00  0.00    +0.000 OA
ENDBRANCH   2  15
ENDBRANCH   1  10
BRANCH   1  16
ATOM     16  N   UNL     1       2.935   6.737  20.162  0.00  0.00    +0.000 NA
ATOM     17  H   UNL     1       3.117   7.612  20.658  0.00  0.00    +0.000 HD
ATOM     18  H   UNL     1       3.679   6.101  20.386  0.00  0.00    +0.000 HD
ENDBRANCH   1  16
BRANCH   1  19
ATOM     19  C   UNL     1       1.980   5.861  18.076  0.00  0.00    +0.000 C 
BRANCH  19  20
ATOM     20  C   UNL     1       2.596   4.477  18.257  0.00  0.00    +0.000 A 
ATOM     21  C   UNL     1       2.022   3.539  19.154  0.00  0.00    +0.000 A 
ATOM     22  C   UNL     1       0.810   3.818  20.004  0.00  0.00    +0.000 C 
ATOM     23  C   UNL     1       2.574   2.250  19.261  0.00  0.00    +0.000 A 
ATOM     24  C   UNL     1       3.684   1.897  18.508  0.00  0.00    +0.000 A 
ATOM     25  C   UNL     1       4.273   2.809  17.648  0.00  0.00    +0.000 A 
ATOM     26  C   UNL     1       3.749   4.104  17.514  0.00  0.00    +0.000 A 
ATOM     27  C   UNL     1       4.430   5.040  16.550  0.00  0.00    +0.000 C 
BRANCH  24  28
ATOM     28  O   UNL     1       4.228   0.649  18.584  0.00  0.00    +0.000 OA
ATOM     29  H   UNL     1       5.150   0.699  18.286  0.00  0.00    +0.000 HD
ENDBRANCH  24  28
ENDBRANCH  19  20
ENDBRANCH   1  19
TORSDOF 6
ENDMDL
MODEL 7
REMARK VINA RESULT:      -6.9      3.909      7.090
REMARK  Name = 
REMARK  9 active torsions:
REMARK  status: ('A' for Active; 'I' for Inactive)
REMARK    1  A    between atoms: C_1  and  O_2
REMARK    2  A    between atoms: O_2  and  C_3
REMARK    3  A    between atoms: C_11  and  C_13
REMARK    4  A    between atoms: C_13  and  N_14
REMARK    5  A    between atoms: C_13  and  C_15
REMARK    6  A    between atoms: C_15  and  C_16
REMARK    7  A    between atoms: C_17  and  C_18
REMARK    8  A    between atoms: C_20  and  O_21
REMARK    9  A    between atoms: C_23  and  C_24
REMARK                            x       y       z     vdW  Elec       q    Type
REMARK                         _______ _______ _______ _____ _____    ______ ____
ROOT
ATOM      1  C   UNL     1       2.784   6.908  18.775  0.00  0.00    +0.000 C 
ENDROOT
BRANCH   1  10
ATOM      2  C   UNL     1      -0.201  12.818  21.780  0.00  0.00    +0.000 A 
ATOM      3  C   UNL     1      -0.723  12.062  22.831  0.00  0.00    +0.000 A 
ATOM      4  C   UNL     1      -0.820  10.677  22.723  0.00  0.00    +0.000 A 
ATOM      5  C   UNL     1      -0.376  10.046  21.560  0.00  0.00    +0.000 A 
ATOM      6  C   UNL     1       0.137  10.795  20.489  0.00  0.00    +0.000 A 
ATOM      7  C   UNL     1       0.210  12.185  20.603  0.00  0.00    +0.000 A 
ATOM      8  C   UNL     1       0.583  10.076  19.234  0.00  0.00    +0.000 C 
ATOM      9  N   UNL     1       1.208   8.775  19.493  0.00  0.00    +0.000 N 
ATOM     10  C   UNL     1       2.107   8.293  18.529  0.00  0.00    +0.000 C 
ATOM     11  O   UNL     1       2.345   8.939  17.517  0.00  0.00    +0.000 OA
ATOM     12  C   UNL     1       0.952   8.152  20.796  0.00  0.00    +0.000 C 
ATOM     13  C   UNL     1      -0.380   8.559  21.417  0.00  0.00    +0.000 C 
BRANCH   2  15
ATOM     14  C   UNL     1       1.193  14.717  21.802  0.00  0.00    +0.000 C 
ATOM     15  O   UNL     1      -0.100  14.163  22.016  0.00  0.00    +0.000 OA
ENDBRANCH   2  15
ENDBRANCH   1  10
BRANCH   1  16
ATOM     16  N   UNL     1       2.887   6.623  20.222  0.00  0.00    +0.000 NA
ATOM     17  H   UNL     1       2.126   7.093  20.716  0.00  0.00    +0.000 HD
ATOM     18  H   UNL     1       3.750   6.926  20.637  0.00  0.00    +0.000 HD
ENDBRANCH   1  16
BRANCH   1  19
ATOM     19  C   UNL     1       1.943   5.789  18.115  0.00  0.00    +0.000 C 
BRANCH  19  20
ATOM     20  C   UNL     1       2.565   4.398  18.204  0.00  0.00    +0.000 A 
ATOM     21  C   UNL     1       3.737   4.079  17.469  0.00  0.00    +0.000 A 
ATOM     22  C   UNL     1       4.437   5.038  16.542  0.00  0.00    +0.000 C 
ATOM     23  C   UNL     1       4.324   2.810  17.611  0.00  0.00    +0.000 A 
ATOM     24  C   UNL     1       3.757   1.864  18.453  0.00  0.00    +0.000 A 
ATOM     25  C   UNL     1       2.599   2.150  19.156  0.00  0.00    +0.000 A 
ATOM     26  C   UNL     1       1.985   3.407  19.041  0.00  0.00    +0.000 A 
ATOM     27  C   UNL     1       0.735   3.654  19.845  0.00  0.00    +0.000 C 
BRANCH  24  28
ATOM     28  O   UNL     1       4.316   0.632  18.618  0.00  0.00    +0.000 OA
ATOM     29  H   UNL     1       4.064   0.077  17.863  0.00  0.00    +0.000 HD
ENDBRANCH  24  28
ENDBRANCH  19  20
ENDBRANCH   1  19
TORSDOF 6
ENDMDL
MODEL 8
REMARK VINA RESULT:      -6.8      5.167      7.770
REMARK  Name = 
REMARK  9 active torsions:
REMARK  status: ('A' for Active; 'I' for Inactive)
REMARK    1  A    between atoms: C_1  and  O_2
REMARK    2  A    between atoms: O_2  and  C_3
REMARK    3  A    between atoms: C_11  and  C_13
REMARK    4  A    between atoms: C_13  and  N_14
REMARK    5  A    between atoms: C_13  and  C_15
REMARK    6  A    between atoms: C_15  and  C_16
REMARK    7  A    between atoms: C_17  and  C_18
REMARK    8  A    between atoms: C_20  and  O_21
REMARK    9  A    between atoms: C_23  and  C_24
REMARK                            x       y       z     vdW  Elec       q    Type
REMARK                         _______ _______ _______ _____ _____    ______ ____
ROOT
ATOM      1  C   UNL     1       0.196  11.015  19.875  0.00  0.00    +0.000 C 
ENDROOT
BRANCH   1  10
ATOM      2  C   UNL     1       2.117   4.203  18.207  0.00  0.00    +0.000 A 
ATOM      3  C   UNL     1       1.851   3.773  19.508  0.00  0.00    +0.000 A 
ATOM      4  C   UNL     1       1.741   4.695  20.547  0.00  0.00    +0.000 A 
ATOM      5  C   UNL     1       1.882   6.056  20.274  0.00  0.00    +0.000 A 
ATOM      6  C   UNL     1       2.164   6.501  18.973  0.00  0.00    +0.000 A 
ATOM      7  C   UNL     1       2.292   5.565  17.945  0.00  0.00    +0.000 A 
ATOM      8  C   UNL     1       2.337   7.985  18.723  0.00  0.00    +0.000 C 
ATOM      9  N   UNL     1       1.449   8.824  19.533  0.00  0.00    +0.000 N 
ATOM     10  C   UNL     1       1.135  10.096  19.031  0.00  0.00    +0.000 C 
ATOM     11  O   UNL     1       1.595  10.477  17.962  0.00  0.00    +0.000 OA
ATOM     12  C   UNL     1       0.854   8.217  20.729  0.00  0.00    +0.000 C 
ATOM     13  C   UNL     1       1.696   7.096  21.330  0.00  0.00    +0.000 C 
BRANCH   2  15
ATOM     14  C   UNL     1       2.677   1.971  17.697  0.00  0.00    +0.000 C 
ATOM     15  O   UNL     1       2.148   3.217  17.257  0.00  0.00    +0.000 OA
ENDBRANCH   2  15
ENDBRANCH   1  10
BRANCH   1  16
ATOM     16  N   UNL     1       0.964  11.742  20.908  0.00  0.00    +0.000 NA
ATOM     17  H   UNL     1       0.334  12.356  21.430  0.00  0.00    +0.000 HD
ATOM     18  H   UNL     1       1.706  12.310  20.541  0.00  0.00    +0.000 HD
ENDBRANCH   1  16
BRANCH   1  19
ATOM     19  C   UNL     1      -0.488  12.053  18.953  0.00  0.00    +0.000 C 
BRANCH  19  20
ATOM     20  C   UNL     1      -2.011  11.961  18.923  0.00  0.00    +0.000 A 
ATOM     21  C   UNL     1      -2.668  11.105  18.000  0.00  0.00    +0.000 A 
ATOM     22  C   UNL     1      -1.952  10.257  16.980  0.00  0.00    +0.000 C 
ATOM     23  C   UNL     1      -4.069  10.993  18.030  0.00  0.00    +0.000 A 
ATOM     24  C   UNL     1      -4.812  11.726  18.943  0.00  0.00    +0.000 A 
ATOM     25  C   UNL     1      -4.189  12.586  19.832  0.00  0.00    +0.000 A 
ATOM     26  C   UNL     1      -2.792  12.722  19.834  0.00  0.00    +0.000 A 
ATOM     27  C   UNL     1      -2.180  13.664  20.837  0.00  0.00    +0.000 C 
BRANCH  24  28
ATOM     28  O   UNL     1      -6.171  11.623  19.001  0.00  0.00    +0.000 OA
ATOM     29  H   UNL     1      -6.449  11.757  19.921  0.00  0.00    +0.000 HD
ENDBRANCH  24  28
ENDBRANCH  19  20
ENDBRANCH   1  19
TORSDOF 6
ENDMDL
MODEL 9
REMARK VINA RESULT:      -6.8      5.712      8.071
REMARK  Name = 
REMARK  9 active torsions:
REMARK  status: ('A' for Active; 'I' for Inactive)
REMARK    1  A    between atoms: C_1  and  O_2
REMARK    2  A    between atoms: O_2  and  C_3
REMARK    3  A    between atoms: C_11  and  C_13
REMARK    4  A    between atoms: C_13  and  N_14
REMARK    5  A    between atoms: C_13  and  C_15
REMARK    6  A    between atoms: C_15  and  C_16
REMARK    7  A    between atoms: C_17  and  C_18
REMARK    8  A    between atoms: C_20  and  O_21
REMARK    9  A    between atoms: C_23  and  C_24
REMARK                            x       y       z     vdW  Elec       q    Type
REMARK                         _______ _______ _______ _____ _____    ______ ____
ROOT
ATOM      1  C   UNL     1      -0.946  11.469  20.031  0.00  0.00    +0.000 C 
ENDROOT
BRANCH   1  10
ATOM      2  C   UNL     1       2.659   5.378  18.366  0.00  0.00    +0.000 A 
ATOM      3  C   UNL     1       2.315   4.799  19.588  0.00  0.00    +0.000 A 
ATOM      4  C   UNL     1       1.857   5.591  20.639  0.00  0.00    +0.000 A 
ATOM      5  C   UNL     1       1.728   6.969  20.455  0.00  0.00    +0.000 A 
ATOM      6  C   UNL     1       2.085   7.566  19.236  0.00  0.00    +0.000 A 
ATOM      7  C   UNL     1       2.562   6.763  18.198  0.00  0.00    +0.000 A 
ATOM      8  C   UNL     1       1.956   9.067  19.085  0.00  0.00    +0.000 C 
ATOM      9  N   UNL     1       0.799   9.630  19.786  0.00  0.00    +0.000 N 
ATOM     10  C   UNL     1       0.283  10.842  19.301  0.00  0.00    +0.000 C 
ATOM     11  O   UNL     1       0.793  11.396  18.335  0.00  0.00    +0.000 OA
ATOM     12  C   UNL     1       0.191   8.817  20.846  0.00  0.00    +0.000 C 
ATOM     13  C   UNL     1       1.168   7.858  21.517  0.00  0.00    +0.000 C 
BRANCH   2  15
ATOM     14  C   UNL     1       2.574   3.167  17.556  0.00  0.00    +0.000 C 
ATOM     15  O   UNL     1       3.042   4.500  17.387  0.00  0.00    +0.000 OA
ENDBRANCH   2  15
ENDBRANCH   1  10
BRANCH   1  16
ATOM     16  N   UNL     1      -0.508  12.342  21.141  0.00  0.00    +0.000 NA
ATOM     17  H   UNL     1       0.255  11.889  21.649  0.00  0.00    +0.000 HD
ATOM     18  H   UNL     1      -1.232  12.550  21.805  0.00  0.00    +0.000 HD
ENDBRANCH   1  16
BRANCH   1  19
ATOM     19  C   UNL     1      -1.769  12.322  19.034  0.00  0.00    +0.000 C 
BRANCH  19  20
ATOM     20  C   UNL     1      -3.217  11.870  18.866  0.00  0.00    +0.000 A 
ATOM     21  C   UNL     1      -3.567  10.906  17.884  0.00  0.00    +0.000 A 
ATOM     22  C   UNL     1      -2.583  10.280  16.930  0.00  0.00    +0.000 C 
ATOM     23  C   UNL     1      -4.897  10.463  17.787  0.00  0.00    +0.000 A 
ATOM     24  C   UNL     1      -5.871  10.974  18.632  0.00  0.00    +0.000 A 
ATOM     25  C   UNL     1      -5.552  11.934  19.577  0.00  0.00    +0.000 A 
ATOM     26  C   UNL     1      -4.234  12.399  19.706  0.00  0.00    +0.000 A 
ATOM     27  C   UNL     1      -3.955  13.434  20.764  0.00  0.00    +0.000 C 
BRANCH  24  28
ATOM     28  O   UNL     1      -7.165  10.549  18.566  0.00  0.00    +0.000 OA
ATOM     29  H   UNL     1      -7.436  10.538  17.635  0.00  0.00    +0.000 HD
ENDBRANCH  24  28
ENDBRANCH  19  20
ENDBRANCH   1  19
TORSDOF 6
ENDMDL
