MODEL 1
REMARK VINA RESULT:      -6.3      0.000      0.000
REMARK  Name = 
REMARK  6 active torsions:
REMARK  status: ('A' for Active; 'I' for Inactive)
REMARK    1  A    between atoms: O_1  and  C_2
REMARK    2  A    between atoms: C_2  and  C_3
REMARK    3  A    between atoms: C_3  and  C_4
REMARK    4  A    between atoms: C_4  and  C_5
REMARK    5  A    between atoms: C_4  and  N_7
REMARK    6  A    between atoms: C_5  and  O_6
REMARK                            x       y       z     vdW  Elec       q    Type
REMARK                         _______ _______ _______ _____ _____    ______ ____
ROOT
ATOM      1  N   UNL     1       4.184   3.931  18.356  0.00  0.00    +0.000 N 
ATOM      2  C   UNL     1       3.462   3.747  17.203  0.00  0.00    +0.000 A 
ATOM      3  N   UNL     1       4.187   3.944  16.126  0.00  0.00    +0.000 NA
ATOM      4  C   UNL     1       5.446   4.253  16.596  0.00  0.00    +0.000 A 
ATOM      5  C   UNL     1       6.661   4.558  16.000  0.00  0.00    +0.000 A 
ATOM      6 CL   UNL     1       6.757   4.618  14.308  0.00  0.00    +0.000 Cl
ATOM      7  N   UNL     1       7.770   4.806  16.721  0.00  0.00    +0.000 NA
ATOM      8  C   UNL     1       7.637   4.744  18.059  0.00  0.00    +0.000 A 
ATOM      9  N   UNL     1       6.527   4.467  18.779  0.00  0.00    +0.000 NA
ATOM     10  C   UNL     1       5.466   4.235  17.987  0.00  0.00    +0.000 A 
ENDROOT
BRANCH   1  11
ATOM     11  C   UNL     1       3.671   3.786  19.724  0.00  0.00    +0.000 C 
BRANCH  11  12
ATOM     12  C   UNL     1       2.205   4.270  19.802  0.00  0.00    +0.000 C 
BRANCH  12  13
ATOM     13  C   UNL     1       1.151   3.172  19.858  0.00  0.00    +0.000 C 
BRANCH  13  14
ATOM     14  O   UNL     1       0.763   2.950  21.205  0.00  0.00    +0.000 OA
ATOM     15  H   UNL     1       1.503   3.252  21.763  0.00  0.00    +0.000 HD
ENDBRANCH  13  14
ENDBRANCH  12  13
ENDBRANCH  11  12
BRANCH  11  16
ATOM     16  C   UNL     1       3.887   2.335  20.193  0.00  0.00    +0.000 C 
BRANCH  16  17
ATOM     17  O   UNL     1       5.241   1.909  20.127  0.00  0.00    +0.000 OA
ATOM     18  H   UNL     1       5.351   1.157  20.736  0.00  0.00    +0.000 HD
ENDBRANCH  16  17
ENDBRANCH  11  16
ENDBRANCH   1  11
TORSDOF 6
ENDMDL
MODEL 2
REMARK VINA RESULT:      -6.3      3.495      5.542
REMARK  Name = 
REMARK  6 active torsions:
REMARK  status: ('A' for Active; 'I' for Inactive)
REMARK    1  A    between atoms: O_1  and  C_2
REMARK    2  A    between atoms: C_2  and  C_3
REMARK    3  A    between atoms: C_3  and  C_4
REMARK    4  A    between atoms: C_4  and  C_5
REMARK    5  A    between atoms: C_4  and  N_7
REMARK    6  A    between atoms: C_5  and  O_6
REMARK                            x       y       z     vdW  Elec       q    Type
REMARK                         _______ _______ _______ _____ _____    ______ ____
ROOT
ATOM      1  N   UNL     1       4.933   4.634  17.862  0.00  0.00    +0.000 N 
ATOM      2  C   UNL     1       4.693   5.707  18.683  0.00  0.00    +0.000 A 
ATOM      3  N   UNL     1       3.599   5.556  19.393  0.00  0.00    +0.000 NA
ATOM      4  C   UNL     1       3.110   4.317  19.034  0.00  0.00    +0.000 A 
ATOM      5  C   UNL     1       2.011   3.558  19.406  0.00  0.00    +0.000 A 
ATOM      6 CL   UNL     1       0.923   4.185  20.546  0.00  0.00    +0.000 Cl
ATOM      7  N   UNL     1       1.779   2.334  18.895  0.00  0.00    +0.000 NA
ATOM      8  C   UNL     1       2.674   1.885  17.996  0.00  0.00    +0.000 A 
ATOM      9  N   UNL     1       3.781   2.507  17.533  0.00  0.00    +0.000 NA
ATOM     10  C   UNL     1       3.939   3.721  18.089  0.00  0.00    +0.000 A 
ENDROOT
BRANCH   1  11
ATOM     11  C   UNL     1       6.070   4.489  16.945  0.00  0.00    +0.000 C 
BRANCH  11  12
ATOM     12  C   UNL     1       5.768   5.189  15.600  0.00  0.00    +0.000 C 
BRANCH  12  13
ATOM     13  C   UNL     1       6.546   4.670  14.399  0.00  0.00    +0.000 C 
BRANCH  13  14
ATOM     14  O   UNL     1       7.735   5.427  14.236  0.00  0.00    +0.000 OA
ATOM     15  H   UNL     1       7.497   6.214  13.713  0.00  0.00    +0.000 HD
ENDBRANCH  13  14
ENDBRANCH  12  13
ENDBRANCH  11  12
BRANCH  11  16
ATOM     16  C   UNL     1       7.350   4.985  17.645  0.00  0.00    +0.000 C 
BRANCH  16  17
ATOM     17  O   UNL     1       8.372   4.001  17.729  0.00  0.00    +0.000 OA
ATOM     18  H   UNL     1       8.434   3.708  18.655  0.00  0.00    +0.000 HD
ENDBRANCH  16  17
ENDBRANCH  11  16
ENDBRANCH   1  11
TORSDOF 6
ENDMDL
MODEL 3
REMARK VINA RESULT:      -6.3      1.139      1.318
REMARK  Name = 
REMARK  6 active torsions:
REMARK  status: ('A' for Active; 'I' for Inactive)
REMARK    1  A    between atoms: O_1  and  C_2
REMARK    2  A    between atoms: C_2  and  C_3
REMARK    3  A    between atoms: C_3  and  C_4
REMARK    4  A    between atoms: C_4  and  C_5
REMARK    5  A    between atoms: C_4  and  N_7
REMARK    6  A    between atoms: C_5  and  O_6
REMARK                            x       y       z     vdW  Elec       q    Type
REMARK                         _______ _______ _______ _____ _____    ______ ____
ROOT
ATOM      1  N   UNL     1       4.230   4.064  18.370  0.00  0.00    +0.000 N 
ATOM      2  C   UNL     1       3.454   3.864  17.256  0.00  0.00    +0.000 A 
ATOM      3  N   UNL     1       4.145   3.962  16.144  0.00  0.00    +0.000 NA
ATOM      4  C   UNL     1       5.438   4.220  16.550  0.00  0.00    +0.000 A 
ATOM      5  C   UNL     1       6.643   4.422  15.894  0.00  0.00    +0.000 A 
ATOM      6 CL   UNL     1       6.676   4.389  14.199  0.00  0.00    +0.000 Cl
ATOM      7  N   UNL     1       7.793   4.641  16.560  0.00  0.00    +0.000 NA
ATOM      8  C   UNL     1       7.710   4.656  17.903  0.00  0.00    +0.000 A 
ATOM      9  N   UNL     1       6.615   4.482  18.677  0.00  0.00    +0.000 NA
ATOM     10  C   UNL     1       5.512   4.273  17.938  0.00  0.00    +0.000 A 
ENDROOT
BRANCH   1  11
ATOM     11  C   UNL     1       3.765   4.020  19.761  0.00  0.00    +0.000 C 
BRANCH  11  12
ATOM     12  C   UNL     1       2.390   4.715  19.890  0.00  0.00    +0.000 C 
BRANCH  12  13
ATOM     13  C   UNL     1       2.406   6.233  19.782  0.00  0.00    +0.000 C 
BRANCH  13  14
ATOM     14  O   UNL     1       1.893   6.803  20.976  0.00  0.00    +0.000 OA
ATOM     15  H   UNL     1       1.341   6.119  21.398  0.00  0.00    +0.000 HD
ENDBRANCH  13  14
ENDBRANCH  12  13
ENDBRANCH  11  12
BRANCH  11  16
ATOM     16  C   UNL     1       3.788   2.562  20.256  0.00  0.00    +0.000 C 
BRANCH  16  17
ATOM     17  O   UNL     1       5.052   1.929  20.108  0.00  0.00    +0.000 OA
ATOM     18  H   UNL     1       5.122   1.233  20.786  0.00  0.00    +0.000 HD
ENDBRANCH  16  17
ENDBRANCH  11  16
ENDBRANCH   1  11
TORSDOF 6
ENDMDL
MODEL 4
REMARK VINA RESULT:      -6.2      3.497      5.394
REMARK  Name = 
REMARK  6 active torsions:
REMARK  status: ('A' for Active; 'I' for Inactive)
REMARK    1  A    between atoms: O_1  and  C_2
REMARK    2  A    between atoms: C_2  and  C_3
REMARK    3  A    between atoms: C_3  and  C_4
REMARK    4  A    between atoms: C_4  and  C_5
REMARK    5  A    between atoms: C_4  and  N_7
REMARK    6  A    between atoms: C_5  and  O_6
REMARK                            x       y       z     vdW  Elec       q    Type
REMARK                         _______ _______ _______ _____ _____    ______ ____
ROOT
ATOM      1  N   UNL     1       4.677   4.564  17.649  0.00  0.00    +0.000 N 
ATOM      2  C   UNL     1       3.717   5.524  17.452  0.00  0.00    +0.000 A 
ATOM      3  N   UNL     1       2.722   5.415  18.302  0.00  0.00    +0.000 NA
ATOM      4  C   UNL     1       3.056   4.345  19.105  0.00  0.00    +0.000 A 
ATOM      5  C   UNL     1       2.459   3.713  20.185  0.00  0.00    +0.000 A 
ATOM      6 CL   UNL     1       0.956   4.272  20.739  0.00  0.00    +0.000 Cl
ATOM      7  N   UNL     1       3.033   2.671  20.813  0.00  0.00    +0.000 NA
ATOM      8  C   UNL     1       4.225   2.269  20.333  0.00  0.00    +0.000 A 
ATOM      9  N   UNL     1       4.924   2.777  19.293  0.00  0.00    +0.000 NA
ATOM     10  C   UNL     1       4.282   3.810  18.721  0.00  0.00    +0.000 A 
ENDROOT
BRANCH   1  11
ATOM     11  C   UNL     1       5.913   4.411  16.872  0.00  0.00    +0.000 C 
BRANCH  11  12
ATOM     12  C   UNL     1       5.776   5.112  15.501  0.00  0.00    +0.000 C 
BRANCH  12  13
ATOM     13  C   UNL     1       6.761   4.662  14.430  0.00  0.00    +0.000 C 
BRANCH  13  14
ATOM     14  O   UNL     1       7.951   5.428  14.524  0.00  0.00    +0.000 OA
ATOM     15  H   UNL     1       7.749   6.194  15.093  0.00  0.00    +0.000 HD
ENDBRANCH  13  14
ENDBRANCH  12  13
ENDBRANCH  11  12
BRANCH  11  16
ATOM     16  C   UNL     1       7.105   4.899  17.718  0.00  0.00    +0.000 C 
BRANCH  16  17
ATOM     17  O   UNL     1       8.264   4.085  17.592  0.00  0.00    +0.000 OA
ATOM     18  H   UNL     1       8.118   3.270  18.104  0.00  0.00    +0.000 HD
ENDBRANCH  16  17
ENDBRANCH  11  16
ENDBRANCH   1  11
TORSDOF 6
ENDMDL
MODEL 5
REMARK VINA RESULT:      -6.1      1.926      3.044
REMARK  Name = 
REMARK  6 active torsions:
REMARK  status: ('A' for Active; 'I' for Inactive)
REMARK    1  A    between atoms: O_1  and  C_2
REMARK    2  A    between atoms: C_2  and  C_3
REMARK    3  A    between atoms: C_3  and  C_4
REMARK    4  A    between atoms: C_4  and  C_5
REMARK    5  A    between atoms: C_4  and  N_7
REMARK    6  A    between atoms: C_5  and  O_6
REMARK                            x       y       z     vdW  Elec       q    Type
REMARK                         _______ _______ _______ _____ _____    ______ ____
ROOT
ATOM      1  N   UNL     1       3.927   4.491  17.556  0.00  0.00    +0.000 N 
ATOM      2  C   UNL     1       3.832   5.514  18.466  0.00  0.00    +0.000 A 
ATOM      3  N   UNL     1       4.858   6.330  18.405  0.00  0.00    +0.000 NA
ATOM      4  C   UNL     1       5.653   5.829  17.396  0.00  0.00    +0.000 A 
ATOM      5  C   UNL     1       6.857   6.210  16.822  0.00  0.00    +0.000 A 
ATOM      6 CL   UNL     1       7.656   7.582  17.418  0.00  0.00    +0.000 Cl
ATOM      7  N   UNL     1       7.413   5.528  15.804  0.00  0.00    +0.000 NA
ATOM      8  C   UNL     1       6.737   4.448  15.370  0.00  0.00    +0.000 A 
ATOM      9  N   UNL     1       5.565   3.953  15.829  0.00  0.00    +0.000 NA
ATOM     10  C   UNL     1       5.079   4.688  16.844  0.00  0.00    +0.000 A 
ENDROOT
BRANCH   1  11
ATOM     11  C   UNL     1       2.947   3.414  17.367  0.00  0.00    +0.000 C 
BRANCH  11  12
ATOM     12  C   UNL     1       3.485   2.088  17.952  0.00  0.00    +0.000 C 
BRANCH  12  13
ATOM     13  C   UNL     1       3.768   2.095  19.448  0.00  0.00    +0.000 C 
BRANCH  13  14
ATOM     14  O   UNL     1       5.160   2.253  19.671  0.00  0.00    +0.000 OA
ATOM     15  H   UNL     1       5.456   1.467  20.164  0.00  0.00    +0.000 HD
ENDBRANCH  13  14
ENDBRANCH  12  13
ENDBRANCH  11  12
BRANCH  11  16
ATOM     16  C   UNL     1       1.590   3.858  17.946  0.00  0.00    +0.000 C 
BRANCH  16  17
ATOM     17  O   UNL     1       0.703   2.780  18.212  0.00  0.00    +0.000 OA
ATOM     18  H   UNL     1      -0.184   3.035  17.901  0.00  0.00    +0.000 HD
ENDBRANCH  16  17
ENDBRANCH  11  16
ENDBRANCH   1  11
TORSDOF 6
ENDMDL
MODEL 6
REMARK VINA RESULT:      -6.1      3.371      5.136
REMARK  Name = 
REMARK  6 active torsions:
REMARK  status: ('A' for Active; 'I' for Inactive)
REMARK    1  A    between atoms: O_1  and  C_2
REMARK    2  A    between atoms: C_2  and  C_3
REMARK    3  A    between atoms: C_3  and  C_4
REMARK    4  A    between atoms: C_4  and  C_5
REMARK    5  A    between atoms: C_4  and  N_7
REMARK    6  A    between atoms: C_5  and  O_6
REMARK                            x       y       z     vdW  Elec       q    Type
REMARK                         _______ _______ _______ _____ _____    ______ ____
ROOT
ATOM      1  N   UNL     1       5.439   4.953  18.511  0.00  0.00    +0.000 N 
ATOM      2  C   UNL     1       4.606   6.021  18.290  0.00  0.00    +0.000 A 
ATOM      3  N   UNL     1       3.412   5.836  18.804  0.00  0.00    +0.000 NA
ATOM      4  C   UNL     1       3.472   4.597  19.406  0.00  0.00    +0.000 A 
ATOM      5  C   UNL     1       2.576   3.817  20.123  0.00  0.00    +0.000 A 
ATOM      6 CL   UNL     1       1.001   4.392  20.376  0.00  0.00    +0.000 Cl
ATOM      7  N   UNL     1       2.916   2.617  20.629  0.00  0.00    +0.000 NA
ATOM      8  C   UNL     1       4.179   2.210  20.400  0.00  0.00    +0.000 A 
ATOM      9  N   UNL     1       5.156   2.851  19.720  0.00  0.00    +0.000 NA
ATOM     10  C   UNL     1       4.735   4.036  19.246  0.00  0.00    +0.000 A 
ENDROOT
BRANCH   1  11
ATOM     11  C   UNL     1       6.834   4.844  18.071  0.00  0.00    +0.000 C 
BRANCH  11  12
ATOM     12  C   UNL     1       6.930   5.030  16.539  0.00  0.00    +0.000 C 
BRANCH  12  13
ATOM     13  C   UNL     1       6.217   3.977  15.702  0.00  0.00    +0.000 C 
BRANCH  13  14
ATOM     14  O   UNL     1       5.625   4.589  14.567  0.00  0.00    +0.000 OA
ATOM     15  H   UNL     1       6.150   5.388  14.373  0.00  0.00    +0.000 HD
ENDBRANCH  13  14
ENDBRANCH  12  13
ENDBRANCH  11  12
BRANCH  11  16
ATOM     16  C   UNL     1       7.700   5.826  18.884  0.00  0.00    +0.000 C 
BRANCH  16  17
ATOM     17  O   UNL     1       7.814   5.482  20.258  0.00  0.00    +0.000 OA
ATOM     18  H   UNL     1       8.019   4.531  20.315  0.00  0.00    +0.000 HD
ENDBRANCH  16  17
ENDBRANCH  11  16
ENDBRANCH   1  11
TORSDOF 6
ENDMDL
MODEL 7
REMARK VINA RESULT:      -6.1      3.877      5.454
REMARK  Name = 
REMARK  6 active torsions:
REMARK  status: ('A' for Active; 'I' for Inactive)
REMARK    1  A    between atoms: O_1  and  C_2
REMARK    2  A    between atoms: C_2  and  C_3
REMARK    3  A    between atoms: C_3  and  C_4
REMARK    4  A    between atoms: C_4  and  C_5
REMARK    5  A    between atoms: C_4  and  N_7
REMARK    6  A    between atoms: C_5  and  O_6
REMARK                            x       y       z     vdW  Elec       q    Type
REMARK                         _______ _______ _______ _____ _____    ______ ____
ROOT
ATOM      1  N   UNL     1       4.905   5.343  18.118  0.00  0.00    +0.000 N 
ATOM      2  C   UNL     1       3.813   6.112  17.802  0.00  0.00    +0.000 A 
ATOM      3  N   UNL     1       2.699   5.614  18.287  0.00  0.00    +0.000 NA
ATOM      4  C   UNL     1       3.083   4.478  18.968  0.00  0.00    +0.000 A 
ATOM      5  C   UNL     1       2.415   3.510  19.703  0.00  0.00    +0.000 A 
ATOM      6 CL   UNL     1       0.730   3.615  19.867  0.00  0.00    +0.000 Cl
ATOM      7  N   UNL     1       3.060   2.488  20.294  0.00  0.00    +0.000 NA
ATOM      8  C   UNL     1       4.395   2.453  20.133  0.00  0.00    +0.000 A 
ATOM      9  N   UNL     1       5.179   3.314  19.446  0.00  0.00    +0.000 NA
ATOM     10  C   UNL     1       4.460   4.301  18.885  0.00  0.00    +0.000 A 
ENDROOT
BRANCH   1  11
ATOM     11  C   UNL     1       6.294   5.622  17.731  0.00  0.00    +0.000 C 
BRANCH  11  12
ATOM     12  C   UNL     1       6.790   4.568  16.715  0.00  0.00    +0.000 C 
BRANCH  12  13
ATOM     13  C   UNL     1       6.505   4.878  15.251  0.00  0.00    +0.000 C 
BRANCH  13  14
ATOM     14  O   UNL     1       7.680   5.378  14.632  0.00  0.00    +0.000 OA
ATOM     15  H   UNL     1       7.388   5.943  13.893  0.00  0.00    +0.000 HD
ENDBRANCH  13  14
ENDBRANCH  12  13
ENDBRANCH  11  12
BRANCH  11  16
ATOM     16  C   UNL     1       6.398   7.078  17.237  0.00  0.00    +0.000 C 
BRANCH  16  17
ATOM     17  O   UNL     1       7.729   7.490  16.954  0.00  0.00    +0.000 OA
ATOM     18  H   UNL     1       7.992   8.143  17.626  0.00  0.00    +0.000 HD
ENDBRANCH  16  17
ENDBRANCH  11  16
ENDBRANCH   1  11
TORSDOF 6
ENDMDL
MODEL 8
REMARK VINA RESULT:      -6.0      3.472      5.396
REMARK  Name = 
REMARK  6 active torsions:
REMARK  status: ('A' for Active; 'I' for Inactive)
REMARK    1  A    between atoms: O_1  and  C_2
REMARK    2  A    between atoms: C_2  and  C_3
REMARK    3  A    between atoms: C_3  and  C_4
REMARK    4  A    between atoms: C_4  and  C_5
REMARK    5  A    between atoms: C_4  and  N_7
REMARK    6  A    between atoms: C_5  and  O_6
REMARK                            x       y       z     vdW  Elec       q    Type
REMARK                         _______ _______ _______ _____ _____    ______ ____
ROOT
ATOM      1  N   UNL     1       4.885   4.865  17.550  0.00  0.00    +0.000 N 
ATOM      2  C   UNL     1       4.431   6.158  17.475  0.00  0.00    +0.000 A 
ATOM      3  N   UNL     1       3.515   6.417  18.379  0.00  0.00    +0.000 NA
ATOM      4  C   UNL     1       3.378   5.245  19.093  0.00  0.00    +0.000 A 
ATOM      5  C   UNL     1       2.600   4.844  20.169  0.00  0.00    +0.000 A 
ATOM      6 CL   UNL     1       1.508   5.947  20.853  0.00  0.00    +0.000 Cl
ATOM      7  N   UNL     1       2.685   3.608  20.694  0.00  0.00    +0.000 NA
ATOM      8  C   UNL     1       3.569   2.774  20.114  0.00  0.00    +0.000 A 
ATOM      9  N   UNL     1       4.385   3.016  19.063  0.00  0.00    +0.000 NA
ATOM     10  C   UNL     1       4.237   4.269  18.598  0.00  0.00    +0.000 A 
ENDROOT
BRANCH   1  11
ATOM     11  C   UNL     1       5.906   4.260  16.687  0.00  0.00    +0.000 C 
BRANCH  11  12
ATOM     12  C   UNL     1       5.474   4.344  15.204  0.00  0.00    +0.000 C 
BRANCH  12  13
ATOM     13  C   UNL     1       6.602   4.264  14.184  0.00  0.00    +0.000 C 
BRANCH  13  14
ATOM     14  O   UNL     1       6.332   3.226  13.255  0.00  0.00    +0.000 OA
ATOM     15  H   UNL     1       6.707   2.408  13.631  0.00  0.00    +0.000 HD
ENDBRANCH  13  14
ENDBRANCH  12  13
ENDBRANCH  11  12
BRANCH  11  16
ATOM     16  C   UNL     1       7.271   4.908  16.987  0.00  0.00    +0.000 C 
BRANCH  16  17
ATOM     17  O   UNL     1       8.180   4.041  17.652  0.00  0.00    +0.000 OA
ATOM     18  H   UNL     1       9.085   4.346  17.458  0.00  0.00    +0.000 HD
ENDBRANCH  16  17
ENDBRANCH  11  16
ENDBRANCH   1  11
TORSDOF 6
ENDMDL
MODEL 9
REMARK VINA RESULT:      -6.0      3.570      5.594
REMARK  Name = 
REMARK  6 active torsions:
REMARK  status: ('A' for Active; 'I' for Inactive)
REMARK    1  A    between atoms: O_1  and  C_2
REMARK    2  A    between atoms: C_2  and  C_3
REMARK    3  A    between atoms: C_3  and  C_4
REMARK    4  A    between atoms: C_4  and  C_5
REMARK    5  A    between atoms: C_4  and  N_7
REMARK    6  A    between atoms: C_5  and  O_6
REMARK                            x       y       z     vdW  Elec       q    Type
REMARK                         _______ _______ _______ _____ _____    ______ ____
ROOT
ATOM      1  N   UNL     1       4.801   4.693  18.672  0.00  0.00    +0.000 N 
ATOM      2  C   UNL     1       4.940   3.346  18.898  0.00  0.00    +0.000 A 
ATOM      3  N   UNL     1       4.000   2.875  19.684  0.00  0.00    +0.000 NA
ATOM      4  C   UNL     1       3.198   3.959  19.971  0.00  0.00    +0.000 A 
ATOM      5  C   UNL     1       2.049   4.149  20.724  0.00  0.00    +0.000 A 
ATOM      6 CL   UNL     1       1.379   2.830  21.553  0.00  0.00    +0.000 Cl
ATOM      7  N   UNL     1       1.445   5.348  20.818  0.00  0.00    +0.000 NA
ATOM      8  C   UNL     1       2.018   6.359  20.140  0.00  0.00    +0.000 A 
ATOM      9  N   UNL     1       3.132   6.330  19.374  0.00  0.00    +0.000 NA
ATOM     10  C   UNL     1       3.675   5.101  19.335  0.00  0.00    +0.000 A 
ENDROOT
BRANCH   1  11
ATOM     11  C   UNL     1       5.682   5.521  17.839  0.00  0.00    +0.000 C 
BRANCH  11  12
ATOM     12  C   UNL     1       7.161   5.145  18.083  0.00  0.00    +0.000 C 
BRANCH  12  13
ATOM     13  C   UNL     1       7.910   6.024  19.076  0.00  0.00    +0.000 C 
BRANCH  13  14
ATOM     14  O   UNL     1       7.858   5.437  20.367  0.00  0.00    +0.000 OA
ATOM     15  H   UNL     1       8.602   4.811  20.420  0.00  0.00    +0.000 HD
ENDBRANCH  13  14
ENDBRANCH  12  13
ENDBRANCH  11  12
BRANCH  11  16
ATOM     16  C   UNL     1       5.234   5.415  16.369  0.00  0.00    +0.000 C 
BRANCH  16  17
ATOM     17  O   UNL     1       5.359   6.632  15.645  0.00  0.00    +0.000 OA
ATOM     18  H   UNL     1       4.463   6.973  15.472  0.00  0.00    +0.000 HD
ENDBRANCH  16  17
ENDBRANCH  11  16
ENDBRANCH   1  11
TORSDOF 6
ENDMDL
