MODEL 1
REMARK VINA RESULT:      -6.0      0.000      0.000
REMARK  Name = 
REMARK  9 active torsions:
REMARK  status: ('A' for Active; 'I' for Inactive)
REMARK    1  A    between atoms: C_1  and  C_2
REMARK    2  A    between atoms: C_2  and  C_3
REMARK    3  A    between atoms: C_3  and  N_4
REMARK    4  A    between atoms: N_4  and  C_20
REMARK    5  A    between atoms: C_7  and  C_8
REMARK    6  A    between atoms: C_9  and  C_10
REMARK    7  A    between atoms: C_11  and  C_12
REMARK    8  A    between atoms: C_20  and  C_21
REMARK    9  A    between atoms: C_20  and  C_24
REMARK                            x       y       z     vdW  Elec       q    Type
REMARK                         _______ _______ _______ _____ _____    ______ ____
ROOT
ATOM      1  N   UNL     1      -0.484  11.665  19.777  0.00  0.00    +0.000 N 
ATOM      2  C   UNL     1      -1.772  11.627  19.274  0.00  0.00    +0.000 A 
ATOM      3  N   UNL     1      -1.989  11.088  18.076  0.00  0.00    +0.000 NA
ATOM      4  C   UNL     1      -3.208  11.168  17.515  0.00  0.00    +0.000 A 
ATOM      5  C   UNL     1      -3.289  10.598  16.128  0.00  0.00    +0.000 C 
ATOM      6  C   UNL     1      -4.293  11.745  18.161  0.00  0.00    +0.000 A 
ATOM      7  C   UNL     1      -5.637  11.782  17.499  0.00  0.00    +0.000 C 
ATOM      8  C   UNL     1      -4.021  12.257  19.433  0.00  0.00    +0.000 A 
ATOM      9  N   UNL     1      -2.776  12.187  19.970  0.00  0.00    +0.000 NA
ENDROOT
BRANCH   8  10
ATOM     10  C   UNL     1      -5.036  12.862  20.354  0.00  0.00    +0.000 A 
ATOM     11  C   UNL     1      -4.945  14.229  20.705  0.00  0.00    +0.000 A 
ATOM     12  C   UNL     1      -5.808  14.818  21.640  0.00  0.00    +0.000 A 
ATOM     13  C   UNL     1      -6.788  14.051  22.255  0.00  0.00    +0.000 A 
ATOM     14 BR   UNL     1      -7.904  14.811  23.576  0.00  0.00    +0.000 Br
ATOM     15  C   UNL     1      -6.948  12.721  21.895  0.00  0.00    +0.000 A 
ATOM     16  C   UNL     1      -6.102  12.151  20.933  0.00  0.00    +0.000 A 
ENDBRANCH   8  10
BRANCH   1  17
ATOM     17  C   UNL     1      -0.356  11.508  21.228  0.00  0.00    +0.000 C 
BRANCH  17  19
ATOM     18  C   UNL     1      -0.534   9.898  23.188  0.00  0.00    +0.000 C 
ATOM     19  C   UNL     1      -0.436  10.047  21.678  0.00  0.00    +0.000 C 
ENDBRANCH  17  19
ENDBRANCH   1  17
BRANCH   1  20
ATOM     20  C   UNL     1       0.711  11.482  18.927  0.00  0.00    +0.000 C 
BRANCH  20  21
ATOM     21  C   UNL     1       1.750  12.560  19.173  0.00  0.00    +0.000 C 
ATOM     22  C   UNL     1       2.552  13.186  18.056  0.00  0.00    +0.000 C 
ATOM     23  C   UNL     1       1.570  14.023  18.823  0.00  0.00    +0.000 C 
ENDBRANCH  20  21
BRANCH  20  24
ATOM     24  C   UNL     1       1.242  10.062  18.872  0.00  0.00    +0.000 C 
ATOM     25  C   UNL     1       0.835   9.157  17.728  0.00  0.00    +0.000 C 
ATOM     26  C   UNL     1       2.261   9.608  17.849  0.00  0.00    +0.000 C 
ENDBRANCH  20  24
ENDBRANCH   1  20
TORSDOF 6
ENDMDL
MODEL 2
REMARK VINA RESULT:      -5.7      0.481      1.912
REMARK  Name = 
REMARK  9 active torsions:
REMARK  status: ('A' for Active; 'I' for Inactive)
REMARK    1  A    between atoms: C_1  and  C_2
REMARK    2  A    between atoms: C_2  and  C_3
REMARK    3  A    between atoms: C_3  and  N_4
REMARK    4  A    between atoms: N_4  and  C_20
REMARK    5  A    between atoms: C_7  and  C_8
REMARK    6  A    between atoms: C_9  and  C_10
REMARK    7  A    between atoms: C_11  and  C_12
REMARK    8  A    between atoms: C_20  and  C_21
REMARK    9  A    between atoms: C_20  and  C_24
REMARK                            x       y       z     vdW  Elec       q    Type
REMARK                         _______ _______ _______ _____ _____    ______ ____
ROOT
ATOM      1  N   UNL     1      -0.370  11.844  20.043  0.00  0.00    +0.000 N 
ATOM      2  C   UNL     1      -1.646  11.733  19.520  0.00  0.00    +0.000 A 
ATOM      3  N   UNL     1      -1.827  11.077  18.376  0.00  0.00    +0.000 NA
ATOM      4  C   UNL     1      -3.034  11.079  17.786  0.00  0.00    +0.000 A 
ATOM      5  C   UNL     1      -3.074  10.378  16.459  0.00  0.00    +0.000 C 
ATOM      6  C   UNL     1      -4.143  11.693  18.351  0.00  0.00    +0.000 A 
ATOM      7  C   UNL     1      -5.473  11.640  17.661  0.00  0.00    +0.000 C 
ATOM      8  C   UNL     1      -3.909  12.331  19.573  0.00  0.00    +0.000 A 
ATOM      9  N   UNL     1      -2.674  12.337  20.139  0.00  0.00    +0.000 NA
ENDROOT
BRANCH   8  10
ATOM     10  C   UNL     1      -4.954  13.001  20.411  0.00  0.00    +0.000 A 
ATOM     11  C   UNL     1      -5.038  14.411  20.440  0.00  0.00    +0.000 A 
ATOM     12  C   UNL     1      -5.930  15.088  21.284  0.00  0.00    +0.000 A 
ATOM     13  C   UNL     1      -6.764  14.368  22.128  0.00  0.00    +0.000 A 
ATOM     14 BR   UNL     1      -7.912  15.268  23.328  0.00  0.00    +0.000 Br
ATOM     15  C   UNL     1      -6.754  12.982  22.088  0.00  0.00    +0.000 A 
ATOM     16  C   UNL     1      -5.883  12.315  21.214  0.00  0.00    +0.000 A 
ENDBRANCH   8  10
BRANCH   1  17
ATOM     17  C   UNL     1      -0.270  11.830  21.505  0.00  0.00    +0.000 C 
BRANCH  17  19
ATOM     18  C   UNL     1      -0.874  10.089  23.257  0.00  0.00    +0.000 C 
ATOM     19  C   UNL     1       0.009  10.434  22.068  0.00  0.00    +0.000 C 
ENDBRANCH  17  19
ENDBRANCH   1  17
BRANCH   1  20
ATOM     20  C   UNL     1       0.847  11.605  19.238  0.00  0.00    +0.000 C 
BRANCH  20  21
ATOM     21  C   UNL     1       0.804  10.263  18.533  0.00  0.00    +0.000 C 
ATOM     22  C   UNL     1       2.010   9.666  17.847  0.00  0.00    +0.000 C 
ATOM     23  C   UNL     1       1.441   8.994  19.062  0.00  0.00    +0.000 C 
ENDBRANCH  20  21
BRANCH  20  24
ATOM     24  C   UNL     1       1.285  12.779  18.383  0.00  0.00    +0.000 C 
ATOM     25  C   UNL     1       1.775  14.047  19.052  0.00  0.00    +0.000 C 
ATOM     26  C   UNL     1       2.732  13.206  18.258  0.00  0.00    +0.000 C 
ENDBRANCH  20  24
ENDBRANCH   1  20
TORSDOF 6
ENDMDL
MODEL 3
REMARK VINA RESULT:      -5.7      4.841      7.514
REMARK  Name = 
REMARK  9 active torsions:
REMARK  status: ('A' for Active; 'I' for Inactive)
REMARK    1  A    between atoms: C_1  and  C_2
REMARK    2  A    between atoms: C_2  and  C_3
REMARK    3  A    between atoms: C_3  and  N_4
REMARK    4  A    between atoms: N_4  and  C_20
REMARK    5  A    between atoms: C_7  and  C_8
REMARK    6  A    between atoms: C_9  and  C_10
REMARK    7  A    between atoms: C_11  and  C_12
REMARK    8  A    between atoms: C_20  and  C_21
REMARK    9  A    between atoms: C_20  and  C_24
REMARK                            x       y       z     vdW  Elec       q    Type
REMARK                         _______ _______ _______ _____ _____    ______ ____
ROOT
ATOM      1  N   UNL     1       1.121  13.643  19.867  0.00  0.00    +0.000 N 
ATOM      2  C   UNL     1       0.651  12.448  20.381  0.00  0.00    +0.000 A 
ATOM      3  N   UNL     1      -0.287  12.468  21.326  0.00  0.00    +0.000 NA
ATOM      4  C   UNL     1      -0.653  11.326  21.931  0.00  0.00    +0.000 A 
ATOM      5  C   UNL     1      -1.652  11.506  23.038  0.00  0.00    +0.000 C 
ATOM      6  C   UNL     1      -0.136  10.088  21.573  0.00  0.00    +0.000 A 
ATOM      7  C   UNL     1      -0.602   8.843  22.265  0.00  0.00    +0.000 C 
ATOM      8  C   UNL     1       0.813  10.118  20.547  0.00  0.00    +0.000 A 
ATOM      9  N   UNL     1       1.186  11.287  19.965  0.00  0.00    +0.000 NA
ENDROOT
BRANCH   8  10
ATOM     10  C   UNL     1       1.462   8.914  19.936  0.00  0.00    +0.000 A 
ATOM     11  C   UNL     1       1.802   8.914  18.565  0.00  0.00    +0.000 A 
ATOM     12  C   UNL     1       2.318   7.778  17.924  0.00  0.00    +0.000 A 
ATOM     13  C   UNL     1       2.504   6.605  18.642  0.00  0.00    +0.000 A 
ATOM     14 BR   UNL     1       3.121   5.044  17.773  0.00  0.00    +0.000 Br
ATOM     15  C   UNL     1       2.239   6.580  20.002  0.00  0.00    +0.000 A 
ATOM     16  C   UNL     1       1.757   7.732  20.640  0.00  0.00    +0.000 A 
ENDBRANCH   8  10
BRANCH   1  17
ATOM     17  C   UNL     1       1.484  13.634  18.447  0.00  0.00    +0.000 C 
BRANCH  17  19
ATOM     18  C   UNL     1       3.444  15.061  17.680  0.00  0.00    +0.000 C 
ATOM     19  C   UNL     1       2.996  13.711  18.219  0.00  0.00    +0.000 C 
ENDBRANCH  17  19
ENDBRANCH   1  17
BRANCH   1  20
ATOM     20  C   UNL     1       0.923  14.939  20.549  0.00  0.00    +0.000 C 
BRANCH  20  21
ATOM     21  C   UNL     1       2.007  15.210  21.574  0.00  0.00    +0.000 C 
ATOM     22  C   UNL     1       3.312  14.450  21.598  0.00  0.00    +0.000 C 
ATOM     23  C   UNL     1       3.315  15.916  21.275  0.00  0.00    +0.000 C 
ENDBRANCH  20  21
BRANCH  20  24
ATOM     24  C   UNL     1       0.589  16.098  19.628  0.00  0.00    +0.000 C 
ATOM     25  C   UNL     1      -0.857  16.506  19.438  0.00  0.00    +0.000 C 
ATOM     26  C   UNL     1       0.092  17.433  20.139  0.00  0.00    +0.000 C 
ENDBRANCH  20  24
ENDBRANCH   1  20
TORSDOF 6
ENDMDL
MODEL 4
REMARK VINA RESULT:      -5.6      5.578      8.781
REMARK  Name = 
REMARK  9 active torsions:
REMARK  status: ('A' for Active; 'I' for Inactive)
REMARK    1  A    between atoms: C_1  and  C_2
REMARK    2  A    between atoms: C_2  and  C_3
REMARK    3  A    between atoms: C_3  and  N_4
REMARK    4  A    between atoms: N_4  and  C_20
REMARK    5  A    between atoms: C_7  and  C_8
REMARK    6  A    between atoms: C_9  and  C_10
REMARK    7  A    between atoms: C_11  and  C_12
REMARK    8  A    between atoms: C_20  and  C_21
REMARK    9  A    between atoms: C_20  and  C_24
REMARK                            x       y       z     vdW  Elec       q    Type
REMARK                         _______ _______ _______ _____ _____    ______ ____
ROOT
ATOM      1  N   UNL     1       5.615   6.735  17.274  0.00  0.00    +0.000 N 
ATOM      2  C   UNL     1       4.543   6.491  18.114  0.00  0.00    +0.000 A 
ATOM      3  N   UNL     1       4.404   5.284  18.659  0.00  0.00    +0.000 NA
ATOM      4  C   UNL     1       3.298   4.991  19.364  0.00  0.00    +0.000 A 
ATOM      5  C   UNL     1       3.231   3.570  19.845  0.00  0.00    +0.000 C 
ATOM      6  C   UNL     1       2.297   5.920  19.609  0.00  0.00    +0.000 A 
ATOM      7  C   UNL     1       1.098   5.545  20.426  0.00  0.00    +0.000 C 
ATOM      8  C   UNL     1       2.513   7.184  19.051  0.00  0.00    +0.000 A 
ATOM      9  N   UNL     1       3.627   7.452  18.321  0.00  0.00    +0.000 NA
ENDROOT
BRANCH   8  10
ATOM     10  C   UNL     1       1.618   8.371  19.232  0.00  0.00    +0.000 A 
ATOM     11  C   UNL     1       1.201   8.750  20.528  0.00  0.00    +0.000 A 
ATOM     12  C   UNL     1       0.285   9.790  20.742  0.00  0.00    +0.000 A 
ATOM     13  C   UNL     1      -0.243  10.480  19.660  0.00  0.00    +0.000 A 
ATOM     14 BR   UNL     1      -1.539  11.828  19.930  0.00  0.00    +0.000 Br
ATOM     15  C   UNL     1       0.185  10.179  18.376  0.00  0.00    +0.000 A 
ATOM     16  C   UNL     1       1.128   9.160  18.176  0.00  0.00    +0.000 A 
ENDBRANCH   8  10
BRANCH   1  17
ATOM     17  C   UNL     1       6.177   8.088  17.325  0.00  0.00    +0.000 C 
BRANCH  17  19
ATOM     18  C   UNL     1       8.261   9.321  18.103  0.00  0.00    +0.000 C 
ATOM     19  C   UNL     1       7.706   8.093  17.398  0.00  0.00    +0.000 C 
ENDBRANCH  17  19
ENDBRANCH   1  17
BRANCH   1  20
ATOM     20  C   UNL     1       6.405   5.652  16.651  0.00  0.00    +0.000 C 
BRANCH  20  21
ATOM     21  C   UNL     1       6.925   4.667  17.682  0.00  0.00    +0.000 C 
ATOM     22  C   UNL     1       8.386   4.302  17.793  0.00  0.00    +0.000 C 
ATOM     23  C   UNL     1       7.723   5.052  18.911  0.00  0.00    +0.000 C 
ENDBRANCH  20  21
BRANCH  20  24
ATOM     24  C   UNL     1       5.777   5.036  15.415  0.00  0.00    +0.000 C 
ATOM     25  C   UNL     1       6.632   4.785  14.191  0.00  0.00    +0.000 C 
ATOM     26  C   UNL     1       6.078   3.623  14.963  0.00  0.00    +0.000 C 
ENDBRANCH  20  24
ENDBRANCH   1  20
TORSDOF 6
ENDMDL
MODEL 5
REMARK VINA RESULT:      -5.5      4.143      7.851
REMARK  Name = 
REMARK  9 active torsions:
REMARK  status: ('A' for Active; 'I' for Inactive)
REMARK    1  A    between atoms: C_1  and  C_2
REMARK    2  A    between atoms: C_2  and  C_3
REMARK    3  A    between atoms: C_3  and  N_4
REMARK    4  A    between atoms: N_4  and  C_20
REMARK    5  A    between atoms: C_7  and  C_8
REMARK    6  A    between atoms: C_9  and  C_10
REMARK    7  A    between atoms: C_11  and  C_12
REMARK    8  A    between atoms: C_20  and  C_21
REMARK    9  A    between atoms: C_20  and  C_24
REMARK                            x       y       z     vdW  Elec       q    Type
REMARK                         _______ _______ _______ _____ _____    ______ ____
ROOT
ATOM      1  N   UNL     1      -0.041  12.304  19.930  0.00  0.00    +0.000 N 
ATOM      2  C   UNL     1       0.521  13.523  19.595  0.00  0.00    +0.000 A 
ATOM      3  N   UNL     1      -0.274  14.554  19.318  0.00  0.00    +0.000 NA
ATOM      4  C   UNL     1       0.251  15.702  18.859  0.00  0.00    +0.000 A 
ATOM      5  C   UNL     1      -0.765  16.749  18.503  0.00  0.00    +0.000 C 
ATOM      6  C   UNL     1       1.618  15.895  18.711  0.00  0.00    +0.000 A 
ATOM      7  C   UNL     1       2.151  17.207  18.220  0.00  0.00    +0.000 C 
ATOM      8  C   UNL     1       2.411  14.796  19.056  0.00  0.00    +0.000 A 
ATOM      9  N   UNL     1       1.856  13.636  19.496  0.00  0.00    +0.000 NA
ENDROOT
BRANCH   8  10
ATOM     10  C   UNL     1       3.909  14.777  19.051  0.00  0.00    +0.000 A 
ATOM     11  C   UNL     1       4.622  15.001  20.251  0.00  0.00    +0.000 A 
ATOM     12  C   UNL     1       6.021  15.093  20.281  0.00  0.00    +0.000 A 
ATOM     13  C   UNL     1       6.747  14.966  19.105  0.00  0.00    +0.000 A 
ATOM     14 BR   UNL     1       8.625  15.170  19.119  0.00  0.00    +0.000 Br
ATOM     15  C   UNL     1       6.090  14.687  17.917  0.00  0.00    +0.000 A 
ATOM     16  C   UNL     1       4.693  14.562  17.904  0.00  0.00    +0.000 A 
ENDBRANCH   8  10
BRANCH   1  17
ATOM     17  C   UNL     1       0.695  11.505  20.913  0.00  0.00    +0.000 C 
BRANCH  17  19
ATOM     18  C   UNL     1      -0.483  10.259  22.792  0.00  0.00    +0.000 C 
ATOM     19  C   UNL     1      -0.058  10.239  21.331  0.00  0.00    +0.000 C 
ENDBRANCH  17  19
ENDBRANCH   1  17
BRANCH   1  20
ATOM     20  C   UNL     1      -1.452  11.970  19.644  0.00  0.00    +0.000 C 
BRANCH  20  21
ATOM     21  C   UNL     1      -2.408  12.962  20.280  0.00  0.00    +0.000 C 
ATOM     22  C   UNL     1      -3.893  12.705  20.389  0.00  0.00    +0.000 C 
ATOM     23  C   UNL     1      -3.061  12.778  21.635  0.00  0.00    +0.000 C 
ENDBRANCH  20  21
BRANCH  20  24
ATOM     24  C   UNL     1      -1.743  11.618  18.197  0.00  0.00    +0.000 C 
ATOM     25  C   UNL     1      -1.444  10.221  17.696  0.00  0.00    +0.000 C 
ATOM     26  C   UNL     1      -2.866  10.690  17.790  0.00  0.00    +0.000 C 
ENDBRANCH  20  24
ENDBRANCH   1  20
TORSDOF 6
ENDMDL
MODEL 6
REMARK VINA RESULT:      -5.5      4.095      7.963
REMARK  Name = 
REMARK  9 active torsions:
REMARK  status: ('A' for Active; 'I' for Inactive)
REMARK    1  A    between atoms: C_1  and  C_2
REMARK    2  A    between atoms: C_2  and  C_3
REMARK    3  A    between atoms: C_3  and  N_4
REMARK    4  A    between atoms: N_4  and  C_20
REMARK    5  A    between atoms: C_7  and  C_8
REMARK    6  A    between atoms: C_9  and  C_10
REMARK    7  A    between atoms: C_11  and  C_12
REMARK    8  A    between atoms: C_20  and  C_21
REMARK    9  A    between atoms: C_20  and  C_24
REMARK                            x       y       z     vdW  Elec       q    Type
REMARK                         _______ _______ _______ _____ _____    ______ ____
ROOT
ATOM      1  N   UNL     1      -0.157  12.250  18.885  0.00  0.00    +0.000 N 
ATOM      2  C   UNL     1       0.412  13.510  18.909  0.00  0.00    +0.000 A 
ATOM      3  N   UNL     1      -0.375  14.583  18.860  0.00  0.00    +0.000 NA
ATOM      4  C   UNL     1       0.167  15.807  18.743  0.00  0.00    +0.000 A 
ATOM      5  C   UNL     1      -0.836  16.916  18.608  0.00  0.00    +0.000 C 
ATOM      6  C   UNL     1       1.539  16.021  18.732  0.00  0.00    +0.000 A 
ATOM      7  C   UNL     1       2.088  17.412  18.627  0.00  0.00    +0.000 C 
ATOM      8  C   UNL     1       2.319  14.866  18.830  0.00  0.00    +0.000 A 
ATOM      9  N   UNL     1       1.750  13.636  18.922  0.00  0.00    +0.000 NA
ENDROOT
BRANCH   8  10
ATOM     10  C   UNL     1       3.815  14.839  18.910  0.00  0.00    +0.000 A 
ATOM     11  C   UNL     1       4.458  14.970  20.162  0.00  0.00    +0.000 A 
ATOM     12  C   UNL     1       5.853  15.052  20.279  0.00  0.00    +0.000 A 
ATOM     13  C   UNL     1       6.646  15.008  19.141  0.00  0.00    +0.000 A 
ATOM     14 BR   UNL     1       8.520  15.200  19.277  0.00  0.00    +0.000 Br
ATOM     15  C   UNL     1       6.058  14.822  17.899  0.00  0.00    +0.000 A 
ATOM     16  C   UNL     1       4.664  14.705  17.796  0.00  0.00    +0.000 A 
ENDBRANCH   8  10
BRANCH   1  17
ATOM     17  C   UNL     1       0.526  11.219  19.672  0.00  0.00    +0.000 C 
BRANCH  17  19
ATOM     18  C   UNL     1      -0.219  10.199  21.880  0.00  0.00    +0.000 C 
ATOM     19  C   UNL     1       0.363  11.419  21.181  0.00  0.00    +0.000 C 
ENDBRANCH  17  19
ENDBRANCH   1  17
BRANCH   1  20
ATOM     20  C   UNL     1      -1.546  12.009  18.439  0.00  0.00    +0.000 C 
BRANCH  20  21
ATOM     21  C   UNL     1      -1.616  10.956  17.349  0.00  0.00    +0.000 C 
ATOM     22  C   UNL     1      -2.657   9.861  17.343  0.00  0.00    +0.000 C 
ATOM     23  C   UNL     1      -2.678  10.908  16.269  0.00  0.00    +0.000 C 
ENDBRANCH  20  21
BRANCH  20  24
ATOM     24  C   UNL     1      -2.557  11.858  19.561  0.00  0.00    +0.000 C 
ATOM     25  C   UNL     1      -2.945  13.069  20.383  0.00  0.00    +0.000 C 
ATOM     26  C   UNL     1      -3.957  12.425  19.482  0.00  0.00    +0.000 C 
ENDBRANCH  20  24
ENDBRANCH   1  20
TORSDOF 6
ENDMDL
MODEL 7
REMARK VINA RESULT:      -5.4      3.784      7.137
REMARK  Name = 
REMARK  9 active torsions:
REMARK  status: ('A' for Active; 'I' for Inactive)
REMARK    1  A    between atoms: C_1  and  C_2
REMARK    2  A    between atoms: C_2  and  C_3
REMARK    3  A    between atoms: C_3  and  N_4
REMARK    4  A    between atoms: N_4  and  C_20
REMARK    5  A    between atoms: C_7  and  C_8
REMARK    6  A    between atoms: C_9  and  C_10
REMARK    7  A    between atoms: C_11  and  C_12
REMARK    8  A    between atoms: C_20  and  C_21
REMARK    9  A    between atoms: C_20  and  C_24
REMARK                            x       y       z     vdW  Elec       q    Type
REMARK                         _______ _______ _______ _____ _____    ______ ____
ROOT
ATOM      1  N   UNL     1      -1.033  13.427  21.691  0.00  0.00    +0.000 N 
ATOM      2  C   UNL     1      -1.247  12.566  20.630  0.00  0.00    +0.000 A 
ATOM      3  N   UNL     1      -2.368  12.673  19.919  0.00  0.00    +0.000 NA
ATOM      4  C   UNL     1      -2.654  11.759  18.976  0.00  0.00    +0.000 A 
ATOM      5  C   UNL     1      -3.988  11.949  18.316  0.00  0.00    +0.000 C 
ATOM      6  C   UNL     1      -1.792  10.719  18.656  0.00  0.00    +0.000 A 
ATOM      7  C   UNL     1      -2.150   9.744  17.575  0.00  0.00    +0.000 C 
ATOM      8  C   UNL     1      -0.611  10.678  19.402  0.00  0.00    +0.000 A 
ATOM      9  N   UNL     1      -0.353  11.598  20.367  0.00  0.00    +0.000 NA
ENDROOT
BRANCH   8  10
ATOM     10  C   UNL     1       0.505   9.699  19.198  0.00  0.00    +0.000 A 
ATOM     11  C   UNL     1       1.173   9.639  17.954  0.00  0.00    +0.000 A 
ATOM     12  C   UNL     1       2.153   8.674  17.679  0.00  0.00    +0.000 A 
ATOM     13  C   UNL     1       2.491   7.738  18.646  0.00  0.00    +0.000 A 
ATOM     14 BR   UNL     1       3.751   6.384  18.262  0.00  0.00    +0.000 Br
ATOM     15  C   UNL     1       1.902   7.800  19.900  0.00  0.00    +0.000 A 
ATOM     16  C   UNL     1       0.948   8.790  20.175  0.00  0.00    +0.000 A 
ENDBRANCH   8  10
BRANCH   1  17
ATOM     17  C   UNL     1       0.357  13.827  21.925  0.00  0.00    +0.000 C 
BRANCH  17  19
ATOM     18  C   UNL     1       2.485  13.937  20.536  0.00  0.00    +0.000 C 
ATOM     19  C   UNL     1       1.036  14.380  20.669  0.00  0.00    +0.000 C 
ENDBRANCH  17  19
ENDBRANCH   1  17
BRANCH   1  20
ATOM     20  C   UNL     1      -2.120  14.210  22.316  0.00  0.00    +0.000 C 
BRANCH  20  21
ATOM     21  C   UNL     1      -2.429  13.728  23.722  0.00  0.00    +0.000 C 
ATOM     22  C   UNL     1      -3.317  14.500  24.669  0.00  0.00    +0.000 C 
ATOM     23  C   UNL     1      -3.763  13.160  24.160  0.00  0.00    +0.000 C 
ENDBRANCH  20  21
BRANCH  20  24
ATOM     24  C   UNL     1      -1.996  15.714  22.154  0.00  0.00    +0.000 C 
ATOM     25  C   UNL     1      -2.391  16.357  20.841  0.00  0.00    +0.000 C 
ATOM     26  C   UNL     1      -3.197  16.631  22.076  0.00  0.00    +0.000 C 
ENDBRANCH  20  24
ENDBRANCH   1  20
TORSDOF 6
ENDMDL
MODEL 8
REMARK VINA RESULT:      -5.4      4.197      8.050
REMARK  Name = 
REMARK  9 active torsions:
REMARK  status: ('A' for Active; 'I' for Inactive)
REMARK    1  A    between atoms: C_1  and  C_2
REMARK    2  A    between atoms: C_2  and  C_3
REMARK    3  A    between atoms: C_3  and  N_4
REMARK    4  A    between atoms: N_4  and  C_20
REMARK    5  A    between atoms: C_7  and  C_8
REMARK    6  A    between atoms: C_9  and  C_10
REMARK    7  A    between atoms: C_11  and  C_12
REMARK    8  A    between atoms: C_20  and  C_21
REMARK    9  A    between atoms: C_20  and  C_24
REMARK                            x       y       z     vdW  Elec       q    Type
REMARK                         _______ _______ _______ _____ _____    ______ ____
ROOT
ATOM      1  N   UNL     1      -0.116  12.645  19.450  0.00  0.00    +0.000 N 
ATOM      2  C   UNL     1       0.474  13.872  19.201  0.00  0.00    +0.000 A 
ATOM      3  N   UNL     1      -0.294  14.914  18.889  0.00  0.00    +0.000 NA
ATOM      4  C   UNL     1       0.271  16.073  18.511  0.00  0.00    +0.000 A 
ATOM      5  C   UNL     1      -0.710  17.133  18.102  0.00  0.00    +0.000 C 
ATOM      6  C   UNL     1       1.646  16.264  18.486  0.00  0.00    +0.000 A 
ATOM      7  C   UNL     1       2.221  17.588  18.082  0.00  0.00    +0.000 C 
ATOM      8  C   UNL     1       2.405  15.152  18.863  0.00  0.00    +0.000 A 
ATOM      9  N   UNL     1       1.813  13.982  19.219  0.00  0.00    +0.000 NA
ENDROOT
BRANCH   8  10
ATOM     10  C   UNL     1       3.898  15.127  18.985  0.00  0.00    +0.000 A 
ATOM     11  C   UNL     1       4.695  14.877  17.845  0.00  0.00    +0.000 A 
ATOM     12  C   UNL     1       6.089  14.744  17.924  0.00  0.00    +0.000 A 
ATOM     13  C   UNL     1       6.725  14.854  19.153  0.00  0.00    +0.000 A 
ATOM     14 BR   UNL     1       8.591  14.596  19.286  0.00  0.00    +0.000 Br
ATOM     15  C   UNL     1       5.986  15.157  20.286  0.00  0.00    +0.000 A 
ATOM     16  C   UNL     1       4.596  15.324  20.190  0.00  0.00    +0.000 A 
ENDBRANCH   8  10
BRANCH   1  17
ATOM     17  C   UNL     1       0.532  11.814  20.467  0.00  0.00    +0.000 C 
BRANCH  17  19
ATOM     18  C   UNL     1       0.136   9.328  20.833  0.00  0.00    +0.000 C 
ATOM     19  C   UNL     1       0.813  10.390  19.980  0.00  0.00    +0.000 C 
ENDBRANCH  17  19
ENDBRANCH   1  17
BRANCH   1  20
ATOM     20  C   UNL     1      -1.499  12.326  19.035  0.00  0.00    +0.000 C 
BRANCH  20  21
ATOM     21  C   UNL     1      -1.534  11.253  17.963  0.00  0.00    +0.000 C 
ATOM     22  C   UNL     1      -2.592  10.175  17.926  0.00  0.00    +0.000 C 
ATOM     23  C   UNL     1      -2.543  11.203  16.833  0.00  0.00    +0.000 C 
ENDBRANCH  20  21
BRANCH  20  24
ATOM     24  C   UNL     1      -2.478  12.139  20.179  0.00  0.00    +0.000 C 
ATOM     25  C   UNL     1      -2.885  13.335  21.014  0.00  0.00    +0.000 C 
ATOM     26  C   UNL     1      -3.898  12.662  20.134  0.00  0.00    +0.000 C 
ENDBRANCH  20  24
ENDBRANCH   1  20
TORSDOF 6
ENDMDL
MODEL 9
REMARK VINA RESULT:      -5.4      4.090      7.241
REMARK  Name = 
REMARK  9 active torsions:
REMARK  status: ('A' for Active; 'I' for Inactive)
REMARK    1  A    between atoms: C_1  and  C_2
REMARK    2  A    between atoms: C_2  and  C_3
REMARK    3  A    between atoms: C_3  and  N_4
REMARK    4  A    between atoms: N_4  and  C_20
REMARK    5  A    between atoms: C_7  and  C_8
REMARK    6  A    between atoms: C_9  and  C_10
REMARK    7  A    between atoms: C_11  and  C_12
REMARK    8  A    between atoms: C_20  and  C_21
REMARK    9  A    between atoms: C_20  and  C_24
REMARK                            x       y       z     vdW  Elec       q    Type
REMARK                         _______ _______ _______ _____ _____    ______ ____
ROOT
ATOM      1  N   UNL     1       1.082  14.078  20.140  0.00  0.00    +0.000 N 
ATOM      2  C   UNL     1       0.416  12.979  19.626  0.00  0.00    +0.000 A 
ATOM      3  N   UNL     1      -0.865  13.093  19.286  0.00  0.00    +0.000 NA
ATOM      4  C   UNL     1      -1.561  12.004  18.917  0.00  0.00    +0.000 A 
ATOM      5  C   UNL     1      -3.015  12.262  18.647  0.00  0.00    +0.000 C 
ATOM      6  C   UNL     1      -0.984  10.746  18.813  0.00  0.00    +0.000 A 
ATOM      7  C   UNL     1      -1.801   9.570  18.370  0.00  0.00    +0.000 C 
ATOM      8  C   UNL     1       0.374  10.689  19.141  0.00  0.00    +0.000 A 
ATOM      9  N   UNL     1       1.052  11.798  19.534  0.00  0.00    +0.000 NA
ENDROOT
BRANCH   8  10
ATOM     10  C   UNL     1       1.236   9.467  19.041  0.00  0.00    +0.000 A 
ATOM     11  C   UNL     1       1.942   9.197  17.846  0.00  0.00    +0.000 A 
ATOM     12  C   UNL     1       2.679   8.018  17.667  0.00  0.00    +0.000 A 
ATOM     13  C   UNL     1       2.729   7.072  18.681  0.00  0.00    +0.000 A 
ATOM     14 BR   UNL     1       3.651   5.444  18.422  0.00  0.00    +0.000 Br
ATOM     15  C   UNL     1       2.099   7.326  19.890  0.00  0.00    +0.000 A 
ATOM     16  C   UNL     1       1.393   8.524  20.072  0.00  0.00    +0.000 A 
ENDBRANCH   8  10
BRANCH   1  17
ATOM     17  C   UNL     1       2.499  14.195  19.785  0.00  0.00    +0.000 C 
BRANCH  17  19
ATOM     18  C   UNL     1       3.432  15.454  17.781  0.00  0.00    +0.000 C 
ATOM     19  C   UNL     1       2.734  14.194  18.272  0.00  0.00    +0.000 C 
ENDBRANCH  17  19
ENDBRANCH   1  17
BRANCH   1  20
ATOM     20  C   UNL     1       0.376  15.260  20.677  0.00  0.00    +0.000 C 
BRANCH  20  21
ATOM     21  C   UNL     1       0.684  15.484  22.145  0.00  0.00    +0.000 C 
ATOM     22  C   UNL     1       0.800  16.864  22.750  0.00  0.00    +0.000 C 
ATOM     23  C   UNL     1      -0.324  15.963  23.171  0.00  0.00    +0.000 C 
ENDBRANCH  20  21
BRANCH  20  24
ATOM     24  C   UNL     1       0.444  16.495  19.798  0.00  0.00    +0.000 C 
ATOM     25  C   UNL     1      -0.285  16.507  18.471  0.00  0.00    +0.000 C 
ATOM     26  C   UNL     1      -0.741  17.411  19.579  0.00  0.00    +0.000 C 
ENDBRANCH  20  24
ENDBRANCH   1  20
TORSDOF 6
ENDMDL
