MODEL 1
REMARK VINA RESULT:      -9.1      0.000      0.000
REMARK  Name = 
REMARK  5 active torsions:
REMARK  status: ('A' for Active; 'I' for Inactive)
REMARK    1  A    between atoms: C_1  and  C_2
REMARK    2  A    between atoms: C_2  and  C_3
REMARK    3  A    between atoms: C_2  and  C_4
REMARK    4  A    between atoms: C_2  and  C_10
REMARK    5  A    between atoms: C_20  and  C_21
REMARK                            x       y       z     vdW  Elec       q    Type
REMARK                         _______ _______ _______ _____ _____    ______ ____
ROOT
ATOM      1  C   UNL     1       2.670   6.121  18.863  0.00  0.00    +0.000 A 
ATOM      2  N   UNL     1       2.491   6.953  17.847  0.00  0.00    +0.000 NA
ATOM      3  C   UNL     1       1.968   8.095  18.394  0.00  0.00    +0.000 A 
ATOM      4  C   UNL     1       1.545   9.290  17.813  0.00  0.00    +0.000 A 
ATOM      5  C   UNL     1       1.006  10.247  18.680  0.00  0.00    +0.000 A 
ATOM      6  C   UNL     1       0.909  10.001  20.062  0.00  0.00    +0.000 A 
ATOM      7  N   UNL     1       0.215  10.945  20.838  0.00  0.00    +0.000 N 
ATOM      8  C   UNL     1      -0.326  10.401  22.088  0.00  0.00    +0.000 C 
ATOM      9  C   UNL     1      -1.395  11.370  22.591  0.00  0.00    +0.000 C 
ATOM     10  C   UNL     1      -0.848  12.789  22.740  0.00  0.00    +0.000 C 
ATOM     11  C   UNL     1      -0.129  13.265  21.467  0.00  0.00    +0.000 C 
ATOM     12  C   UNL     1       0.917  12.228  21.025  0.00  0.00    +0.000 C 
ATOM     13  N   UNL     1       1.343   8.856  20.641  0.00  0.00    +0.000 NA
ATOM     14  C   UNL     1       1.846   7.970  19.768  0.00  0.00    +0.000 A 
ATOM     15  N   UNL     1       2.325   6.725  20.053  0.00  0.00    +0.000 N 
ATOM     16  H   UNL     1       2.368   6.317  20.975  0.00  0.00    +0.000 HD
ENDROOT
BRANCH  11  17
ATOM     17  C   UNL     1       0.515  14.631  21.677  0.00  0.00    +0.000 C 
ATOM     18  O   UNL     1       1.281  14.842  22.618  0.00  0.00    +0.000 OA
ATOM     19  N   UNL     1       0.204  15.622  20.769  0.00  0.00    +0.000 N 
ATOM     20  C   UNL     1      -0.648  15.530  19.596  0.00  0.00    +0.000 C 
ATOM     21  C   UNL     1      -0.032  16.526  18.635  0.00  0.00    +0.000 C 
ATOM     22  C   UNL     1       0.436  17.647  19.556  0.00  0.00    +0.000 C 
ATOM     23  C   UNL     1       0.812  16.939  20.857  0.00  0.00    +0.000 C 
ENDBRANCH  11  17
BRANCH   1  25
ATOM     24  C   UNL     1       2.251   3.883  17.900  0.00  0.00    +0.000 C 
ATOM     25  C   UNL     1       3.230   4.707  18.772  0.00  0.00    +0.000 C 
ATOM     26  C   UNL     1       3.206   4.079  20.190  0.00  0.00    +0.000 C 
BRANCH  25  27
ATOM     27  C   UNL     1       4.684   4.672  18.250  0.00  0.00    +0.000 A 
ATOM     28  C   UNL     1       5.778   5.093  19.032  0.00  0.00    +0.000 A 
ATOM     29  C   UNL     1       7.078   5.121  18.519  0.00  0.00    +0.000 A 
ATOM     30  C   UNL     1       7.321   4.719  17.210  0.00  0.00    +0.000 A 
ATOM     31  C   UNL     1       6.263   4.273  16.422  0.00  0.00    +0.000 A 
ATOM     32  C   UNL     1       4.963   4.244  16.938  0.00  0.00    +0.000 A 
ENDBRANCH  25  27
ENDBRANCH   1  25
TORSDOF 3
ENDMDL
MODEL 2
REMARK VINA RESULT:      -9.1      2.401      3.608
REMARK  Name = 
REMARK  5 active torsions:
REMARK  status: ('A' for Active; 'I' for Inactive)
REMARK    1  A    between atoms: C_1  and  C_2
REMARK    2  A    between atoms: C_2  and  C_3
REMARK    3  A    between atoms: C_2  and  C_4
REMARK    4  A    between atoms: C_2  and  C_10
REMARK    5  A    between atoms: C_20  and  C_21
REMARK                            x       y       z     vdW  Elec       q    Type
REMARK                         _______ _______ _______ _____ _____    ______ ____
ROOT
ATOM      1  C   UNL     1       3.225   4.931  18.762  0.00  0.00    +0.000 A 
ATOM      2  N   UNL     1       2.763   5.016  20.002  0.00  0.00    +0.000 NA
ATOM      3  C   UNL     1       2.190   6.257  20.096  0.00  0.00    +0.000 A 
ATOM      4  C   UNL     1       1.579   6.915  21.164  0.00  0.00    +0.000 A 
ATOM      5  C   UNL     1       1.140   8.221  20.920  0.00  0.00    +0.000 A 
ATOM      6  C   UNL     1       1.309   8.819  19.658  0.00  0.00    +0.000 A 
ATOM      7  N   UNL     1       0.984  10.182  19.540  0.00  0.00    +0.000 N 
ATOM      8  C   UNL     1       1.673  10.862  18.439  0.00  0.00    +0.000 C 
ATOM      9  C   UNL     1       1.585  12.365  18.695  0.00  0.00    +0.000 C 
ATOM     10  C   UNL     1       0.139  12.826  18.876  0.00  0.00    +0.000 C 
ATOM     11  C   UNL     1      -0.611  11.975  19.914  0.00  0.00    +0.000 C 
ATOM     12  C   UNL     1      -0.460  10.479  19.588  0.00  0.00    +0.000 C 
ATOM     13  N   UNL     1       1.873   8.179  18.606  0.00  0.00    +0.000 NA
ATOM     14  C   UNL     1       2.282   6.933  18.892  0.00  0.00    +0.000 A 
ATOM     15  N   UNL     1       2.912   6.067  18.047  0.00  0.00    +0.000 N 
ATOM     16  H   UNL     1       3.142   6.259  17.084  0.00  0.00    +0.000 HD
ENDROOT
BRANCH  11  17
ATOM     17  C   UNL     1      -2.081  12.368  19.989  0.00  0.00    +0.000 C 
ATOM     18  O   UNL     1      -2.781  12.438  18.979  0.00  0.00    +0.000 OA
ATOM     19  N   UNL     1      -2.598  12.644  21.240  0.00  0.00    +0.000 N 
ATOM     20  C   UNL     1      -1.923  12.579  22.524  0.00  0.00    +0.000 C 
ATOM     21  C   UNL     1      -3.032  12.201  23.485  0.00  0.00    +0.000 C 
ATOM     22  C   UNL     1      -4.239  12.945  22.925  0.00  0.00    +0.000 C 
ATOM     23  C   UNL     1      -4.002  12.975  21.415  0.00  0.00    +0.000 C 
ENDBRANCH  11  17
BRANCH   1  25
ATOM     24  C   UNL     1       2.886   2.843  17.483  0.00  0.00    +0.000 C 
ATOM     25  C   UNL     1       3.954   3.736  18.161  0.00  0.00    +0.000 C 
ATOM     26  C   UNL     1       4.568   2.905  19.317  0.00  0.00    +0.000 C 
BRANCH  25  27
ATOM     27  C   UNL     1       5.094   4.151  17.203  0.00  0.00    +0.000 A 
ATOM     28  C   UNL     1       4.958   4.096  15.801  0.00  0.00    +0.000 A 
ATOM     29  C   UNL     1       6.023   4.407  14.949  0.00  0.00    +0.000 A 
ATOM     30  C   UNL     1       7.250   4.791  15.478  0.00  0.00    +0.000 A 
ATOM     31  C   UNL     1       7.405   4.879  16.859  0.00  0.00    +0.000 A 
ATOM     32  C   UNL     1       6.339   4.568  17.709  0.00  0.00    +0.000 A 
ENDBRANCH  25  27
ENDBRANCH   1  25
TORSDOF 3
ENDMDL
MODEL 3
REMARK VINA RESULT:      -8.8      1.143      2.649
REMARK  Name = 
REMARK  5 active torsions:
REMARK  status: ('A' for Active; 'I' for Inactive)
REMARK    1  A    between atoms: C_1  and  C_2
REMARK    2  A    between atoms: C_2  and  C_3
REMARK    3  A    between atoms: C_2  and  C_4
REMARK    4  A    between atoms: C_2  and  C_10
REMARK    5  A    between atoms: C_20  and  C_21
REMARK                            x       y       z     vdW  Elec       q    Type
REMARK                         _______ _______ _______ _____ _____    ______ ____
ROOT
ATOM      1  C   UNL     1       2.764   6.729  18.862  0.00  0.00    +0.000 A 
ATOM      2  N   UNL     1       2.451   7.568  17.884  0.00  0.00    +0.000 NA
ATOM      3  C   UNL     1       1.836   8.630  18.493  0.00  0.00    +0.000 A 
ATOM      4  C   UNL     1       1.263   9.790  17.972  0.00  0.00    +0.000 A 
ATOM      5  C   UNL     1       0.665  10.656  18.895  0.00  0.00    +0.000 A 
ATOM      6  C   UNL     1       0.657  10.359  20.270  0.00  0.00    +0.000 A 
ATOM      7  N   UNL     1      -0.097  11.198  21.107  0.00  0.00    +0.000 N 
ATOM      8  C   UNL     1      -0.519  10.562  22.358  0.00  0.00    +0.000 C 
ATOM      9  C   UNL     1      -1.660  11.394  22.940  0.00  0.00    +0.000 C 
ATOM     10  C   UNL     1      -1.261  12.859  23.116  0.00  0.00    +0.000 C 
ATOM     11  C   UNL     1      -0.656  13.448  21.832  0.00  0.00    +0.000 C 
ATOM     12  C   UNL     1       0.473  12.544  21.310  0.00  0.00    +0.000 C 
ATOM     13  N   UNL     1       1.237   9.250  20.789  0.00  0.00    +0.000 NA
ATOM     14  C   UNL     1       1.791   8.451  19.865  0.00  0.00    +0.000 A 
ATOM     15  N   UNL     1       2.412   7.256  20.086  0.00  0.00    +0.000 N 
ATOM     16  H   UNL     1       2.540   6.827  20.990  0.00  0.00    +0.000 HD
ENDROOT
BRANCH  11  17
ATOM     17  C   UNL     1      -0.151  14.868  22.063  0.00  0.00    +0.000 C 
ATOM     18  O   UNL     1       0.398  15.192  23.117  0.00  0.00    +0.000 OA
ATOM     19  N   UNL     1      -0.335  15.778  21.041  0.00  0.00    +0.000 N 
ATOM     20  C   UNL     1      -0.929  15.553  19.735  0.00  0.00    +0.000 C 
ATOM     21  C   UNL     1      -0.195  16.532  18.841  0.00  0.00    +0.000 C 
ATOM     22  C   UNL     1       0.010  17.738  19.752  0.00  0.00    +0.000 C 
ATOM     23  C   UNL     1       0.162  17.139  21.150  0.00  0.00    +0.000 C 
ENDBRANCH  11  17
BRANCH   1  25
ATOM     24  C   UNL     1       4.804   5.475  19.472  0.00  0.00    +0.000 C 
ATOM     25  C   UNL     1       3.466   5.388  18.698  0.00  0.00    +0.000 C 
ATOM     26  C   UNL     1       3.825   5.203  17.200  0.00  0.00    +0.000 C 
BRANCH  25  27
ATOM     27  C   UNL     1       2.588   4.194  19.138  0.00  0.00    +0.000 A 
ATOM     28  C   UNL     1       1.703   3.543  18.256  0.00  0.00    +0.000 A 
ATOM     29  C   UNL     1       0.865   2.510  18.689  0.00  0.00    +0.000 A 
ATOM     30  C   UNL     1       0.897   2.095  20.015  0.00  0.00    +0.000 A 
ATOM     31  C   UNL     1       1.781   2.703  20.903  0.00  0.00    +0.000 A 
ATOM     32  C   UNL     1       2.620   3.734  20.467  0.00  0.00    +0.000 A 
ENDBRANCH  25  27
ENDBRANCH   1  25
TORSDOF 3
ENDMDL
MODEL 4
REMARK VINA RESULT:      -8.6      1.068      1.150
REMARK  Name = 
REMARK  5 active torsions:
REMARK  status: ('A' for Active; 'I' for Inactive)
REMARK    1  A    between atoms: C_1  and  C_2
REMARK    2  A    between atoms: C_2  and  C_3
REMARK    3  A    between atoms: C_2  and  C_4
REMARK    4  A    between atoms: C_2  and  C_10
REMARK    5  A    between atoms: C_20  and  C_21
REMARK                            x       y       z     vdW  Elec       q    Type
REMARK                         _______ _______ _______ _____ _____    ______ ____
ROOT
ATOM      1  C   UNL     1       3.183   5.709  18.599  0.00  0.00    +0.000 A 
ATOM      2  N   UNL     1       2.932   6.560  17.615  0.00  0.00    +0.000 NA
ATOM      3  C   UNL     1       2.336   7.643  18.207  0.00  0.00    +0.000 A 
ATOM      4  C   UNL     1       1.821   8.824  17.672  0.00  0.00    +0.000 A 
ATOM      5  C   UNL     1       1.226   9.709  18.577  0.00  0.00    +0.000 A 
ATOM      6  C   UNL     1       1.165   9.410  19.951  0.00  0.00    +0.000 A 
ATOM      7  N   UNL     1       0.415  10.275  20.767  0.00  0.00    +0.000 N 
ATOM      8  C   UNL     1      -0.068   9.651  22.002  0.00  0.00    +0.000 C 
ATOM      9  C   UNL     1      -1.197  10.523  22.551  0.00  0.00    +0.000 C 
ATOM     10  C   UNL     1      -0.752  11.972  22.743  0.00  0.00    +0.000 C 
ATOM     11  C   UNL     1      -0.085  12.542  21.479  0.00  0.00    +0.000 C 
ATOM     12  C   UNL     1       1.026  11.598  20.990  0.00  0.00    +0.000 C 
ATOM     13  N   UNL     1       1.688   8.281  20.485  0.00  0.00    +0.000 NA
ATOM     14  C   UNL     1       2.241   7.463  19.577  0.00  0.00    +0.000 A 
ATOM     15  N   UNL     1       2.812   6.247  19.813  0.00  0.00    +0.000 N 
ATOM     16  H   UNL     1       2.897   5.812  20.720  0.00  0.00    +0.000 HD
ENDROOT
BRANCH  11  17
ATOM     17  C   UNL     1       0.462  13.942  21.730  0.00  0.00    +0.000 C 
ATOM     18  O   UNL     1       1.631  14.124  22.071  0.00  0.00    +0.000 OA
ATOM     19  N   UNL     1      -0.409  15.000  21.559  0.00  0.00    +0.000 N 
ATOM     20  C   UNL     1      -1.796  14.961  21.133  0.00  0.00    +0.000 C 
ATOM     21  C   UNL     1      -1.975  16.273  20.396  0.00  0.00    +0.000 C 
ATOM     22  C   UNL     1      -1.108  17.237  21.198  0.00  0.00    +0.000 C 
ATOM     23  C   UNL     1       0.038  16.373  21.722  0.00  0.00    +0.000 C 
ENDBRANCH  11  17
BRANCH   1  25
ATOM     24  C   UNL     1       2.733   3.343  18.047  0.00  0.00    +0.000 C 
ATOM     25  C   UNL     1       3.842   4.344  18.453  0.00  0.00    +0.000 C 
ATOM     26  C   UNL     1       4.361   3.899  19.845  0.00  0.00    +0.000 C 
BRANCH  25  27
ATOM     27  C   UNL     1       5.035   4.357  17.471  0.00  0.00    +0.000 A 
ATOM     28  C   UNL     1       6.358   4.598  17.894  0.00  0.00    +0.000 A 
ATOM     29  C   UNL     1       7.416   4.675  16.982  0.00  0.00    +0.000 A 
ATOM     30  C   UNL     1       7.179   4.505  15.623  0.00  0.00    +0.000 A 
ATOM     31  C   UNL     1       5.886   4.240  15.179  0.00  0.00    +0.000 A 
ATOM     32  C   UNL     1       4.830   4.161  16.093  0.00  0.00    +0.000 A 
ENDBRANCH  25  27
ENDBRANCH   1  25
TORSDOF 3
ENDMDL
MODEL 5
REMARK VINA RESULT:      -8.6      2.557      4.131
REMARK  Name = 
REMARK  5 active torsions:
REMARK  status: ('A' for Active; 'I' for Inactive)
REMARK    1  A    between atoms: C_1  and  C_2
REMARK    2  A    between atoms: C_2  and  C_3
REMARK    3  A    between atoms: C_2  and  C_4
REMARK    4  A    between atoms: C_2  and  C_10
REMARK    5  A    between atoms: C_20  and  C_21
REMARK                            x       y       z     vdW  Elec       q    Type
REMARK                         _______ _______ _______ _____ _____    ______ ____
ROOT
ATOM      1  C   UNL     1       3.437   6.540  18.674  0.00  0.00    +0.000 A 
ATOM      2  N   UNL     1       2.884   6.380  19.868  0.00  0.00    +0.000 NA
ATOM      3  C   UNL     1       2.065   7.464  20.041  0.00  0.00    +0.000 A 
ATOM      4  C   UNL     1       1.261   7.855  21.113  0.00  0.00    +0.000 A 
ATOM      5  C   UNL     1       0.582   9.070  20.970  0.00  0.00    +0.000 A 
ATOM      6  C   UNL     1       0.709   9.840  19.799  0.00  0.00    +0.000 A 
ATOM      7  N   UNL     1       0.121  11.116  19.798  0.00  0.00    +0.000 N 
ATOM      8  C   UNL     1       0.729  12.047  18.843  0.00  0.00    +0.000 C 
ATOM      9  C   UNL     1       0.318  13.461  19.248  0.00  0.00    +0.000 C 
ATOM     10  C   UNL     1      -1.200  13.605  19.344  0.00  0.00    +0.000 C 
ATOM     11  C   UNL     1      -1.828  12.503  20.214  0.00  0.00    +0.000 C 
ATOM     12  C   UNL     1      -1.353  11.117  19.746  0.00  0.00    +0.000 C 
ATOM     13  N   UNL     1       1.463   9.455  18.741  0.00  0.00    +0.000 NA
ATOM     14  C   UNL     1       2.097   8.288  18.929  0.00  0.00    +0.000 A 
ATOM     15  N   UNL     1       2.947   7.672  18.058  0.00  0.00    +0.000 N 
ATOM     16  H   UNL     1       3.198   8.022  17.146  0.00  0.00    +0.000 HD
ENDROOT
BRANCH  11  17
ATOM     17  C   UNL     1      -3.350  12.589  20.197  0.00  0.00    +0.000 C 
ATOM     18  O   UNL     1      -3.997  12.333  19.181  0.00  0.00    +0.000 OA
ATOM     19  N   UNL     1      -3.974  12.967  21.369  0.00  0.00    +0.000 N 
ATOM     20  C   UNL     1      -3.366  13.269  22.653  0.00  0.00    +0.000 C 
ATOM     21  C   UNL     1      -4.423  12.843  23.652  0.00  0.00    +0.000 C 
ATOM     22  C   UNL     1      -5.725  13.210  22.949  0.00  0.00    +0.000 C 
ATOM     23  C   UNL     1      -5.423  13.024  21.463  0.00  0.00    +0.000 C 
ENDBRANCH  11  17
BRANCH   1  25
ATOM     24  C   UNL     1       5.824   5.899  18.630  0.00  0.00    +0.000 C 
ATOM     25  C   UNL     1       4.435   5.594  18.018  0.00  0.00    +0.000 C 
ATOM     26  C   UNL     1       4.522   5.943  16.509  0.00  0.00    +0.000 C 
BRANCH  25  27
ATOM     27  C   UNL     1       4.028   4.109  18.150  0.00  0.00    +0.000 A 
ATOM     28  C   UNL     1       3.068   3.511  17.308  0.00  0.00    +0.000 A 
ATOM     29  C   UNL     1       2.661   2.186  17.486  0.00  0.00    +0.000 A 
ATOM     30  C   UNL     1       3.209   1.419  18.508  0.00  0.00    +0.000 A 
ATOM     31  C   UNL     1       4.177   1.975  19.340  0.00  0.00    +0.000 A 
ATOM     32  C   UNL     1       4.586   3.301  19.158  0.00  0.00    +0.000 A 
ENDBRANCH  25  27
ENDBRANCH   1  25
TORSDOF 3
ENDMDL
MODEL 6
REMARK VINA RESULT:      -8.6      0.961      1.433
REMARK  Name = 
REMARK  5 active torsions:
REMARK  status: ('A' for Active; 'I' for Inactive)
REMARK    1  A    between atoms: C_1  and  C_2
REMARK    2  A    between atoms: C_2  and  C_3
REMARK    3  A    between atoms: C_2  and  C_4
REMARK    4  A    between atoms: C_2  and  C_10
REMARK    5  A    between atoms: C_20  and  C_21
REMARK                            x       y       z     vdW  Elec       q    Type
REMARK                         _______ _______ _______ _____ _____    ______ ____
ROOT
ATOM      1  C   UNL     1       3.329   5.939  18.512  0.00  0.00    +0.000 A 
ATOM      2  N   UNL     1       2.909   6.749  17.552  0.00  0.00    +0.000 NA
ATOM      3  C   UNL     1       2.242   7.762  18.190  0.00  0.00    +0.000 A 
ATOM      4  C   UNL     1       1.558   8.873  17.698  0.00  0.00    +0.000 A 
ATOM      5  C   UNL     1       0.938   9.692  18.648  0.00  0.00    +0.000 A 
ATOM      6  C   UNL     1       1.015   9.397  20.022  0.00  0.00    +0.000 A 
ATOM      7  N   UNL     1       0.238  10.177  20.895  0.00  0.00    +0.000 N 
ATOM      8  C   UNL     1      -0.077   9.511  22.162  0.00  0.00    +0.000 C 
ATOM      9  C   UNL     1      -1.252  10.254  22.797  0.00  0.00    +0.000 C 
ATOM     10  C   UNL     1      -0.959  11.745  22.958  0.00  0.00    +0.000 C 
ATOM     11  C   UNL     1      -0.460  12.378  21.648  0.00  0.00    +0.000 C 
ATOM     12  C   UNL     1       0.710  11.563  21.073  0.00  0.00    +0.000 C 
ATOM     13  N   UNL     1       1.702   8.337  20.512  0.00  0.00    +0.000 NA
ATOM     14  C   UNL     1       2.273   7.582  19.562  0.00  0.00    +0.000 A 
ATOM     15  N   UNL     1       2.994   6.439  19.752  0.00  0.00    +0.000 N 
ATOM     16  H   UNL     1       3.196   6.022  20.648  0.00  0.00    +0.000 HD
ENDROOT
BRANCH  11  17
ATOM     17  C   UNL     1      -0.057  13.833  21.859  0.00  0.00    +0.000 C 
ATOM     18  O   UNL     1       0.422  14.219  22.926  0.00  0.00    +0.000 OA
ATOM     19  N   UNL     1      -0.251  14.701  20.804  0.00  0.00    +0.000 N 
ATOM     20  C   UNL     1      -0.769  14.404  19.480  0.00  0.00    +0.000 C 
ATOM     21  C   UNL     1      -0.059  15.404  18.591  0.00  0.00    +0.000 C 
ATOM     22  C   UNL     1       0.029  16.644  19.474  0.00  0.00    +0.000 C 
ATOM     23  C   UNL     1       0.154  16.094  20.894  0.00  0.00    +0.000 C 
ENDBRANCH  11  17
BRANCH   1  25
ATOM     24  C   UNL     1       3.104   3.494  18.225  0.00  0.00    +0.000 C 
ATOM     25  C   UNL     1       4.125   4.655  18.313  0.00  0.00    +0.000 C 
ATOM     26  C   UNL     1       4.979   4.407  19.584  0.00  0.00    +0.000 C 
BRANCH  25  27
ATOM     27  C   UNL     1       5.074   4.722  17.095  0.00  0.00    +0.000 A 
ATOM     28  C   UNL     1       4.791   4.064  15.882  0.00  0.00    +0.000 A 
ATOM     29  C   UNL     1       5.693   4.077  14.813  0.00  0.00    +0.000 A 
ATOM     30  C   UNL     1       6.901   4.755  14.928  0.00  0.00    +0.000 A 
ATOM     31  C   UNL     1       7.196   5.436  16.107  0.00  0.00    +0.000 A 
ATOM     32  C   UNL     1       6.291   5.424  17.174  0.00  0.00    +0.000 A 
ENDBRANCH  25  27
ENDBRANCH   1  25
TORSDOF 3
ENDMDL
MODEL 7
REMARK VINA RESULT:      -8.5      2.489      3.704
REMARK  Name = 
REMARK  5 active torsions:
REMARK  status: ('A' for Active; 'I' for Inactive)
REMARK    1  A    between atoms: C_1  and  C_2
REMARK    2  A    between atoms: C_2  and  C_3
REMARK    3  A    between atoms: C_2  and  C_4
REMARK    4  A    between atoms: C_2  and  C_10
REMARK    5  A    between atoms: C_20  and  C_21
REMARK                            x       y       z     vdW  Elec       q    Type
REMARK                         _______ _______ _______ _____ _____    ______ ____
ROOT
ATOM      1  C   UNL     1       3.199   5.016  18.792  0.00  0.00    +0.000 A 
ATOM      2  N   UNL     1       2.738   5.127  20.030  0.00  0.00    +0.000 NA
ATOM      3  C   UNL     1       2.167   6.371  20.100  0.00  0.00    +0.000 A 
ATOM      4  C   UNL     1       1.558   7.052  21.154  0.00  0.00    +0.000 A 
ATOM      5  C   UNL     1       1.121   8.353  20.883  0.00  0.00    +0.000 A 
ATOM      6  C   UNL     1       1.289   8.925  19.609  0.00  0.00    +0.000 A 
ATOM      7  N   UNL     1       0.966  10.285  19.464  0.00  0.00    +0.000 N 
ATOM      8  C   UNL     1       1.654  10.941  18.348  0.00  0.00    +0.000 C 
ATOM      9  C   UNL     1       1.569  12.450  18.573  0.00  0.00    +0.000 C 
ATOM     10  C   UNL     1       0.124  12.916  18.746  0.00  0.00    +0.000 C 
ATOM     11  C   UNL     1      -0.626  12.088  19.802  0.00  0.00    +0.000 C 
ATOM     12  C   UNL     1      -0.477  10.586  19.507  0.00  0.00    +0.000 C 
ATOM     13  N   UNL     1       1.851   8.262  18.570  0.00  0.00    +0.000 NA
ATOM     14  C   UNL     1       2.258   7.022  18.881  0.00  0.00    +0.000 A 
ATOM     15  N   UNL     1       2.886   6.137  18.054  0.00  0.00    +0.000 N 
ATOM     16  H   UNL     1       3.116   6.310  17.087  0.00  0.00    +0.000 HD
ENDROOT
BRANCH  11  17
ATOM     17  C   UNL     1      -2.096  12.485  19.871  0.00  0.00    +0.000 C 
ATOM     18  O   UNL     1      -2.502  13.307  20.693  0.00  0.00    +0.000 OA
ATOM     19  N   UNL     1      -2.954  11.886  18.971  0.00  0.00    +0.000 N 
ATOM     20  C   UNL     1      -2.635  10.931  17.925  0.00  0.00    +0.000 C 
ATOM     21  C   UNL     1      -3.662  11.228  16.852  0.00  0.00    +0.000 C 
ATOM     22  C   UNL     1      -4.905  11.587  17.658  0.00  0.00    +0.000 C 
ATOM     23  C   UNL     1      -4.362  12.243  18.926  0.00  0.00    +0.000 C 
ENDBRANCH  11  17
BRANCH   1  25
ATOM     24  C   UNL     1       2.858   2.913  17.539  0.00  0.00    +0.000 C 
ATOM     25  C   UNL     1       3.925   3.808  18.215  0.00  0.00    +0.000 C 
ATOM     26  C   UNL     1       4.522   2.989  19.389  0.00  0.00    +0.000 C 
BRANCH  25  27
ATOM     27  C   UNL     1       5.077   4.201  17.262  0.00  0.00    +0.000 A 
ATOM     28  C   UNL     1       4.946   4.153  15.860  0.00  0.00    +0.000 A 
ATOM     29  C   UNL     1       6.020   4.445  15.013  0.00  0.00    +0.000 A 
ATOM     30  C   UNL     1       7.253   4.801  15.548  0.00  0.00    +0.000 A 
ATOM     31  C   UNL     1       7.405   4.881  16.930  0.00  0.00    +0.000 A 
ATOM     32  C   UNL     1       6.328   4.591  17.775  0.00  0.00    +0.000 A 
ENDBRANCH  25  27
ENDBRANCH   1  25
TORSDOF 3
ENDMDL
MODEL 8
REMARK VINA RESULT:      -8.5      1.384      1.406
REMARK  Name = 
REMARK  5 active torsions:
REMARK  status: ('A' for Active; 'I' for Inactive)
REMARK    1  A    between atoms: C_1  and  C_2
REMARK    2  A    between atoms: C_2  and  C_3
REMARK    3  A    between atoms: C_2  and  C_4
REMARK    4  A    between atoms: C_2  and  C_10
REMARK    5  A    between atoms: C_20  and  C_21
REMARK                            x       y       z     vdW  Elec       q    Type
REMARK                         _______ _______ _______ _____ _____    ______ ____
ROOT
ATOM      1  C   UNL     1       2.532   6.874  19.018  0.00  0.00    +0.000 A 
ATOM      2  N   UNL     1       2.227   7.722  18.046  0.00  0.00    +0.000 NA
ATOM      3  C   UNL     1       1.617   8.783  18.662  0.00  0.00    +0.000 A 
ATOM      4  C   UNL     1       1.051   9.950  18.149  0.00  0.00    +0.000 A 
ATOM      5  C   UNL     1       0.457  10.813  19.077  0.00  0.00    +0.000 A 
ATOM      6  C   UNL     1       0.444  10.506  20.449  0.00  0.00    +0.000 A 
ATOM      7  N   UNL     1      -0.307  11.343  21.292  0.00  0.00    +0.000 N 
ATOM      8  C   UNL     1      -0.736  10.699  22.537  0.00  0.00    +0.000 C 
ATOM      9  C   UNL     1      -1.873  11.534  23.123  0.00  0.00    +0.000 C 
ATOM     10  C   UNL     1      -1.466  12.995  23.311  0.00  0.00    +0.000 C 
ATOM     11  C   UNL     1      -0.854  13.590  22.032  0.00  0.00    +0.000 C 
ATOM     12  C   UNL     1       0.271  12.683  21.505  0.00  0.00    +0.000 C 
ATOM     13  N   UNL     1       1.016   9.390  20.961  0.00  0.00    +0.000 NA
ATOM     14  C   UNL     1       1.567   8.594  20.033  0.00  0.00    +0.000 A 
ATOM     15  N   UNL     1       2.181   7.394  20.246  0.00  0.00    +0.000 N 
ATOM     16  H   UNL     1       2.305   6.958  21.147  0.00  0.00    +0.000 HD
ENDROOT
BRANCH  11  17
ATOM     17  C   UNL     1      -0.342  15.005  22.275  0.00  0.00    +0.000 C 
ATOM     18  O   UNL     1       0.779  15.213  22.741  0.00  0.00    +0.000 OA
ATOM     19  N   UNL     1      -1.188  16.047  21.951  0.00  0.00    +0.000 N 
ATOM     20  C   UNL     1      -2.516  15.977  21.368  0.00  0.00    +0.000 C 
ATOM     21  C   UNL     1      -2.610  17.249  20.550  0.00  0.00    +0.000 C 
ATOM     22  C   UNL     1      -1.844  18.258  21.399  0.00  0.00    +0.000 C 
ATOM     23  C   UNL     1      -0.766  17.430  22.097  0.00  0.00    +0.000 C 
ENDBRANCH  11  17
BRANCH   1  25
ATOM     24  C   UNL     1       2.419   4.730  17.795  0.00  0.00    +0.000 C 
ATOM     25  C   UNL     1       3.228   5.530  18.845  0.00  0.00    +0.000 C 
ATOM     26  C   UNL     1       3.124   4.749  20.181  0.00  0.00    +0.000 C 
BRANCH  25  27
ATOM     27  C   UNL     1       4.723   5.671  18.480  0.00  0.00    +0.000 A 
ATOM     28  C   UNL     1       5.753   5.220  19.329  0.00  0.00    +0.000 A 
ATOM     29  C   UNL     1       7.101   5.419  19.014  0.00  0.00    +0.000 A 
ATOM     30  C   UNL     1       7.455   6.068  17.837  0.00  0.00    +0.000 A 
ATOM     31  C   UNL     1       6.458   6.502  16.967  0.00  0.00    +0.000 A 
ATOM     32  C   UNL     1       5.110   6.300  17.282  0.00  0.00    +0.000 A 
ENDBRANCH  25  27
ENDBRANCH   1  25
TORSDOF 3
ENDMDL
MODEL 9
REMARK VINA RESULT:      -8.4      1.512      2.609
REMARK  Name = 
REMARK  5 active torsions:
REMARK  status: ('A' for Active; 'I' for Inactive)
REMARK    1  A    between atoms: C_1  and  C_2
REMARK    2  A    between atoms: C_2  and  C_3
REMARK    3  A    between atoms: C_2  and  C_4
REMARK    4  A    between atoms: C_2  and  C_10
REMARK    5  A    between atoms: C_20  and  C_21
REMARK                            x       y       z     vdW  Elec       q    Type
REMARK                         _______ _______ _______ _____ _____    ______ ____
ROOT
ATOM      1  C   UNL     1       2.853   6.794  18.682  0.00  0.00    +0.000 A 
ATOM      2  N   UNL     1       2.438   7.624  17.736  0.00  0.00    +0.000 NA
ATOM      3  C   UNL     1       1.795   8.640  18.393  0.00  0.00    +0.000 A 
ATOM      4  C   UNL     1       1.125   9.769  17.922  0.00  0.00    +0.000 A 
ATOM      5  C   UNL     1       0.529  10.587  18.889  0.00  0.00    +0.000 A 
ATOM      6  C   UNL     1       0.615  10.274  20.258  0.00  0.00    +0.000 A 
ATOM      7  N   UNL     1      -0.140  11.056  21.148  0.00  0.00    +0.000 N 
ATOM      8  C   UNL     1      -0.453  10.380  22.411  0.00  0.00    +0.000 C 
ATOM      9  C   UNL     1      -1.608  11.135  23.067  0.00  0.00    +0.000 C 
ATOM     10  C   UNL     1      -1.288  12.619  23.242  0.00  0.00    +0.000 C 
ATOM     11  C   UNL     1      -0.791  13.259  21.936  0.00  0.00    +0.000 C 
ATOM     12  C   UNL     1       0.359  12.431  21.339  0.00  0.00    +0.000 C 
ATOM     13  N   UNL     1       1.288   9.196  20.728  0.00  0.00    +0.000 NA
ATOM     14  C   UNL     1       1.837   8.442  19.763  0.00  0.00    +0.000 A 
ATOM     15  N   UNL     1       2.539   7.285  19.931  0.00  0.00    +0.000 N 
ATOM     16  H   UNL     1       2.743   6.854  20.820  0.00  0.00    +0.000 HD
ENDROOT
BRANCH  11  17
ATOM     17  C   UNL     1      -0.361  14.704  22.160  0.00  0.00    +0.000 C 
ATOM     18  O   UNL     1       0.746  14.980  22.625  0.00  0.00    +0.000 OA
ATOM     19  N   UNL     1      -1.263  15.692  21.820  0.00  0.00    +0.000 N 
ATOM     20  C   UNL     1      -2.583  15.539  21.235  0.00  0.00    +0.000 C 
ATOM     21  C   UNL     1      -2.746  16.792  20.400  0.00  0.00    +0.000 C 
ATOM     22  C   UNL     1      -2.041  17.854  21.236  0.00  0.00    +0.000 C 
ATOM     23  C   UNL     1      -0.920  17.098  21.947  0.00  0.00    +0.000 C 
ENDBRANCH  11  17
BRANCH   1  25
ATOM     24  C   UNL     1       4.806   5.495  19.460  0.00  0.00    +0.000 C 
ATOM     25  C   UNL     1       3.625   5.500  18.459  0.00  0.00    +0.000 C 
ATOM     26  C   UNL     1       4.241   5.535  17.037  0.00  0.00    +0.000 C 
BRANCH  25  27
ATOM     27  C   UNL     1       2.731   4.244  18.571  0.00  0.00    +0.000 A 
ATOM     28  C   UNL     1       1.564   4.216  19.360  0.00  0.00    +0.000 A 
ATOM     29  C   UNL     1       0.806   3.049  19.505  0.00  0.00    +0.000 A 
ATOM     30  C   UNL     1       1.191   1.881  18.857  0.00  0.00    +0.000 A 
ATOM     31  C   UNL     1       2.326   1.887  18.050  0.00  0.00    +0.000 A 
ATOM     32  C   UNL     1       3.082   3.055  17.905  0.00  0.00    +0.000 A 
ENDBRANCH  25  27
ENDBRANCH   1  25
TORSDOF 3
ENDMDL
