MODEL 1
REMARK VINA RESULT:      -7.5      0.000      0.000
REMARK  Name = 
REMARK  10 active torsions:
REMARK  status: ('A' for Active; 'I' for Inactive)
REMARK    1  A    between atoms: C_1  and  C_2
REMARK    2  A    between atoms: C_2  and  C_3
REMARK    3  A    between atoms: C_2  and  C_4
REMARK    4  A    between atoms: C_7  and  N_8
REMARK    5  A    between atoms: C_13  and  O_14
REMARK    6  A    between atoms: C_18  and  C_19
REMARK    7  A    between atoms: C_18  and  C_20
REMARK    8  A    between atoms: C_23  and  C_24
REMARK    9  A    between atoms: C_25  and  C_26
REMARK   10  A    between atoms: C_26  and  O_28
REMARK                            x       y       z     vdW  Elec       q    Type
REMARK                         _______ _______ _______ _____ _____    ______ ____
ROOT
ATOM      1  N   UNL     1      -1.738  12.678  20.352  0.00  0.00    +0.000 N 
ATOM      2  C   UNL     1      -1.484  13.750  19.272  0.00  0.00    +0.000 C 
ATOM      3  C   UNL     1      -0.430  13.405  18.133  0.00  0.00    +0.000 C 
ATOM      4  C   UNL     1       0.804  12.779  18.759  0.00  0.00    +0.000 A 
ATOM      5  C   UNL     1       2.066  13.356  18.564  0.00  0.00    +0.000 A 
ATOM      6  C   UNL     1       2.784  13.729  19.694  0.00  0.00    +0.000 A 
ATOM      7  C   UNL     1       2.239  13.519  20.948  0.00  0.00    +0.000 A 
ATOM      8  C   UNL     1       1.123  12.683  21.074  0.00  0.00    +0.000 A 
ATOM      9  C   UNL     1       0.473  12.126  19.939  0.00  0.00    +0.000 A 
ATOM     10  C   UNL     1      -0.949  11.443  20.059  0.00  0.00    +0.000 C 
ATOM     11  C   UNL     1      -0.694  10.285  21.035  0.00  0.00    +0.000 C 
ENDROOT
BRANCH   1  15
ATOM     12  C   UNL     1      -5.097  13.140  22.987  0.00  0.00    +0.000 A 
ATOM     13  C   UNL     1      -5.234  13.039  21.605  0.00  0.00    +0.000 A 
ATOM     14  C   UNL     1      -4.118  12.921  20.769  0.00  0.00    +0.000 A 
ATOM     15  C   UNL     1      -2.789  12.867  21.238  0.00  0.00    +0.000 A 
ATOM     16  C   UNL     1      -2.674  12.987  22.631  0.00  0.00    +0.000 A 
ATOM     17  C   UNL     1      -3.798  13.121  23.491  0.00  0.00    +0.000 A 
BRANCH  12  19
ATOM     18  C   UNL     1      -6.831  14.646  23.978  0.00  0.00    +0.000 C 
ATOM     19  C   UNL     1      -6.367  13.196  23.822  0.00  0.00    +0.000 C 
ATOM     20  C   UNL     1      -7.513  12.304  23.343  0.00  0.00    +0.000 C 
ENDBRANCH  12  19
ENDBRANCH   1  15
BRANCH  10  21
ATOM     21  C   UNL     1      -1.671  10.799  18.798  0.00  0.00    +0.000 A 
ATOM     22  C   UNL     1      -1.075   9.861  17.953  0.00  0.00    +0.000 A 
ATOM     23  C   UNL     1      -1.614   9.612  16.669  0.00  0.00    +0.000 A 
ATOM     24  C   UNL     1      -2.773  10.252  16.202  0.00  0.00    +0.000 A 
ATOM     25  C   UNL     1      -3.481  11.016  17.109  0.00  0.00    +0.000 A 
ATOM     26  C   UNL     1      -2.963  11.256  18.391  0.00  0.00    +0.000 A 
BRANCH  24  27
ATOM     27  C   UNL     1      -3.048  10.189  14.746  0.00  0.00    +0.000 C 
ATOM     28  C   UNL     1      -4.092   9.685  14.063  0.00  0.00    +0.000 C 
BRANCH  28  29
ATOM     29  C   UNL     1      -4.066   9.842  12.592  0.00  0.00    +0.000 C 
ATOM     30  O   UNL     1      -5.032  10.097  11.896  0.00  0.00    +0.000 OA
BRANCH  29  31
ATOM     31  O   UNL     1      -2.837   9.640  12.040  0.00  0.00    +0.000 OA
ATOM     32  H   UNL     1      -2.753   8.814  11.510  0.00  0.00    +0.000 HD
ENDBRANCH  29  31
ENDBRANCH  28  29
ENDBRANCH  24  27
ENDBRANCH  10  21
BRANCH   6  33
ATOM     33  O   UNL     1       3.952  14.417  19.603  0.00  0.00    +0.000 OA
ATOM     34  H   UNL     1       4.128  14.810  20.474  0.00  0.00    +0.000 HD
ENDBRANCH   6  33
TORSDOF 7
ENDMDL
MODEL 2
REMARK VINA RESULT:      -7.5      3.124      6.179
REMARK  Name = 
REMARK  10 active torsions:
REMARK  status: ('A' for Active; 'I' for Inactive)
REMARK    1  A    between atoms: C_1  and  C_2
REMARK    2  A    between atoms: C_2  and  C_3
REMARK    3  A    between atoms: C_2  and  C_4
REMARK    4  A    between atoms: C_7  and  N_8
REMARK    5  A    between atoms: C_13  and  O_14
REMARK    6  A    between atoms: C_18  and  C_19
REMARK    7  A    between atoms: C_18  and  C_20
REMARK    8  A    between atoms: C_23  and  C_24
REMARK    9  A    between atoms: C_25  and  C_26
REMARK   10  A    between atoms: C_26  and  O_28
REMARK                            x       y       z     vdW  Elec       q    Type
REMARK                         _______ _______ _______ _____ _____    ______ ____
ROOT
ATOM      1  N   UNL     1       0.550  10.193  19.749  0.00  0.00    +0.000 N 
ATOM      2  C   UNL     1      -0.507  10.261  20.869  0.00  0.00    +0.000 C 
ATOM      3  C   UNL     1      -1.512  11.494  20.853  0.00  0.00    +0.000 C 
ATOM      4  C   UNL     1      -0.739  12.772  20.580  0.00  0.00    +0.000 A 
ATOM      5  C   UNL     1      -0.794  13.838  21.488  0.00  0.00    +0.000 A 
ATOM      6  C   UNL     1       0.406  14.290  22.023  0.00  0.00    +0.000 A 
ATOM      7  C   UNL     1       1.592  13.684  21.646  0.00  0.00    +0.000 A 
ATOM      8  C   UNL     1       1.598  12.837  20.531  0.00  0.00    +0.000 A 
ATOM      9  C   UNL     1       0.404  12.502  19.839  0.00  0.00    +0.000 A 
ATOM     10  C   UNL     1       0.367  11.322  18.786  0.00  0.00    +0.000 C 
ATOM     11  C   UNL     1       1.381  11.774  17.725  0.00  0.00    +0.000 C 
ENDROOT
BRANCH   1  15
ATOM     12  C   UNL     1       2.753   6.519  19.459  0.00  0.00    +0.000 A 
ATOM     13  C   UNL     1       2.077   6.900  20.615  0.00  0.00    +0.000 A 
ATOM     14  C   UNL     1       1.393   8.119  20.690  0.00  0.00    +0.000 A 
ATOM     15  C   UNL     1       1.306   9.035  19.622  0.00  0.00    +0.000 A 
ATOM     16  C   UNL     1       2.008   8.638  18.474  0.00  0.00    +0.000 A 
ATOM     17  C   UNL     1       2.718   7.409  18.388  0.00  0.00    +0.000 A 
BRANCH  12  19
ATOM     18  C   UNL     1       2.794   4.279  18.346  0.00  0.00    +0.000 C 
ATOM     19  C   UNL     1       3.411   5.147  19.445  0.00  0.00    +0.000 C 
ATOM     20  C   UNL     1       4.937   5.146  19.350  0.00  0.00    +0.000 C 
ENDBRANCH  12  19
ENDBRANCH   1  15
BRANCH  10  21
ATOM     21  C   UNL     1      -0.960  10.956  17.992  0.00  0.00    +0.000 A 
ATOM     22  C   UNL     1      -1.311   9.658  17.616  0.00  0.00    +0.000 A 
ATOM     23  C   UNL     1      -2.285   9.442  16.614  0.00  0.00    +0.000 A 
ATOM     24  C   UNL     1      -2.965  10.498  15.985  0.00  0.00    +0.000 A 
ATOM     25  C   UNL     1      -2.775  11.766  16.500  0.00  0.00    +0.000 A 
ATOM     26  C   UNL     1      -1.823  11.987  17.506  0.00  0.00    +0.000 A 
BRANCH  24  27
ATOM     27  C   UNL     1      -3.691  10.191  14.729  0.00  0.00    +0.000 C 
ATOM     28  C   UNL     1      -3.247  10.004  13.472  0.00  0.00    +0.000 C 
BRANCH  28  29
ATOM     29  C   UNL     1      -4.259   9.654  12.452  0.00  0.00    +0.000 C 
ATOM     30  O   UNL     1      -5.411   9.333  12.686  0.00  0.00    +0.000 OA
BRANCH  29  31
ATOM     31  O   UNL     1      -3.784   9.680  11.175  0.00  0.00    +0.000 OA
ATOM     32  H   UNL     1      -4.337   9.198  10.518  0.00  0.00    +0.000 HD
ENDBRANCH  29  31
ENDBRANCH  28  29
ENDBRANCH  24  27
ENDBRANCH  10  21
BRANCH   6  33
ATOM     33  O   UNL     1       0.443  15.224  23.009  0.00  0.00    +0.000 OA
ATOM     34  H   UNL     1       0.670  14.768  23.836  0.00  0.00    +0.000 HD
ENDBRANCH   6  33
TORSDOF 7
ENDMDL
MODEL 3
REMARK VINA RESULT:      -7.4      3.651      5.220
REMARK  Name = 
REMARK  10 active torsions:
REMARK  status: ('A' for Active; 'I' for Inactive)
REMARK    1  A    between atoms: C_1  and  C_2
REMARK    2  A    between atoms: C_2  and  C_3
REMARK    3  A    between atoms: C_2  and  C_4
REMARK    4  A    between atoms: C_7  and  N_8
REMARK    5  A    between atoms: C_13  and  O_14
REMARK    6  A    between atoms: C_18  and  C_19
REMARK    7  A    between atoms: C_18  and  C_20
REMARK    8  A    between atoms: C_23  and  C_24
REMARK    9  A    between atoms: C_25  and  C_26
REMARK   10  A    between atoms: C_26  and  O_28
REMARK                            x       y       z     vdW  Elec       q    Type
REMARK                         _______ _______ _______ _____ _____    ______ ____
ROOT
ATOM      1  N   UNL     1      -0.984  12.008  19.493  0.00  0.00    +0.000 N 
ATOM      2  C   UNL     1       0.017  12.723  18.562  0.00  0.00    +0.000 C 
ATOM      3  C   UNL     1       1.561  12.605  18.920  0.00  0.00    +0.000 C 
ATOM      4  C   UNL     1       1.753  12.828  20.410  0.00  0.00    +0.000 A 
ATOM      5  C   UNL     1       2.601  13.845  20.869  0.00  0.00    +0.000 A 
ATOM      6  C   UNL     1       2.055  14.809  21.708  0.00  0.00    +0.000 A 
ATOM      7  C   UNL     1       0.718  14.730  22.056  0.00  0.00    +0.000 A 
ATOM      8  C   UNL     1       0.017  13.545  21.804  0.00  0.00    +0.000 A 
ATOM      9  C   UNL     1       0.612  12.457  21.109  0.00  0.00    +0.000 A 
ATOM     10  C   UNL     1      -0.259  11.256  20.562  0.00  0.00    +0.000 C 
ATOM     11  C   UNL     1      -0.887  10.675  21.838  0.00  0.00    +0.000 C 
ENDROOT
BRANCH   1  15
ATOM     12  C   UNL     1      -5.122  11.933  18.349  0.00  0.00    +0.000 A 
ATOM     13  C   UNL     1      -4.686  12.472  19.556  0.00  0.00    +0.000 A 
ATOM     14  C   UNL     1      -3.334  12.454  19.916  0.00  0.00    +0.000 A 
ATOM     15  C   UNL     1      -2.313  11.927  19.098  0.00  0.00    +0.000 A 
ATOM     16  C   UNL     1      -2.777  11.374  17.895  0.00  0.00    +0.000 A 
ATOM     17  C   UNL     1      -4.149  11.374  17.524  0.00  0.00    +0.000 A 
BRANCH  12  19
ATOM     18  C   UNL     1      -7.429  12.138  19.296  0.00  0.00    +0.000 C 
ATOM     19  C   UNL     1      -6.601  12.057  18.012  0.00  0.00    +0.000 C 
ATOM     20  C   UNL     1      -6.967  13.190  17.053  0.00  0.00    +0.000 C 
ENDBRANCH  12  19
ENDBRANCH   1  15
BRANCH  10  21
ATOM     21  C   UNL     1       0.402  10.025  19.803  0.00  0.00    +0.000 A 
ATOM     22  C   UNL     1       1.158   9.036  20.434  0.00  0.00    +0.000 A 
ATOM     23  C   UNL     1       2.011   8.197  19.680  0.00  0.00    +0.000 A 
ATOM     24  C   UNL     1       2.111   8.288  18.282  0.00  0.00    +0.000 A 
ATOM     25  C   UNL     1       1.213   9.117  17.638  0.00  0.00    +0.000 A 
ATOM     26  C   UNL     1       0.352   9.940  18.377  0.00  0.00    +0.000 A 
BRANCH  24  27
ATOM     27  C   UNL     1       3.269   7.623  17.636  0.00  0.00    +0.000 C 
ATOM     28  C   UNL     1       3.748   6.371  17.752  0.00  0.00    +0.000 C 
BRANCH  28  29
ATOM     29  C   UNL     1       4.909   6.019  16.905  0.00  0.00    +0.000 C 
ATOM     30  O   UNL     1       5.352   6.706  16.002  0.00  0.00    +0.000 OA
BRANCH  29  31
ATOM     31  O   UNL     1       5.453   4.804  17.195  0.00  0.00    +0.000 OA
ATOM     32  H   UNL     1       5.070   4.357  17.984  0.00  0.00    +0.000 HD
ENDBRANCH  29  31
ENDBRANCH  28  29
ENDBRANCH  24  27
ENDBRANCH  10  21
BRANCH   6  33
ATOM     33  O   UNL     1       2.760  15.904  22.093  0.00  0.00    +0.000 OA
ATOM     34  H   UNL     1       3.060  16.357  21.288  0.00  0.00    +0.000 HD
ENDBRANCH   6  33
TORSDOF 7
ENDMDL
MODEL 4
REMARK VINA RESULT:      -7.2      3.904      7.218
REMARK  Name = 
REMARK  10 active torsions:
REMARK  status: ('A' for Active; 'I' for Inactive)
REMARK    1  A    between atoms: C_1  and  C_2
REMARK    2  A    between atoms: C_2  and  C_3
REMARK    3  A    between atoms: C_2  and  C_4
REMARK    4  A    between atoms: C_7  and  N_8
REMARK    5  A    between atoms: C_13  and  O_14
REMARK    6  A    between atoms: C_18  and  C_19
REMARK    7  A    between atoms: C_18  and  C_20
REMARK    8  A    between atoms: C_23  and  C_24
REMARK    9  A    between atoms: C_25  and  C_26
REMARK   10  A    between atoms: C_26  and  O_28
REMARK                            x       y       z     vdW  Elec       q    Type
REMARK                         _______ _______ _______ _____ _____    ______ ____
ROOT
ATOM      1  N   UNL     1      -0.985  13.725  20.820  0.00  0.00    +0.000 N 
ATOM      2  C   UNL     1      -0.693  13.828  22.331  0.00  0.00    +0.000 C 
ATOM      3  C   UNL     1      -1.209  12.644  23.258  0.00  0.00    +0.000 C 
ATOM      4  C   UNL     1      -2.633  12.284  22.873  0.00  0.00    +0.000 A 
ATOM      5  C   UNL     1      -3.658  12.335  23.827  0.00  0.00    +0.000 A 
ATOM      6  C   UNL     1      -4.747  13.154  23.559  0.00  0.00    +0.000 A 
ATOM      7  C   UNL     1      -4.782  13.877  22.379  0.00  0.00    +0.000 A 
ATOM      8  C   UNL     1      -3.881  13.556  21.358  0.00  0.00    +0.000 A 
ATOM      9  C   UNL     1      -2.865  12.578  21.536  0.00  0.00    +0.000 A 
ATOM     10  C   UNL     1      -1.672  12.434  20.507  0.00  0.00    +0.000 C 
ATOM     11  C   UNL     1      -2.389  12.093  19.192  0.00  0.00    +0.000 C 
ENDROOT
BRANCH   1  15
ATOM     12  C   UNL     1       0.796  16.685  18.270  0.00  0.00    +0.000 A 
ATOM     13  C   UNL     1      -0.524  16.764  18.706  0.00  0.00    +0.000 A 
ATOM     14  C   UNL     1      -1.086  15.768  19.512  0.00  0.00    +0.000 A 
ATOM     15  C   UNL     1      -0.379  14.635  19.965  0.00  0.00    +0.000 A 
ATOM     16  C   UNL     1       0.943  14.567  19.500  0.00  0.00    +0.000 A 
ATOM     17  C   UNL     1       1.522  15.566  18.670  0.00  0.00    +0.000 A 
BRANCH  12  19
ATOM     18  C   UNL     1       2.598  17.412  16.694  0.00  0.00    +0.000 C 
ATOM     19  C   UNL     1       1.343  17.847  17.454  0.00  0.00    +0.000 C 
ATOM     20  C   UNL     1       0.344  18.526  16.518  0.00  0.00    +0.000 C 
ENDBRANCH  12  19
ENDBRANCH   1  15
BRANCH  10  21
ATOM     21  C   UNL     1      -0.545  11.329  20.688  0.00  0.00    +0.000 A 
ATOM     22  C   UNL     1       0.647  11.305  19.961  0.00  0.00    +0.000 A 
ATOM     23  C   UNL     1       1.422  10.123  19.897  0.00  0.00    +0.000 A 
ATOM     24  C   UNL     1       1.061   8.949  20.578  0.00  0.00    +0.000 A 
ATOM     25  C   UNL     1       0.003   9.032  21.462  0.00  0.00    +0.000 A 
ATOM     26  C   UNL     1      -0.761  10.205  21.545  0.00  0.00    +0.000 A 
BRANCH  24  27
ATOM     27  C   UNL     1       1.732   7.690  20.171  0.00  0.00    +0.000 C 
ATOM     28  C   UNL     1       2.376   7.357  19.037  0.00  0.00    +0.000 C 
BRANCH  28  29
ATOM     29  C   UNL     1       2.984   6.010  18.986  0.00  0.00    +0.000 C 
ATOM     30  O   UNL     1       3.692   5.526  19.852  0.00  0.00    +0.000 OA
BRANCH  29  31
ATOM     31  O   UNL     1       2.716   5.328  17.838  0.00  0.00    +0.000 OA
ATOM     32  H   UNL     1       2.689   4.349  17.935  0.00  0.00    +0.000 HD
ENDBRANCH  29  31
ENDBRANCH  28  29
ENDBRANCH  24  27
ENDBRANCH  10  21
BRANCH   6  33
ATOM     33  O   UNL     1      -5.722  13.373  24.480  0.00  0.00    +0.000 OA
ATOM     34  H   UNL     1      -5.760  14.330  24.644  0.00  0.00    +0.000 HD
ENDBRANCH   6  33
TORSDOF 7
ENDMDL
MODEL 5
REMARK VINA RESULT:      -7.2      3.077      6.048
REMARK  Name = 
REMARK  10 active torsions:
REMARK  status: ('A' for Active; 'I' for Inactive)
REMARK    1  A    between atoms: C_1  and  C_2
REMARK    2  A    between atoms: C_2  and  C_3
REMARK    3  A    between atoms: C_2  and  C_4
REMARK    4  A    between atoms: C_7  and  N_8
REMARK    5  A    between atoms: C_13  and  O_14
REMARK    6  A    between atoms: C_18  and  C_19
REMARK    7  A    between atoms: C_18  and  C_20
REMARK    8  A    between atoms: C_23  and  C_24
REMARK    9  A    between atoms: C_25  and  C_26
REMARK   10  A    between atoms: C_26  and  O_28
REMARK                            x       y       z     vdW  Elec       q    Type
REMARK                         _______ _______ _______ _____ _____    ______ ____
ROOT
ATOM      1  N   UNL     1       0.531  10.231  19.922  0.00  0.00    +0.000 N 
ATOM      2  C   UNL     1      -0.533  10.491  21.007  0.00  0.00    +0.000 C 
ATOM      3  C   UNL     1      -1.410  11.810  20.872  0.00  0.00    +0.000 C 
ATOM      4  C   UNL     1      -0.510  12.981  20.521  0.00  0.00    +0.000 A 
ATOM      5  C   UNL     1      -0.474  14.116  21.342  0.00  0.00    +0.000 A 
ATOM      6  C   UNL     1       0.756  14.489  21.871  0.00  0.00    +0.000 A 
ATOM      7  C   UNL     1       1.882  13.743  21.570  0.00  0.00    +0.000 A 
ATOM      8  C   UNL     1       1.823  12.814  20.524  0.00  0.00    +0.000 A 
ATOM      9  C   UNL     1       0.613  12.544  19.830  0.00  0.00    +0.000 A 
ATOM     10  C   UNL     1       0.476  11.293  18.871  0.00  0.00    +0.000 C 
ATOM     11  C   UNL     1       1.548  11.559  17.803  0.00  0.00    +0.000 C 
ENDROOT
BRANCH   1  15
ATOM     12  C   UNL     1       2.655   6.503  19.763  0.00  0.00    +0.000 A 
ATOM     13  C   UNL     1       2.626   7.397  18.697  0.00  0.00    +0.000 A 
ATOM     14  C   UNL     1       1.899   8.590  18.766  0.00  0.00    +0.000 A 
ATOM     15  C   UNL     1       1.170   8.999  19.902  0.00  0.00    +0.000 A 
ATOM     16  C   UNL     1       1.200   8.076  20.958  0.00  0.00    +0.000 A 
ATOM     17  C   UNL     1       1.925   6.854  20.896  0.00  0.00    +0.000 A 
BRANCH  12  19
ATOM     18  C   UNL     1       2.715   4.010  19.954  0.00  0.00    +0.000 C 
ATOM     19  C   UNL     1       3.527   5.264  19.624  0.00  0.00    +0.000 C 
ATOM     20  C   UNL     1       4.251   5.111  18.287  0.00  0.00    +0.000 C 
ENDBRANCH  12  19
ENDBRANCH   1  15
BRANCH  10  21
ATOM     21  C   UNL     1      -0.867  10.997  18.075  0.00  0.00    +0.000 A 
ATOM     22  C   UNL     1      -1.339   9.714  17.793  0.00  0.00    +0.000 A 
ATOM     23  C   UNL     1      -2.313   9.515  16.787  0.00  0.00    +0.000 A 
ATOM     24  C   UNL     1      -2.873  10.579  16.061  0.00  0.00    +0.000 A 
ATOM     25  C   UNL     1      -2.566  11.859  16.480  0.00  0.00    +0.000 A 
ATOM     26  C   UNL     1      -1.614  12.066  17.489  0.00  0.00    +0.000 A 
BRANCH  24  27
ATOM     27  C   UNL     1      -3.605  10.245  14.815  0.00  0.00    +0.000 C 
ATOM     28  C   UNL     1      -3.161   9.969  13.574  0.00  0.00    +0.000 C 
BRANCH  28  29
ATOM     29  C   UNL     1      -4.183   9.619  12.563  0.00  0.00    +0.000 C 
ATOM     30  O   UNL     1      -3.981   9.519  11.366  0.00  0.00    +0.000 OA
BRANCH  29  31
ATOM     31  O   UNL     1      -5.431   9.443  13.081  0.00  0.00    +0.000 OA
ATOM     32  H   UNL     1      -6.112   9.158  12.430  0.00  0.00    +0.000 HD
ENDBRANCH  29  31
ENDBRANCH  28  29
ENDBRANCH  24  27
ENDBRANCH  10  21
BRANCH   6  33
ATOM     33  O   UNL     1       0.868  15.490  22.783  0.00  0.00    +0.000 OA
ATOM     34  H   UNL     1       0.295  15.267  23.534  0.00  0.00    +0.000 HD
ENDBRANCH   6  33
TORSDOF 7
ENDMDL
MODEL 6
REMARK VINA RESULT:      -7.2      3.633      5.300
REMARK  Name = 
REMARK  10 active torsions:
REMARK  status: ('A' for Active; 'I' for Inactive)
REMARK    1  A    between atoms: C_1  and  C_2
REMARK    2  A    between atoms: C_2  and  C_3
REMARK    3  A    between atoms: C_2  and  C_4
REMARK    4  A    between atoms: C_7  and  N_8
REMARK    5  A    between atoms: C_13  and  O_14
REMARK    6  A    between atoms: C_18  and  C_19
REMARK    7  A    between atoms: C_18  and  C_20
REMARK    8  A    between atoms: C_23  and  C_24
REMARK    9  A    between atoms: C_25  and  C_26
REMARK   10  A    between atoms: C_26  and  O_28
REMARK                            x       y       z     vdW  Elec       q    Type
REMARK                         _______ _______ _______ _____ _____    ______ ____
ROOT
ATOM      1  N   UNL     1      -0.534  12.004  19.474  0.00  0.00    +0.000 N 
ATOM      2  C   UNL     1       0.456  12.809  18.607  0.00  0.00    +0.000 C 
ATOM      3  C   UNL     1       1.971  12.862  19.085  0.00  0.00    +0.000 C 
ATOM      4  C   UNL     1       2.020  13.127  20.580  0.00  0.00    +0.000 A 
ATOM      5  C   UNL     1       2.717  14.235  21.079  0.00  0.00    +0.000 A 
ATOM      6  C   UNL     1       2.007  15.147  21.851  0.00  0.00    +0.000 A 
ATOM      7  C   UNL     1       0.662  14.931  22.097  0.00  0.00    +0.000 A 
ATOM      8  C   UNL     1       0.113  13.674  21.819  0.00  0.00    +0.000 A 
ATOM      9  C   UNL     1       0.873  12.646  21.198  0.00  0.00    +0.000 A 
ATOM     10  C   UNL     1       0.180  11.350  20.613  0.00  0.00    +0.000 C 
ATOM     11  C   UNL     1      -0.482  10.724  21.850  0.00  0.00    +0.000 C 
ENDROOT
BRANCH   1  15
ATOM     12  C   UNL     1      -4.533  11.475  18.003  0.00  0.00    +0.000 A 
ATOM     13  C   UNL     1      -4.251  12.157  19.183  0.00  0.00    +0.000 A 
ATOM     14  C   UNL     1      -2.940  12.287  19.654  0.00  0.00    +0.000 A 
ATOM     15  C   UNL     1      -1.811  11.775  18.980  0.00  0.00    +0.000 A 
ATOM     16  C   UNL     1      -2.121  11.077  17.803  0.00  0.00    +0.000 A 
ATOM     17  C   UNL     1      -3.450  10.927  17.321  0.00  0.00    +0.000 A 
BRANCH  12  19
ATOM     18  C   UNL     1      -6.854  10.728  18.567  0.00  0.00    +0.000 C 
ATOM     19  C   UNL     1      -5.980  11.442  17.533  0.00  0.00    +0.000 C 
ATOM     20  C   UNL     1      -6.581  12.794  17.150  0.00  0.00    +0.000 C 
ENDBRANCH  12  19
ENDBRANCH   1  15
BRANCH  10  21
ATOM     21  C   UNL     1       1.025  10.187  19.936  0.00  0.00    +0.000 A 
ATOM     22  C   UNL     1       1.220  10.064  18.559  0.00  0.00    +0.000 A 
ATOM     23  C   UNL     1       1.652   8.837  18.004  0.00  0.00    +0.000 A 
ATOM     24  C   UNL     1       1.938   7.712  18.795  0.00  0.00    +0.000 A 
ATOM     25  C   UNL     1       1.950   7.892  20.165  0.00  0.00    +0.000 A 
ATOM     26  C   UNL     1       1.540   9.111  20.724  0.00  0.00    +0.000 A 
BRANCH  24  27
ATOM     27  C   UNL     1       2.038   6.402  18.108  0.00  0.00    +0.000 C 
ATOM     28  C   UNL     1       2.691   5.274  18.444  0.00  0.00    +0.000 C 
BRANCH  28  29
ATOM     29  C   UNL     1       2.529   4.115  17.540  0.00  0.00    +0.000 C 
ATOM     30  O   UNL     1       1.474   3.558  17.294  0.00  0.00    +0.000 OA
BRANCH  29  31
ATOM     31  O   UNL     1       3.700   3.670  17.002  0.00  0.00    +0.000 OA
ATOM     32  H   UNL     1       3.919   4.047  16.119  0.00  0.00    +0.000 HD
ENDBRANCH  29  31
ENDBRANCH  28  29
ENDBRANCH  24  27
ENDBRANCH  10  21
BRANCH   6  33
ATOM     33  O   UNL     1       2.560  16.318  22.264  0.00  0.00    +0.000 OA
ATOM     34  H   UNL     1       3.523  16.235  22.170  0.00  0.00    +0.000 HD
ENDBRANCH   6  33
TORSDOF 7
ENDMDL
MODEL 7
REMARK VINA RESULT:      -7.2      1.131      1.311
REMARK  Name = 
REMARK  10 active torsions:
REMARK  status: ('A' for Active; 'I' for Inactive)
REMARK    1  A    between atoms: C_1  and  C_2
REMARK    2  A    between atoms: C_2  and  C_3
REMARK    3  A    between atoms: C_2  and  C_4
REMARK    4  A    between atoms: C_7  and  N_8
REMARK    5  A    between atoms: C_13  and  O_14
REMARK    6  A    between atoms: C_18  and  C_19
REMARK    7  A    between atoms: C_18  and  C_20
REMARK    8  A    between atoms: C_23  and  C_24
REMARK    9  A    between atoms: C_25  and  C_26
REMARK   10  A    between atoms: C_26  and  O_28
REMARK                            x       y       z     vdW  Elec       q    Type
REMARK                         _______ _______ _______ _____ _____    ______ ____
ROOT
ATOM      1  N   UNL     1      -1.036  13.472  20.591  0.00  0.00    +0.000 N 
ATOM      2  C   UNL     1      -0.822  14.255  19.279  0.00  0.00    +0.000 C 
ATOM      3  C   UNL     1       0.185  13.637  18.215  0.00  0.00    +0.000 C 
ATOM      4  C   UNL     1       1.440  13.160  18.925  0.00  0.00    +0.000 A 
ATOM      5  C   UNL     1       2.696  13.657  18.551  0.00  0.00    +0.000 A 
ATOM      6  C   UNL     1       3.460  14.276  19.533  0.00  0.00    +0.000 A 
ATOM      7  C   UNL     1       2.965  14.375  20.821  0.00  0.00    +0.000 A 
ATOM      8  C   UNL     1       1.851  13.608  21.182  0.00  0.00    +0.000 A 
ATOM      9  C   UNL     1       1.154  12.808  20.237  0.00  0.00    +0.000 A 
ATOM     10  C   UNL     1      -0.265  12.192  20.568  0.00  0.00    +0.000 C 
ATOM     11  C   UNL     1       0.024  11.293  21.780  0.00  0.00    +0.000 C 
ENDROOT
BRANCH   1  15
ATOM     12  C   UNL     1      -4.303  14.648  23.117  0.00  0.00    +0.000 A 
ATOM     13  C   UNL     1      -4.382  14.672  21.728  0.00  0.00    +0.000 A 
ATOM     14  C   UNL     1      -3.290  14.313  20.930  0.00  0.00    +0.000 A 
ATOM     15  C   UNL     1      -2.051  13.879  21.447  0.00  0.00    +0.000 A 
ATOM     16  C   UNL     1      -1.989  13.879  22.848  0.00  0.00    +0.000 A 
ATOM     17  C   UNL     1      -3.087  14.254  23.670  0.00  0.00    +0.000 A 
BRANCH  12  19
ATOM     18  C   UNL     1      -5.538  16.461  24.320  0.00  0.00    +0.000 C 
ATOM     19  C   UNL     1      -5.561  14.989  23.903  0.00  0.00    +0.000 C 
ATOM     20  C   UNL     1      -6.882  14.633  23.223  0.00  0.00    +0.000 C 
ENDBRANCH  12  19
ENDBRANCH   1  15
BRANCH  10  21
ATOM     21  C   UNL     1      -1.040  11.279  19.524  0.00  0.00    +0.000 A 
ATOM     22  C   UNL     1      -0.435  10.274  18.767  0.00  0.00    +0.000 A 
ATOM     23  C   UNL     1      -1.076   9.761  17.615  0.00  0.00    +0.000 A 
ATOM     24  C   UNL     1      -2.345  10.199  17.203  0.00  0.00    +0.000 A 
ATOM     25  C   UNL     1      -3.034  11.034  18.061  0.00  0.00    +0.000 A 
ATOM     26  C   UNL     1      -2.413  11.534  19.215  0.00  0.00    +0.000 A 
BRANCH  24  27
ATOM     27  C   UNL     1      -2.766   9.867  15.820  0.00  0.00    +0.000 C 
ATOM     28  C   UNL     1      -3.224  10.646  14.823  0.00  0.00    +0.000 C 
BRANCH  28  29
ATOM     29  C   UNL     1      -3.503   9.980  13.531  0.00  0.00    +0.000 C 
ATOM     30  O   UNL     1      -4.609   9.665  13.128  0.00  0.00    +0.000 OA
BRANCH  29  31
ATOM     31  O   UNL     1      -2.385   9.699  12.805  0.00  0.00    +0.000 OA
ATOM     32  H   UNL     1      -2.277  10.238  11.989  0.00  0.00    +0.000 HD
ENDBRANCH  29  31
ENDBRANCH  28  29
ENDBRANCH  24  27
ENDBRANCH  10  21
BRANCH   6  33
ATOM     33  O   UNL     1       4.627  14.907  19.238  0.00  0.00    +0.000 OA
ATOM     34  H   UNL     1       5.338  14.440  19.707  0.00  0.00    +0.000 HD
ENDBRANCH   6  33
TORSDOF 7
ENDMDL
MODEL 8
REMARK VINA RESULT:      -7.2      7.509     11.159
REMARK  Name = 
REMARK  10 active torsions:
REMARK  status: ('A' for Active; 'I' for Inactive)
REMARK    1  A    between atoms: C_1  and  C_2
REMARK    2  A    between atoms: C_2  and  C_3
REMARK    3  A    between atoms: C_2  and  C_4
REMARK    4  A    between atoms: C_7  and  N_8
REMARK    5  A    between atoms: C_13  and  O_14
REMARK    6  A    between atoms: C_18  and  C_19
REMARK    7  A    between atoms: C_18  and  C_20
REMARK    8  A    between atoms: C_23  and  C_24
REMARK    9  A    between atoms: C_25  and  C_26
REMARK   10  A    between atoms: C_26  and  O_28
REMARK                            x       y       z     vdW  Elec       q    Type
REMARK                         _______ _______ _______ _____ _____    ______ ____
ROOT
ATOM      1  N   UNL     1       3.665   4.817  17.875  0.00  0.00    +0.000 N 
ATOM      2  C   UNL     1       2.187   4.387  17.780  0.00  0.00    +0.000 C 
ATOM      3  C   UNL     1       1.242   4.738  19.010  0.00  0.00    +0.000 C 
ATOM      4  C   UNL     1       1.957   4.403  20.307  0.00  0.00    +0.000 A 
ATOM      5  C   UNL     1       1.382   3.510  21.221  0.00  0.00    +0.000 A 
ATOM      6  C   UNL     1       2.118   2.386  21.573  0.00  0.00    +0.000 A 
ATOM      7  C   UNL     1       3.373   2.192  21.021  0.00  0.00    +0.000 A 
ATOM      8  C   UNL     1       3.994   3.256  20.356  0.00  0.00    +0.000 A 
ATOM      9  C   UNL     1       3.333   4.495  20.144  0.00  0.00    +0.000 A 
ATOM     10  C   UNL     1       3.909   5.574  19.140  0.00  0.00    +0.000 C 
ATOM     11  C   UNL     1       5.284   5.904  19.741  0.00  0.00    +0.000 C 
ENDROOT
BRANCH   1  15
ATOM     12  C   UNL     1       6.034   4.302  14.331  0.00  0.00    +0.000 A 
ATOM     13  C   UNL     1       5.652   3.236  15.141  0.00  0.00    +0.000 A 
ATOM     14  C   UNL     1       4.906   3.438  16.307  0.00  0.00    +0.000 A 
ATOM     15  C   UNL     1       4.462   4.704  16.743  0.00  0.00    +0.000 A 
ATOM     16  C   UNL     1       4.872   5.764  15.922  0.00  0.00    +0.000 A 
ATOM     17  C   UNL     1       5.641   5.574  14.741  0.00  0.00    +0.000 A 
BRANCH  12  19
ATOM     18  C   UNL     1       5.842   3.330  12.034  0.00  0.00    +0.000 C 
ATOM     19  C   UNL     1       6.785   3.981  13.047  0.00  0.00    +0.000 C 
ATOM     20  C   UNL     1       7.544   5.149  12.416  0.00  0.00    +0.000 C 
ENDBRANCH  12  19
ENDBRANCH   1  15
BRANCH  10  21
ATOM     21  C   UNL     1       3.186   6.971  18.914  0.00  0.00    +0.000 A 
ATOM     22  C   UNL     1       2.385   7.598  19.871  0.00  0.00    +0.000 A 
ATOM     23  C   UNL     1       1.489   8.625  19.491  0.00  0.00    +0.000 A 
ATOM     24  C   UNL     1       1.389   9.085  18.168  0.00  0.00    +0.000 A 
ATOM     25  C   UNL     1       2.324   8.618  17.265  0.00  0.00    +0.000 A 
ATOM     26  C   UNL     1       3.228   7.612  17.637  0.00  0.00    +0.000 A 
BRANCH  24  27
ATOM     27  C   UNL     1       0.199   9.897  17.816  0.00  0.00    +0.000 C 
ATOM     28  C   UNL     1      -0.646  10.609  18.585  0.00  0.00    +0.000 C 
BRANCH  28  29
ATOM     29  C   UNL     1      -1.715  11.355  17.886  0.00  0.00    +0.000 C 
ATOM     30  O   UNL     1      -2.860  10.968  17.738  0.00  0.00    +0.000 OA
BRANCH  29  31
ATOM     31  O   UNL     1      -1.304  12.545  17.365  0.00  0.00    +0.000 OA
ATOM     32  H   UNL     1      -1.229  12.563  16.384  0.00  0.00    +0.000 HD
ENDBRANCH  29  31
ENDBRANCH  28  29
ENDBRANCH  24  27
ENDBRANCH  10  21
BRANCH   6  33
ATOM     33  O   UNL     1       1.592   1.398  22.343  0.00  0.00    +0.000 OA
ATOM     34  H   UNL     1       2.330   0.951  22.790  0.00  0.00    +0.000 HD
ENDBRANCH   6  33
TORSDOF 7
ENDMDL
MODEL 9
REMARK VINA RESULT:      -7.1      3.986      7.389
REMARK  Name = 
REMARK  10 active torsions:
REMARK  status: ('A' for Active; 'I' for Inactive)
REMARK    1  A    between atoms: C_1  and  C_2
REMARK    2  A    between atoms: C_2  and  C_3
REMARK    3  A    between atoms: C_2  and  C_4
REMARK    4  A    between atoms: C_7  and  N_8
REMARK    5  A    between atoms: C_13  and  O_14
REMARK    6  A    between atoms: C_18  and  C_19
REMARK    7  A    between atoms: C_18  and  C_20
REMARK    8  A    between atoms: C_23  and  C_24
REMARK    9  A    between atoms: C_25  and  C_26
REMARK   10  A    between atoms: C_26  and  O_28
REMARK                            x       y       z     vdW  Elec       q    Type
REMARK                         _______ _______ _______ _____ _____    ______ ____
ROOT
ATOM      1  N   UNL     1       1.004  12.080  20.198  0.00  0.00    +0.000 N 
ATOM      2  C   UNL     1       1.878  12.842  21.215  0.00  0.00    +0.000 C 
ATOM      3  C   UNL     1       1.517  14.365  21.493  0.00  0.00    +0.000 C 
ATOM      4  C   UNL     1       1.252  15.070  20.174  0.00  0.00    +0.000 A 
ATOM      5  C   UNL     1       1.997  16.202  19.816  0.00  0.00    +0.000 A 
ATOM      6  C   UNL     1       2.701  16.155  18.619  0.00  0.00    +0.000 A 
ATOM      7  C   UNL     1       2.640  15.016  17.836  0.00  0.00    +0.000 A 
ATOM      8  C   UNL     1       1.657  14.056  18.107  0.00  0.00    +0.000 A 
ATOM      9  C   UNL     1       0.788  14.170  19.225  0.00  0.00    +0.000 A 
ATOM     10  C   UNL     1      -0.104  12.953  19.701  0.00  0.00    +0.000 C 
ATOM     11  C   UNL     1      -0.990  12.675  18.478  0.00  0.00    +0.000 C 
ENDROOT
BRANCH   1  15
ATOM     12  C   UNL     1       1.656   7.863  19.718  0.00  0.00    +0.000 A 
ATOM     13  C   UNL     1       1.757   8.764  18.661  0.00  0.00    +0.000 A 
ATOM     14  C   UNL     1       1.508  10.129  18.842  0.00  0.00    +0.000 A 
ATOM     15  C   UNL     1       1.167  10.706  20.083  0.00  0.00    +0.000 A 
ATOM     16  C   UNL     1       1.054   9.778  21.129  0.00  0.00    +0.000 A 
ATOM     17  C   UNL     1       1.292   8.387  20.956  0.00  0.00    +0.000 A 
BRANCH  12  19
ATOM     18  C   UNL     1       3.374   6.321  18.755  0.00  0.00    +0.000 C 
ATOM     19  C   UNL     1       2.011   6.409  19.444  0.00  0.00    +0.000 C 
ATOM     20  C   UNL     1       1.947   5.474  20.652  0.00  0.00    +0.000 C 
ENDBRANCH  12  19
ENDBRANCH   1  15
BRANCH  10  21
ATOM     21  C   UNL     1      -1.094  13.080  20.937  0.00  0.00    +0.000 A 
ATOM     22  C   UNL     1      -1.254  12.095  21.913  0.00  0.00    +0.000 A 
ATOM     23  C   UNL     1      -2.390  12.100  22.756  0.00  0.00    +0.000 A 
ATOM     24  C   UNL     1      -3.376  13.098  22.684  0.00  0.00    +0.000 A 
ATOM     25  C   UNL     1      -3.116  14.183  21.870  0.00  0.00    +0.000 A 
ATOM     26  C   UNL     1      -1.984  14.195  21.043  0.00  0.00    +0.000 A 
BRANCH  24  27
ATOM     27  C   UNL     1      -4.672  12.825  23.351  0.00  0.00    +0.000 C 
ATOM     28  C   UNL     1      -5.937  13.076  22.964  0.00  0.00    +0.000 C 
BRANCH  28  29
ATOM     29  C   UNL     1      -7.014  12.614  23.865  0.00  0.00    +0.000 C 
ATOM     30  O   UNL     1      -7.509  11.501  23.856  0.00  0.00    +0.000 OA
BRANCH  29  31
ATOM     31  O   UNL     1      -7.461  13.573  24.724  0.00  0.00    +0.000 OA
ATOM     32  H   UNL     1      -8.160  13.274  25.350  0.00  0.00    +0.000 HD
ENDBRANCH  29  31
ENDBRANCH  28  29
ENDBRANCH  24  27
ENDBRANCH  10  21
BRANCH   6  33
ATOM     33  O   UNL     1       3.556  17.146  18.253  0.00  0.00    +0.000 OA
ATOM     34  H   UNL     1       4.332  16.726  17.845  0.00  0.00    +0.000 HD
ENDBRANCH   6  33
TORSDOF 7
ENDMDL
