MODEL 1
REMARK VINA RESULT:      -7.3      0.000      0.000
REMARK  Name = 
REMARK  4 active torsions:
REMARK  status: ('A' for Active; 'I' for Inactive)
REMARK    1  A    between atoms: C_1  and  C_2
REMARK    2  A    between atoms: C_2  and  C_3
REMARK    3  A    between atoms: N_11  and  C_12
REMARK    4  A    between atoms: C_18  and  O_19
REMARK                            x       y       z     vdW  Elec       q    Type
REMARK                         _______ _______ _______ _____ _____    ______ ____
ROOT
ATOM      1  C   UNL     1       2.095   7.733  20.275  0.00  0.00    +0.000 C 
ATOM      2  C   UNL     1       1.421   8.719  19.306  0.00  0.00    +0.000 C 
ATOM      3  C   UNL     1       2.084   8.922  17.980  0.00  0.00    +0.000 C 
ATOM      4  O   UNL     1       1.870   9.961  17.346  0.00  0.00    +0.000 OA
ATOM      5  C   UNL     1       2.985   7.871  17.395  0.00  0.00    +0.000 C 
ATOM      6  C   UNL     1       3.029   6.456  18.008  0.00  0.00    +0.000 C 
ATOM      7  C   UNL     1       2.048   5.349  17.408  0.00  0.00    +0.000 C 
ATOM      8  C   UNL     1       1.419   4.358  18.491  0.00  0.00    +0.000 C 
ATOM      9  N   UNL     1       2.208   4.088  19.726  0.00  0.00    +0.000 NA
ATOM     10  C   UNL     1       1.359   3.631  20.835  0.00  0.00    +0.000 C 
ATOM     11  C   UNL     1       3.073   5.210  20.181  0.00  0.00    +0.000 C 
ATOM     12  C   UNL     1       4.537   4.758  19.913  0.00  0.00    +0.000 C 
ATOM     13  C   UNL     1       5.098   5.039  18.547  0.00  0.00    +0.000 A 
ATOM     14  C   UNL     1       6.304   4.413  18.138  0.00  0.00    +0.000 A 
ATOM     15  C   UNL     1       6.849   4.636  16.869  0.00  0.00    +0.000 A 
ATOM     16  C   UNL     1       6.181   5.475  15.996  0.00  0.00    +0.000 A 
ATOM     17  C   UNL     1       4.994   6.084  16.380  0.00  0.00    +0.000 A 
ATOM     18  C   UNL     1       4.429   5.885  17.663  0.00  0.00    +0.000 A 
ATOM     19  C   UNL     1       2.602   6.494  19.485  0.00  0.00    +0.000 C 
ENDROOT
BRANCH   1  21
ATOM     20  C   UNL     1      -0.152   8.220  21.625  0.00  0.00    +0.000 C 
ATOM     21  C   UNL     1       0.969   7.248  21.286  0.00  0.00    +0.000 C 
ENDBRANCH   1  21
BRANCH  16  22
ATOM     22  O   UNL     1       6.642   5.708  14.733  0.00  0.00    +0.000 OA
ATOM     23  H   UNL     1       5.932   5.513  14.099  0.00  0.00    +0.000 HD
ENDBRANCH  16  22
TORSDOF 2
ENDMDL
MODEL 2
REMARK VINA RESULT:      -7.0      1.799      2.591
REMARK  Name = 
REMARK  4 active torsions:
REMARK  status: ('A' for Active; 'I' for Inactive)
REMARK    1  A    between atoms: C_1  and  C_2
REMARK    2  A    between atoms: C_2  and  C_3
REMARK    3  A    between atoms: N_11  and  C_12
REMARK    4  A    between atoms: C_18  and  O_19
REMARK                            x       y       z     vdW  Elec       q    Type
REMARK                         _______ _______ _______ _____ _____    ______ ____
ROOT
ATOM      1  C   UNL     1       2.110   4.855  20.885  0.00  0.00    +0.000 C 
ATOM      2  C   UNL     1       1.247   6.112  20.692  0.00  0.00    +0.000 C 
ATOM      3  C   UNL     1       1.913   7.300  20.071  0.00  0.00    +0.000 C 
ATOM      4  O   UNL     1       1.447   8.428  20.266  0.00  0.00    +0.000 OA
ATOM      5  C   UNL     1       3.122   7.140  19.194  0.00  0.00    +0.000 C 
ATOM      6  C   UNL     1       3.538   5.742  18.691  0.00  0.00    +0.000 C 
ATOM      7  C   UNL     1       2.971   5.256  17.279  0.00  0.00    +0.000 C 
ATOM      8  C   UNL     1       2.588   3.707  17.213  0.00  0.00    +0.000 C 
ATOM      9  N   UNL     1       3.331   2.769  18.101  0.00  0.00    +0.000 NA
ATOM     10  C   UNL     1       2.579   1.532  18.351  0.00  0.00    +0.000 C 
ATOM     11  C   UNL     1       3.793   3.350  19.390  0.00  0.00    +0.000 C 
ATOM     12  C   UNL     1       5.341   3.465  19.279  0.00  0.00    +0.000 C 
ATOM     13  C   UNL     1       5.889   4.717  18.656  0.00  0.00    +0.000 A 
ATOM     14  C   UNL     1       7.252   4.771  18.264  0.00  0.00    +0.000 A 
ATOM     15  C   UNL     1       7.796   5.914  17.667  0.00  0.00    +0.000 A 
ATOM     16  C   UNL     1       6.974   7.003  17.444  0.00  0.00    +0.000 A 
ATOM     17  C   UNL     1       5.635   6.958  17.811  0.00  0.00    +0.000 A 
ATOM     18  C   UNL     1       5.065   5.819  18.430  0.00  0.00    +0.000 A 
ATOM     19  C   UNL     1       3.016   4.650  19.638  0.00  0.00    +0.000 C 
ENDROOT
BRANCH   1  21
ATOM     20  C   UNL     1       1.484   2.467  21.892  0.00  0.00    +0.000 C 
ATOM     21  C   UNL     1       1.109   3.625  20.978  0.00  0.00    +0.000 C 
ENDBRANCH   1  21
BRANCH  16  22
ATOM     22  O   UNL     1       7.433   8.134  16.835  0.00  0.00    +0.000 OA
ATOM     23  H   UNL     1       7.517   7.966  15.882  0.00  0.00    +0.000 HD
ENDBRANCH  16  22
TORSDOF 2
ENDMDL
MODEL 3
REMARK VINA RESULT:      -6.3      2.530      4.905
REMARK  Name = 
REMARK  4 active torsions:
REMARK  status: ('A' for Active; 'I' for Inactive)
REMARK    1  A    between atoms: C_1  and  C_2
REMARK    2  A    between atoms: C_2  and  C_3
REMARK    3  A    between atoms: N_11  and  C_12
REMARK    4  A    between atoms: C_18  and  O_19
REMARK                            x       y       z     vdW  Elec       q    Type
REMARK                         _______ _______ _______ _____ _____    ______ ____
ROOT
ATOM      1  C   UNL     1       4.770   7.014  16.393  0.00  0.00    +0.000 C 
ATOM      2  C   UNL     1       4.112   8.231  17.066  0.00  0.00    +0.000 C 
ATOM      3  C   UNL     1       2.836   7.984  17.808  0.00  0.00    +0.000 C 
ATOM      4  O   UNL     1       2.054   8.921  17.998  0.00  0.00    +0.000 OA
ATOM      5  C   UNL     1       2.506   6.621  18.349  0.00  0.00    +0.000 C 
ATOM      6  C   UNL     1       3.585   5.520  18.395  0.00  0.00    +0.000 C 
ATOM      7  C   UNL     1       4.451   5.376  19.728  0.00  0.00    +0.000 C 
ATOM      8  C   UNL     1       5.990   5.023  19.488  0.00  0.00    +0.000 C 
ATOM      9  N   UNL     1       6.343   4.252  18.262  0.00  0.00    +0.000 NA
ATOM     10  C   UNL     1       7.747   4.441  17.875  0.00  0.00    +0.000 C 
ATOM     11  C   UNL     1       5.459   4.490  17.090  0.00  0.00    +0.000 C 
ATOM     12  C   UNL     1       4.634   3.184  16.902  0.00  0.00    +0.000 C 
ATOM     13  C   UNL     1       3.358   3.065  17.688  0.00  0.00    +0.000 A 
ATOM     14  C   UNL     1       2.708   1.808  17.790  0.00  0.00    +0.000 A 
ATOM     15  C   UNL     1       1.528   1.653  18.526  0.00  0.00    +0.000 A 
ATOM     16  C   UNL     1       1.000   2.753  19.175  0.00  0.00    +0.000 A 
ATOM     17  C   UNL     1       1.633   3.986  19.093  0.00  0.00    +0.000 A 
ATOM     18  C   UNL     1       2.821   4.172  18.345  0.00  0.00    +0.000 A 
ATOM     19  C   UNL     1       4.669   5.782  17.336  0.00  0.00    +0.000 C 
ENDROOT
BRANCH   1  21
ATOM     20  C   UNL     1       7.071   7.878  17.424  0.00  0.00    +0.000 C 
ATOM     21  C   UNL     1       6.307   7.371  16.210  0.00  0.00    +0.000 C 
ENDBRANCH   1  21
BRANCH  16  22
ATOM     22  O   UNL     1      -0.129   2.662  19.935  0.00  0.00    +0.000 OA
ATOM     23  H   UNL     1      -0.899   2.583  19.347  0.00  0.00    +0.000 HD
ENDBRANCH  16  22
TORSDOF 2
ENDMDL
MODEL 4
REMARK VINA RESULT:      -6.1      7.869      9.870
REMARK  Name = 
REMARK  4 active torsions:
REMARK  status: ('A' for Active; 'I' for Inactive)
REMARK    1  A    between atoms: C_1  and  C_2
REMARK    2  A    between atoms: C_2  and  C_3
REMARK    3  A    between atoms: N_11  and  C_12
REMARK    4  A    between atoms: C_18  and  O_19
REMARK                            x       y       z     vdW  Elec       q    Type
REMARK                         _______ _______ _______ _____ _____    ______ ____
ROOT
ATOM      1  C   UNL     1      -2.703  11.882  22.997  0.00  0.00    +0.000 C 
ATOM      2  C   UNL     1      -1.179  11.704  23.102  0.00  0.00    +0.000 C 
ATOM      3  C   UNL     1      -0.467  11.246  21.868  0.00  0.00    +0.000 C 
ATOM      4  O   UNL     1       0.630  10.688  21.972  0.00  0.00    +0.000 OA
ATOM      5  C   UNL     1      -1.054  11.477  20.504  0.00  0.00    +0.000 C 
ATOM      6  C   UNL     1      -2.255  12.428  20.325  0.00  0.00    +0.000 C 
ATOM      7  C   UNL     1      -1.954  13.960  19.993  0.00  0.00    +0.000 C 
ATOM      8  C   UNL     1      -2.933  15.001  20.706  0.00  0.00    +0.000 C 
ATOM      9  N   UNL     1      -4.317  14.547  21.025  0.00  0.00    +0.000 NA
ATOM     10  C   UNL     1      -4.924  15.339  22.103  0.00  0.00    +0.000 C 
ATOM     11  C   UNL     1      -4.453  13.097  21.325  0.00  0.00    +0.000 C 
ATOM     12  C   UNL     1      -5.211  12.477  20.116  0.00  0.00    +0.000 C 
ATOM     13  C   UNL     1      -4.380  12.035  18.944  0.00  0.00    +0.000 A 
ATOM     14  C   UNL     1      -5.010  11.731  17.709  0.00  0.00    +0.000 A 
ATOM     15  C   UNL     1      -4.270  11.331  16.591  0.00  0.00    +0.000 A 
ATOM     16  C   UNL     1      -2.894  11.247  16.699  0.00  0.00    +0.000 A 
ATOM     17  C   UNL     1      -2.265  11.554  17.898  0.00  0.00    +0.000 A 
ATOM     18  C   UNL     1      -2.992  11.948  19.048  0.00  0.00    +0.000 A 
ATOM     19  C   UNL     1      -3.058  12.536  21.632  0.00  0.00    +0.000 C 
ENDROOT
BRANCH   1  21
ATOM     20  C   UNL     1      -4.400  12.595  24.926  0.00  0.00    +0.000 C 
ATOM     21  C   UNL     1      -3.124  12.890  24.151  0.00  0.00    +0.000 C 
ENDBRANCH   1  21
BRANCH  16  22
ATOM     22  O   UNL     1      -2.112  10.896  15.638  0.00  0.00    +0.000 OA
ATOM     23  H   UNL     1      -2.544  11.189  14.818  0.00  0.00    +0.000 HD
ENDBRANCH  16  22
TORSDOF 2
ENDMDL
MODEL 5
REMARK VINA RESULT:      -6.1     10.087     11.962
REMARK  Name = 
REMARK  4 active torsions:
REMARK  status: ('A' for Active; 'I' for Inactive)
REMARK    1  A    between atoms: C_1  and  C_2
REMARK    2  A    between atoms: C_2  and  C_3
REMARK    3  A    between atoms: N_11  and  C_12
REMARK    4  A    between atoms: C_18  and  O_19
REMARK                            x       y       z     vdW  Elec       q    Type
REMARK                         _______ _______ _______ _____ _____    ______ ____
ROOT
ATOM      1  C   UNL     1      11.688  12.654  18.909  0.00  0.00    +0.000 C 
ATOM      2  C   UNL     1      10.814  11.442  18.545  0.00  0.00    +0.000 C 
ATOM      3  C   UNL     1       9.755  11.054  19.529  0.00  0.00    +0.000 C 
ATOM      4  O   UNL     1       9.319   9.898  19.527  0.00  0.00    +0.000 OA
ATOM      5  C   UNL     1       9.196  12.054  20.501  0.00  0.00    +0.000 C 
ATOM      6  C   UNL     1       9.494  13.557  20.327  0.00  0.00    +0.000 C 
ATOM      7  C   UNL     1       8.461  14.433  19.481  0.00  0.00    +0.000 C 
ATOM      8  C   UNL     1       9.133  15.548  18.557  0.00  0.00    +0.000 C 
ATOM      9  N   UNL     1      10.437  16.121  18.996  0.00  0.00    +0.000 NA
ATOM     10  C   UNL     1      11.192  16.700  17.877  0.00  0.00    +0.000 C 
ATOM     11  C   UNL     1      11.308  15.193  19.767  0.00  0.00    +0.000 C 
ATOM     12  C   UNL     1      11.307  15.721  21.231  0.00  0.00    +0.000 C 
ATOM     13  C   UNL     1      10.203  15.240  22.129  0.00  0.00    +0.000 A 
ATOM     14  C   UNL     1       9.971  15.887  23.371  0.00  0.00    +0.000 A 
ATOM     15  C   UNL     1       8.943  15.478  24.227  0.00  0.00    +0.000 A 
ATOM     16  C   UNL     1       8.131  14.430  23.838  0.00  0.00    +0.000 A 
ATOM     17  C   UNL     1       8.339  13.796  22.620  0.00  0.00    +0.000 A 
ATOM     18  C   UNL     1       9.381  14.182  21.742  0.00  0.00    +0.000 A 
ATOM     19  C   UNL     1      10.802  13.762  19.544  0.00  0.00    +0.000 C 
ENDROOT
BRANCH   1  21
ATOM     20  C   UNL     1      11.318  13.417  16.381  0.00  0.00    +0.000 C 
ATOM     21  C   UNL     1      12.279  13.215  17.545  0.00  0.00    +0.000 C 
ENDBRANCH   1  21
BRANCH  16  22
ATOM     22  O   UNL     1       7.090  14.004  24.611  0.00  0.00    +0.000 OA
ATOM     23  H   UNL     1       7.068  14.533  25.427  0.00  0.00    +0.000 HD
ENDBRANCH  16  22
TORSDOF 2
ENDMDL
MODEL 6
REMARK VINA RESULT:      -6.0      9.317     11.514
REMARK  Name = 
REMARK  4 active torsions:
REMARK  status: ('A' for Active; 'I' for Inactive)
REMARK    1  A    between atoms: C_1  and  C_2
REMARK    2  A    between atoms: C_2  and  C_3
REMARK    3  A    between atoms: N_11  and  C_12
REMARK    4  A    between atoms: C_18  and  O_19
REMARK                            x       y       z     vdW  Elec       q    Type
REMARK                         _______ _______ _______ _____ _____    ______ ____
ROOT
ATOM      1  C   UNL     1      -3.415  12.524  23.668  0.00  0.00    +0.000 C 
ATOM      2  C   UNL     1      -1.962  12.764  23.225  0.00  0.00    +0.000 C 
ATOM      3  C   UNL     1      -1.631  12.456  21.799  0.00  0.00    +0.000 C 
ATOM      4  O   UNL     1      -0.460  12.216  21.485  0.00  0.00    +0.000 OA
ATOM      5  C   UNL     1      -2.696  12.459  20.738  0.00  0.00    +0.000 C 
ATOM      6  C   UNL     1      -4.090  13.046  21.039  0.00  0.00    +0.000 C 
ATOM      7  C   UNL     1      -4.343  14.586  20.703  0.00  0.00    +0.000 C 
ATOM      8  C   UNL     1      -5.250  15.360  21.765  0.00  0.00    +0.000 C 
ATOM      9  N   UNL     1      -6.262  14.568  22.522  0.00  0.00    +0.000 NA
ATOM     10  C   UNL     1      -6.641  15.219  23.784  0.00  0.00    +0.000 C 
ATOM     11  C   UNL     1      -5.893  13.150  22.775  0.00  0.00    +0.000 C 
ATOM     12  C   UNL     1      -6.833  12.295  21.876  0.00  0.00    +0.000 C 
ATOM     13  C   UNL     1      -6.378  12.036  20.468  0.00  0.00    +0.000 A 
ATOM     14  C   UNL     1      -7.294  11.519  19.515  0.00  0.00    +0.000 A 
ATOM     15  C   UNL     1      -6.914  11.280  18.190  0.00  0.00    +0.000 A 
ATOM     16  C   UNL     1      -5.618  11.571  17.808  0.00  0.00    +0.000 A 
ATOM     17  C   UNL     1      -4.715  12.089  18.727  0.00  0.00    +0.000 A 
ATOM     18  C   UNL     1      -5.072  12.328  20.076  0.00  0.00    +0.000 A 
ATOM     19  C   UNL     1      -4.384  12.996  22.547  0.00  0.00    +0.000 C 
ENDROOT
BRANCH   1  21
ATOM     20  C   UNL     1      -3.070  14.840  24.943  0.00  0.00    +0.000 C 
ATOM     21  C   UNL     1      -3.657  13.436  24.947  0.00  0.00    +0.000 C 
ENDBRANCH   1  21
BRANCH  16  22
ATOM     22  O   UNL     1      -5.192  11.392  16.524  0.00  0.00    +0.000 OA
ATOM     23  H   UNL     1      -5.946  11.518  15.922  0.00  0.00    +0.000 HD
ENDBRANCH  16  22
TORSDOF 2
ENDMDL
MODEL 7
REMARK VINA RESULT:      -6.0      5.552      9.878
REMARK  Name = 
REMARK  4 active torsions:
REMARK  status: ('A' for Active; 'I' for Inactive)
REMARK    1  A    between atoms: C_1  and  C_2
REMARK    2  A    between atoms: C_2  and  C_3
REMARK    3  A    between atoms: N_11  and  C_12
REMARK    4  A    between atoms: C_18  and  O_19
REMARK                            x       y       z     vdW  Elec       q    Type
REMARK                         _______ _______ _______ _____ _____    ______ ____
ROOT
ATOM      1  C   UNL     1      -0.743  10.350  18.975  0.00  0.00    +0.000 C 
ATOM      2  C   UNL     1      -1.528  10.581  17.674  0.00  0.00    +0.000 C 
ATOM      3  C   UNL     1      -2.931  11.083  17.811  0.00  0.00    +0.000 C 
ATOM      4  O   UNL     1      -3.738  10.893  16.895  0.00  0.00    +0.000 OA
ATOM      5  C   UNL     1      -3.366  11.839  19.036  0.00  0.00    +0.000 C 
ATOM      6  C   UNL     1      -2.320  12.352  20.046  0.00  0.00    +0.000 C 
ATOM      7  C   UNL     1      -1.753  13.832  19.849  0.00  0.00    +0.000 C 
ATOM      8  C   UNL     1      -0.198  13.997  20.172  0.00  0.00    +0.000 C 
ATOM      9  N   UNL     1       0.406  13.076  21.177  0.00  0.00    +0.000 NA
ATOM     10  C   UNL     1       1.860  12.952  21.009  0.00  0.00    +0.000 C 
ATOM     11  C   UNL     1      -0.213  11.725  21.247  0.00  0.00    +0.000 C 
ATOM     12  C   UNL     1      -0.979  11.674  22.600  0.00  0.00    +0.000 C 
ATOM     13  C   UNL     1      -2.391  12.188  22.604  0.00  0.00    +0.000 A 
ATOM     14  C   UNL     1      -3.047  12.438  23.838  0.00  0.00    +0.000 A 
ATOM     15  C   UNL     1      -4.355  12.932  23.883  0.00  0.00    +0.000 A 
ATOM     16  C   UNL     1      -5.008  13.194  22.694  0.00  0.00    +0.000 A 
ATOM     17  C   UNL     1      -4.374  12.966  21.480  0.00  0.00    +0.000 A 
ATOM     18  C   UNL     1      -3.055  12.454  21.407  0.00  0.00    +0.000 A 
ATOM     19  C   UNL     1      -1.038  11.506  19.972  0.00  0.00    +0.000 C 
ENDROOT
BRANCH   1  21
ATOM     20  C   UNL     1       1.402   9.206  17.880  0.00  0.00    +0.000 C 
ATOM     21  C   UNL     1       0.798  10.408  18.593  0.00  0.00    +0.000 C 
ENDBRANCH   1  21
BRANCH  16  22
ATOM     22  O   UNL     1      -6.272  13.708  22.669  0.00  0.00    +0.000 OA
ATOM     23  H   UNL     1      -6.857  13.082  22.210  0.00  0.00    +0.000 HD
ENDBRANCH  16  22
TORSDOF 2
ENDMDL
MODEL 8
REMARK VINA RESULT:      -6.0      5.664      8.533
REMARK  Name = 
REMARK  4 active torsions:
REMARK  status: ('A' for Active; 'I' for Inactive)
REMARK    1  A    between atoms: C_1  and  C_2
REMARK    2  A    between atoms: C_2  and  C_3
REMARK    3  A    between atoms: N_11  and  C_12
REMARK    4  A    between atoms: C_18  and  O_19
REMARK                            x       y       z     vdW  Elec       q    Type
REMARK                         _______ _______ _______ _____ _____    ______ ____
ROOT
ATOM      1  C   UNL     1      -0.851  10.705  21.411  0.00  0.00    +0.000 C 
ATOM      2  C   UNL     1       0.535  10.130  21.072  0.00  0.00    +0.000 C 
ATOM      3  C   UNL     1       0.721   9.587  19.689  0.00  0.00    +0.000 C 
ATOM      4  O   UNL     1       1.611   8.757  19.477  0.00  0.00    +0.000 OA
ATOM      5  C   UNL     1      -0.141  10.057  18.551  0.00  0.00    +0.000 C 
ATOM      6  C   UNL     1      -1.042  11.297  18.718  0.00  0.00    +0.000 C 
ATOM      7  C   UNL     1      -0.446  12.717  18.298  0.00  0.00    +0.000 C 
ATOM      8  C   UNL     1      -0.867  13.926  19.253  0.00  0.00    +0.000 C 
ATOM      9  N   UNL     1      -2.175  13.827  19.963  0.00  0.00    +0.000 NA
ATOM     10  C   UNL     1      -2.217  14.673  21.162  0.00  0.00    +0.000 C 
ATOM     11  C   UNL     1      -2.605  12.444  20.304  0.00  0.00    +0.000 C 
ATOM     12  C   UNL     1      -3.811  12.128  19.372  0.00  0.00    +0.000 C 
ATOM     13  C   UNL     1      -3.494  11.566  18.015  0.00  0.00    +0.000 A 
ATOM     14  C   UNL     1      -4.502  11.522  17.017  0.00  0.00    +0.000 A 
ATOM     15  C   UNL     1      -4.243  11.021  15.737  0.00  0.00    +0.000 A 
ATOM     16  C   UNL     1      -2.967  10.575  15.444  0.00  0.00    +0.000 A 
ATOM     17  C   UNL     1      -1.968  10.624  16.407  0.00  0.00    +0.000 A 
ATOM     18  C   UNL     1      -2.209  11.115  17.713  0.00  0.00    +0.000 A 
ATOM     19  C   UNL     1      -1.385  11.520  20.200  0.00  0.00    +0.000 C 
ENDROOT
BRANCH   1  21
ATOM     20  C   UNL     1      -1.831  11.976  23.539  0.00  0.00    +0.000 C 
ATOM     21  C   UNL     1      -0.642  11.705  22.627  0.00  0.00    +0.000 C 
ENDBRANCH   1  21
BRANCH  16  22
ATOM     22  O   UNL     1      -2.640  10.106  14.205  0.00  0.00    +0.000 OA
ATOM     23  H   UNL     1      -3.118   9.274  14.047  0.00  0.00    +0.000 HD
ENDBRANCH  16  22
TORSDOF 2
ENDMDL
MODEL 9
REMARK VINA RESULT:      -5.9      5.788      8.709
REMARK  Name = 
REMARK  4 active torsions:
REMARK  status: ('A' for Active; 'I' for Inactive)
REMARK    1  A    between atoms: C_1  and  C_2
REMARK    2  A    between atoms: C_2  and  C_3
REMARK    3  A    between atoms: N_11  and  C_12
REMARK    4  A    between atoms: C_18  and  O_19
REMARK                            x       y       z     vdW  Elec       q    Type
REMARK                         _______ _______ _______ _____ _____    ______ ____
ROOT
ATOM      1  C   UNL     1       0.176  10.687  22.394  0.00  0.00    +0.000 C 
ATOM      2  C   UNL     1      -1.208  10.631  23.063  0.00  0.00    +0.000 C 
ATOM      3  C   UNL     1      -2.064  11.853  22.948  0.00  0.00    +0.000 C 
ATOM      4  O   UNL     1      -2.959  12.048  23.776  0.00  0.00    +0.000 OA
ATOM      5  C   UNL     1      -1.868  12.832  21.825  0.00  0.00    +0.000 C 
ATOM      6  C   UNL     1      -0.977  12.467  20.620  0.00  0.00    +0.000 C 
ATOM      7  C   UNL     1      -1.674  11.794  19.351  0.00  0.00    +0.000 C 
ATOM      8  C   UNL     1      -0.810  10.651  18.645  0.00  0.00    +0.000 C 
ATOM      9  N   UNL     1       0.675  10.742  18.741  0.00  0.00    +0.000 NA
ATOM     10  C   UNL     1       1.322   9.438  18.546  0.00  0.00    +0.000 C 
ATOM     11  C   UNL     1       1.189  11.382  19.981  0.00  0.00    +0.000 C 
ATOM     12  C   UNL     1       1.769  12.759  19.545  0.00  0.00    +0.000 C 
ATOM     13  C   UNL     1       0.812  13.915  19.489  0.00  0.00    +0.000 A 
ATOM     14  C   UNL     1       1.194  15.116  18.836  0.00  0.00    +0.000 A 
ATOM     15  C   UNL     1       0.325  16.209  18.748  0.00  0.00    +0.000 A 
ATOM     16  C   UNL     1      -0.937  16.100  19.301  0.00  0.00    +0.000 A 
ATOM     17  C   UNL     1      -1.328  14.927  19.932  0.00  0.00    +0.000 A 
ATOM     18  C   UNL     1      -0.463  13.812  20.045  0.00  0.00    +0.000 A 
ATOM     19  C   UNL     1       0.058  11.402  21.018  0.00  0.00    +0.000 C 
ENDROOT
BRANCH   1  21
ATOM     20  C   UNL     1      -0.423   8.221  21.577  0.00  0.00    +0.000 C 
ATOM     21  C   UNL     1       0.617   9.183  22.134  0.00  0.00    +0.000 C 
ENDBRANCH   1  21
BRANCH  16  22
ATOM     22  O   UNL     1      -1.844  17.117  19.221  0.00  0.00    +0.000 OA
ATOM     23  H   UNL     1      -2.503  17.006  19.927  0.00  0.00    +0.000 HD
ENDBRANCH  16  22
TORSDOF 2
ENDMDL
