MODEL 1
REMARK VINA RESULT:      -7.7      0.000      0.000
REMARK  Name = 
REMARK  4 active torsions:
REMARK  status: ('A' for Active; 'I' for Inactive)
REMARK    1  A    between atoms: C_1  and  C_2
REMARK    2  A    between atoms: C_5  and  S_6
REMARK    3  A    between atoms: S_6  and  N_9
REMARK    4  A    between atoms: N_12  and  C_13
REMARK                            x       y       z     vdW  Elec       q    Type
REMARK                         _______ _______ _______ _____ _____    ______ ____
ROOT
ATOM      1  N   UNL     1       3.770   5.042  20.002  0.00  0.00    +0.000 N 
ATOM      2  C   UNL     1       2.699   5.856  19.661  0.00  0.00    +0.000 C 
ATOM      3  O   UNL     1       1.894   5.500  18.816  0.00  0.00    +0.000 OA
ATOM      4  N   UNL     1       2.686   7.070  20.305  0.00  0.00    +0.000 N 
ATOM      5  H   UNL     1       4.493   5.298  20.657  0.00  0.00    +0.000 HD
ATOM      6  H   UNL     1       3.483   7.316  20.874  0.00  0.00    +0.000 HD
ENDROOT
BRANCH   4   7
ATOM      7  C   UNL     1       1.731   8.097  20.076  0.00  0.00    +0.000 A 
ATOM      8  C   UNL     1       0.782   8.464  21.039  0.00  0.00    +0.000 A 
ATOM      9  C   UNL     1      -0.206   9.409  20.761  0.00  0.00    +0.000 A 
ATOM     10  C   UNL     1      -0.241  10.025  19.518  0.00  0.00    +0.000 A 
ATOM     11 CL   UNL     1      -1.485  11.159  19.171  0.00  0.00    +0.000 Cl
ATOM     12  C   UNL     1       0.723   9.726  18.559  0.00  0.00    +0.000 A 
ATOM     13  C   UNL     1       1.710   8.773  18.841  0.00  0.00    +0.000 A 
ATOM     14 CL   UNL     1       2.876   8.420  17.611  0.00  0.00    +0.000 Cl
ENDBRANCH   4   7
BRANCH   1  15
ATOM     15  S   UNL     1       4.033   3.573  19.240  0.00  0.00    +0.000 S 
ATOM     16  O   UNL     1       2.756   3.016  18.854  0.00  0.00    +0.000 OA
ATOM     17  O   UNL     1       4.930   2.841  20.112  0.00  0.00    +0.000 OA
BRANCH  15  22
ATOM     18  C   UNL     1       7.242   5.048  14.291  0.00  0.00    +0.000 C 
ATOM     19  C   UNL     1       6.448   4.695  15.516  0.00  0.00    +0.000 A 
ATOM     20  C   UNL     1       7.023   4.776  16.791  0.00  0.00    +0.000 A 
ATOM     21  C   UNL     1       6.286   4.428  17.925  0.00  0.00    +0.000 A 
ATOM     22  C   UNL     1       4.962   4.006  17.786  0.00  0.00    +0.000 A 
ATOM     23  C   UNL     1       4.373   3.924  16.520  0.00  0.00    +0.000 A 
ATOM     24  C   UNL     1       5.118   4.269  15.389  0.00  0.00    +0.000 A 
ENDBRANCH  15  22
ENDBRANCH   1  15
TORSDOF 3
ENDMDL
MODEL 2
REMARK VINA RESULT:      -7.7      1.773      2.243
REMARK  Name = 
REMARK  4 active torsions:
REMARK  status: ('A' for Active; 'I' for Inactive)
REMARK    1  A    between atoms: C_1  and  C_2
REMARK    2  A    between atoms: C_5  and  S_6
REMARK    3  A    between atoms: S_6  and  N_9
REMARK    4  A    between atoms: N_12  and  C_13
REMARK                            x       y       z     vdW  Elec       q    Type
REMARK                         _______ _______ _______ _____ _____    ______ ____
ROOT
ATOM      1  N   UNL     1       2.788   6.737  18.878  0.00  0.00    +0.000 N 
ATOM      2  C   UNL     1       1.988   7.239  19.896  0.00  0.00    +0.000 C 
ATOM      3  O   UNL     1       1.511   6.493  20.734  0.00  0.00    +0.000 OA
ATOM      4  N   UNL     1       1.758   8.591  19.817  0.00  0.00    +0.000 N 
ATOM      5  H   UNL     1       3.173   7.294  18.130  0.00  0.00    +0.000 HD
ATOM      6  H   UNL     1       2.084   9.083  18.997  0.00  0.00    +0.000 HD
ENDROOT
BRANCH   4   7
ATOM      7  C   UNL     1       0.921   9.324  20.703  0.00  0.00    +0.000 A 
ATOM      8  C   UNL     1       0.902   9.084  22.082  0.00  0.00    +0.000 A 
ATOM      9  C   UNL     1       0.006   9.747  22.921  0.00  0.00    +0.000 A 
ATOM     10  C   UNL     1      -0.868  10.687  22.392  0.00  0.00    +0.000 A 
ATOM     11 CL   UNL     1      -1.995  11.470  23.427  0.00  0.00    +0.000 Cl
ATOM     12  C   UNL     1      -0.834  10.991  21.034  0.00  0.00    +0.000 A 
ATOM     13  C   UNL     1       0.064  10.319  20.195  0.00  0.00    +0.000 A 
ATOM     14 CL   UNL     1       0.058  10.717  18.511  0.00  0.00    +0.000 Cl
ENDBRANCH   4   7
BRANCH   1  15
ATOM     15  S   UNL     1       3.086   5.096  18.726  0.00  0.00    +0.000 S 
ATOM     16  O   UNL     1       1.848   4.427  18.394  0.00  0.00    +0.000 OA
ATOM     17  O   UNL     1       3.834   4.729  19.912  0.00  0.00    +0.000 OA
BRANCH  15  22
ATOM     18  C   UNL     1       6.935   4.774  14.031  0.00  0.00    +0.000 C 
ATOM     19  C   UNL     1       5.975   4.855  15.183  0.00  0.00    +0.000 A 
ATOM     20  C   UNL     1       5.491   6.093  15.627  0.00  0.00    +0.000 A 
ATOM     21  C   UNL     1       4.614   6.164  16.711  0.00  0.00    +0.000 A 
ATOM     22  C   UNL     1       4.210   4.990  17.351  0.00  0.00    +0.000 A 
ATOM     23  C   UNL     1       4.681   3.748  16.917  0.00  0.00    +0.000 A 
ATOM     24  C   UNL     1       5.563   3.684  15.834  0.00  0.00    +0.000 A 
ENDBRANCH  15  22
ENDBRANCH   1  15
TORSDOF 3
ENDMDL
MODEL 3
REMARK VINA RESULT:      -7.6      0.098      1.037
REMARK  Name = 
REMARK  4 active torsions:
REMARK  status: ('A' for Active; 'I' for Inactive)
REMARK    1  A    between atoms: C_1  and  C_2
REMARK    2  A    between atoms: C_5  and  S_6
REMARK    3  A    between atoms: S_6  and  N_9
REMARK    4  A    between atoms: N_12  and  C_13
REMARK                            x       y       z     vdW  Elec       q    Type
REMARK                         _______ _______ _______ _____ _____    ______ ____
ROOT
ATOM      1  N   UNL     1       3.807   5.008  19.910  0.00  0.00    +0.000 N 
ATOM      2  C   UNL     1       2.727   5.823  19.600  0.00  0.00    +0.000 C 
ATOM      3  O   UNL     1       1.904   5.472  18.770  0.00  0.00    +0.000 OA
ATOM      4  N   UNL     1       2.726   7.031  20.254  0.00  0.00    +0.000 N 
ATOM      5  H   UNL     1       4.544   5.260  20.551  0.00  0.00    +0.000 HD
ATOM      6  H   UNL     1       3.535   7.274  20.808  0.00  0.00    +0.000 HD
ENDROOT
BRANCH   4   7
ATOM      7  C   UNL     1       1.764   8.059  20.055  0.00  0.00    +0.000 A 
ATOM      8  C   UNL     1       0.817   8.395  21.031  0.00  0.00    +0.000 A 
ATOM      9  C   UNL     1      -0.178   9.341  20.780  0.00  0.00    +0.000 A 
ATOM     10  C   UNL     1      -0.221   9.989  19.554  0.00  0.00    +0.000 A 
ATOM     11 CL   UNL     1      -1.473  11.124  19.240  0.00  0.00    +0.000 Cl
ATOM     12  C   UNL     1       0.741   9.720  18.584  0.00  0.00    +0.000 A 
ATOM     13  C   UNL     1       1.735   8.767  18.838  0.00  0.00    +0.000 A 
ATOM     14 CL   UNL     1       2.899   8.452  17.596  0.00  0.00    +0.000 Cl
ENDBRANCH   4   7
BRANCH   1  15
ATOM     15  S   UNL     1       4.056   3.547  19.130  0.00  0.00    +0.000 S 
ATOM     16  O   UNL     1       2.774   3.010  18.730  0.00  0.00    +0.000 OA
ATOM     17  O   UNL     1       4.939   2.792  19.997  0.00  0.00    +0.000 OA
BRANCH  15  22
ATOM     18  C   UNL     1       7.237   5.054  14.174  0.00  0.00    +0.000 C 
ATOM     19  C   UNL     1       6.452   4.670  15.395  0.00  0.00    +0.000 A 
ATOM     20  C   UNL     1       5.103   4.305  15.295  0.00  0.00    +0.000 A 
ATOM     21  C   UNL     1       4.373   3.967  16.436  0.00  0.00    +0.000 A 
ATOM     22  C   UNL     1       4.997   3.986  17.686  0.00  0.00    +0.000 A 
ATOM     23  C   UNL     1       6.343   4.345  17.801  0.00  0.00    +0.000 A 
ATOM     24  C   UNL     1       7.067   4.686  16.655  0.00  0.00    +0.000 A 
ENDBRANCH  15  22
ENDBRANCH   1  15
TORSDOF 3
ENDMDL
MODEL 4
REMARK VINA RESULT:      -7.6      1.834      2.389
REMARK  Name = 
REMARK  4 active torsions:
REMARK  status: ('A' for Active; 'I' for Inactive)
REMARK    1  A    between atoms: C_1  and  C_2
REMARK    2  A    between atoms: C_5  and  S_6
REMARK    3  A    between atoms: S_6  and  N_9
REMARK    4  A    between atoms: N_12  and  C_13
REMARK                            x       y       z     vdW  Elec       q    Type
REMARK                         _______ _______ _______ _____ _____    ______ ____
ROOT
ATOM      1  N   UNL     1       2.650   6.845  18.950  0.00  0.00    +0.000 N 
ATOM      2  C   UNL     1       1.856   7.352  19.969  0.00  0.00    +0.000 C 
ATOM      3  O   UNL     1       1.390   6.611  20.819  0.00  0.00    +0.000 OA
ATOM      4  N   UNL     1       1.616   8.702  19.880  0.00  0.00    +0.000 N 
ATOM      5  H   UNL     1       3.026   7.397  18.194  0.00  0.00    +0.000 HD
ATOM      6  H   UNL     1       1.932   9.188  19.053  0.00  0.00    +0.000 HD
ENDROOT
BRANCH   4   7
ATOM      7  C   UNL     1       0.782   9.438  20.765  0.00  0.00    +0.000 A 
ATOM      8  C   UNL     1       0.718   9.159  22.136  0.00  0.00    +0.000 A 
ATOM      9  C   UNL     1      -0.177   9.829  22.971  0.00  0.00    +0.000 A 
ATOM     10  C   UNL     1      -1.004  10.814  22.448  0.00  0.00    +0.000 A 
ATOM     11 CL   UNL     1      -2.130  11.606  23.477  0.00  0.00    +0.000 Cl
ATOM     12  C   UNL     1      -0.923  11.156  21.101  0.00  0.00    +0.000 A 
ATOM     13  C   UNL     1      -0.027  10.477  20.266  0.00  0.00    +0.000 A 
ATOM     14 CL   UNL     1       0.026  10.924  18.594  0.00  0.00    +0.000 Cl
ENDBRANCH   4   7
BRANCH   1  15
ATOM     15  S   UNL     1       2.958   5.205  18.812  0.00  0.00    +0.000 S 
ATOM     16  O   UNL     1       1.725   4.528  18.476  0.00  0.00    +0.000 OA
ATOM     17  O   UNL     1       3.700   4.850  20.005  0.00  0.00    +0.000 OA
BRANCH  15  22
ATOM     18  C   UNL     1       6.821   4.789  14.135  0.00  0.00    +0.000 C 
ATOM     19  C   UNL     1       5.876   4.889  15.298  0.00  0.00    +0.000 A 
ATOM     20  C   UNL     1       5.393   3.736  15.931  0.00  0.00    +0.000 A 
ATOM     21  C   UNL     1       4.499   3.835  17.000  0.00  0.00    +0.000 A 
ATOM     22  C   UNL     1       4.091   5.095  17.445  0.00  0.00    +0.000 A 
ATOM     23  C   UNL     1       4.567   6.254  16.826  0.00  0.00    +0.000 A 
ATOM     24  C   UNL     1       5.458   6.148  15.754  0.00  0.00    +0.000 A 
ENDBRANCH  15  22
ENDBRANCH   1  15
TORSDOF 3
ENDMDL
MODEL 5
REMARK VINA RESULT:      -7.5      1.178      1.559
REMARK  Name = 
REMARK  4 active torsions:
REMARK  status: ('A' for Active; 'I' for Inactive)
REMARK    1  A    between atoms: C_1  and  C_2
REMARK    2  A    between atoms: C_5  and  S_6
REMARK    3  A    between atoms: S_6  and  N_9
REMARK    4  A    between atoms: N_12  and  C_13
REMARK                            x       y       z     vdW  Elec       q    Type
REMARK                         _______ _______ _______ _____ _____    ______ ____
ROOT
ATOM      1  N   UNL     1       3.751   5.022  19.813  0.00  0.00    +0.000 N 
ATOM      2  C   UNL     1       2.823   5.896  19.264  0.00  0.00    +0.000 C 
ATOM      3  O   UNL     1       2.215   5.598  18.250  0.00  0.00    +0.000 OA
ATOM      4  N   UNL     1       2.720   7.097  19.924  0.00  0.00    +0.000 N 
ATOM      5  H   UNL     1       4.318   5.229  20.621  0.00  0.00    +0.000 HD
ATOM      6  H   UNL     1       3.378   7.291  20.665  0.00  0.00    +0.000 HD
ENDROOT
BRANCH   4   7
ATOM      7  C   UNL     1       1.889   8.176  19.517  0.00  0.00    +0.000 A 
ATOM      8  C   UNL     1       1.848   8.630  18.193  0.00  0.00    +0.000 A 
ATOM      9  C   UNL     1       1.098   9.750  17.833  0.00  0.00    +0.000 A 
ATOM     10  C   UNL     1       0.352  10.419  18.793  0.00  0.00    +0.000 A 
ATOM     11 CL   UNL     1      -0.538  11.820  18.348  0.00  0.00    +0.000 Cl
ATOM     12  C   UNL     1       0.324   9.958  20.107  0.00  0.00    +0.000 A 
ATOM     13  C   UNL     1       1.082   8.836  20.465  0.00  0.00    +0.000 A 
ATOM     14 CL   UNL     1       1.032   8.311  22.113  0.00  0.00    +0.000 Cl
ENDBRANCH   4   7
BRANCH   1  15
ATOM     15  S   UNL     1       4.112   3.557  19.087  0.00  0.00    +0.000 S 
ATOM     16  O   UNL     1       2.878   2.923  18.682  0.00  0.00    +0.000 OA
ATOM     17  O   UNL     1       5.027   2.892  19.993  0.00  0.00    +0.000 OA
BRANCH  15  22
ATOM     18  C   UNL     1       7.352   5.115  14.184  0.00  0.00    +0.000 C 
ATOM     19  C   UNL     1       6.550   4.741  15.397  0.00  0.00    +0.000 A 
ATOM     20  C   UNL     1       7.078   4.905  16.684  0.00  0.00    +0.000 A 
ATOM     21  C   UNL     1       6.334   4.539  17.808  0.00  0.00    +0.000 A 
ATOM     22  C   UNL     1       5.050   4.012  17.645  0.00  0.00    +0.000 A 
ATOM     23  C   UNL     1       4.509   3.847  16.368  0.00  0.00    +0.000 A 
ATOM     24  C   UNL     1       5.260   4.211  15.247  0.00  0.00    +0.000 A 
ENDBRANCH  15  22
ENDBRANCH   1  15
TORSDOF 3
ENDMDL
MODEL 6
REMARK VINA RESULT:      -7.5      1.182      1.874
REMARK  Name = 
REMARK  4 active torsions:
REMARK  status: ('A' for Active; 'I' for Inactive)
REMARK    1  A    between atoms: C_1  and  C_2
REMARK    2  A    between atoms: C_5  and  S_6
REMARK    3  A    between atoms: S_6  and  N_9
REMARK    4  A    between atoms: N_12  and  C_13
REMARK                            x       y       z     vdW  Elec       q    Type
REMARK                         _______ _______ _______ _____ _____    ______ ____
ROOT
ATOM      1  N   UNL     1       3.702   5.033  19.809  0.00  0.00    +0.000 N 
ATOM      2  C   UNL     1       2.787   5.921  19.260  0.00  0.00    +0.000 C 
ATOM      3  O   UNL     1       2.182   5.635  18.240  0.00  0.00    +0.000 OA
ATOM      4  N   UNL     1       2.693   7.118  19.926  0.00  0.00    +0.000 N 
ATOM      5  H   UNL     1       4.266   5.228  20.622  0.00  0.00    +0.000 HD
ATOM      6  H   UNL     1       3.349   7.301  20.673  0.00  0.00    +0.000 HD
ENDROOT
BRANCH   4   7
ATOM      7  C   UNL     1       1.877   8.209  19.521  0.00  0.00    +0.000 A 
ATOM      8  C   UNL     1       1.859   8.680  18.202  0.00  0.00    +0.000 A 
ATOM      9  C   UNL     1       1.124   9.810  17.845  0.00  0.00    +0.000 A 
ATOM     10  C   UNL     1       0.369  10.473  18.803  0.00  0.00    +0.000 A 
ATOM     11 CL   UNL     1      -0.502  11.888  18.363  0.00  0.00    +0.000 Cl
ATOM     12  C   UNL     1       0.319   9.997  20.110  0.00  0.00    +0.000 A 
ATOM     13  C   UNL     1       1.062   8.865  20.465  0.00  0.00    +0.000 A 
ATOM     14 CL   UNL     1       0.984   8.320  22.106  0.00  0.00    +0.000 Cl
ENDBRANCH   4   7
BRANCH   1  15
ATOM     15  S   UNL     1       4.051   3.568  19.076  0.00  0.00    +0.000 S 
ATOM     16  O   UNL     1       2.814   2.963  18.634  0.00  0.00    +0.000 OA
ATOM     17  O   UNL     1       4.930   2.875  19.997  0.00  0.00    +0.000 OA
BRANCH  15  22
ATOM     18  C   UNL     1       7.373   5.111  14.223  0.00  0.00    +0.000 C 
ATOM     19  C   UNL     1       6.554   4.718  15.419  0.00  0.00    +0.000 A 
ATOM     20  C   UNL     1       5.256   4.213  15.266  0.00  0.00    +0.000 A 
ATOM     21  C   UNL     1       4.493   3.868  16.383  0.00  0.00    +0.000 A 
ATOM     22  C   UNL     1       5.033   4.019  17.663  0.00  0.00    +0.000 A 
ATOM     23  C   UNL     1       6.328   4.518  17.831  0.00  0.00    +0.000 A 
ATOM     24  C   UNL     1       7.085   4.866  16.709  0.00  0.00    +0.000 A 
ENDBRANCH  15  22
ENDBRANCH   1  15
TORSDOF 3
ENDMDL
MODEL 7
REMARK VINA RESULT:      -7.4      3.656      8.601
REMARK  Name = 
REMARK  4 active torsions:
REMARK  status: ('A' for Active; 'I' for Inactive)
REMARK    1  A    between atoms: C_1  and  C_2
REMARK    2  A    between atoms: C_5  and  S_6
REMARK    3  A    between atoms: S_6  and  N_9
REMARK    4  A    between atoms: N_12  and  C_13
REMARK                            x       y       z     vdW  Elec       q    Type
REMARK                         _______ _______ _______ _____ _____    ______ ____
ROOT
ATOM      1  N   UNL     1       1.195   9.150  19.226  0.00  0.00    +0.000 N 
ATOM      2  C   UNL     1       2.043   8.484  18.351  0.00  0.00    +0.000 C 
ATOM      3  O   UNL     1       2.230   8.912  17.224  0.00  0.00    +0.000 OA
ATOM      4  N   UNL     1       2.568   7.318  18.852  0.00  0.00    +0.000 N 
ATOM      5  H   UNL     1       0.964   8.824  20.152  0.00  0.00    +0.000 HD
ATOM      6  H   UNL     1       2.228   6.987  19.744  0.00  0.00    +0.000 HD
ENDROOT
BRANCH   4   7
ATOM      7  C   UNL     1       3.408   6.430  18.126  0.00  0.00    +0.000 A 
ATOM      8  C   UNL     1       4.601   6.852  17.526  0.00  0.00    +0.000 A 
ATOM      9  C   UNL     1       5.362   5.987  16.739  0.00  0.00    +0.000 A 
ATOM     10  C   UNL     1       4.953   4.672  16.564  0.00  0.00    +0.000 A 
ATOM     11 CL   UNL     1       5.876   3.626  15.561  0.00  0.00    +0.000 Cl
ATOM     12  C   UNL     1       3.803   4.206  17.195  0.00  0.00    +0.000 A 
ATOM     13  C   UNL     1       3.039   5.078  17.980  0.00  0.00    +0.000 A 
ATOM     14 CL   UNL     1       1.607   4.458  18.730  0.00  0.00    +0.000 Cl
ENDBRANCH   4   7
BRANCH   1  15
ATOM     15  S   UNL     1       0.360  10.526  18.762  0.00  0.00    +0.000 S 
ATOM     16  O   UNL     1      -0.584  10.168  17.726  0.00  0.00    +0.000 OA
ATOM     17  O   UNL     1       1.375  11.532  18.525  0.00  0.00    +0.000 OA
BRANCH  15  22
ATOM     18  C   UNL     1      -2.673  12.198  23.758  0.00  0.00    +0.000 C 
ATOM     19  C   UNL     1      -1.918  11.795  22.524  0.00  0.00    +0.000 A 
ATOM     20  C   UNL     1      -2.221  12.364  21.280  0.00  0.00    +0.000 A 
ATOM     21  C   UNL     1      -1.528  11.972  20.133  0.00  0.00    +0.000 A 
ATOM     22  C   UNL     1      -0.519  11.010  20.230  0.00  0.00    +0.000 A 
ATOM     23  C   UNL     1      -0.203  10.437  21.465  0.00  0.00    +0.000 A 
ATOM     24  C   UNL     1      -0.904  10.831  22.609  0.00  0.00    +0.000 A 
ENDBRANCH  15  22
ENDBRANCH   1  15
TORSDOF 3
ENDMDL
MODEL 8
REMARK VINA RESULT:      -7.3      1.946      2.504
REMARK  Name = 
REMARK  4 active torsions:
REMARK  status: ('A' for Active; 'I' for Inactive)
REMARK    1  A    between atoms: C_1  and  C_2
REMARK    2  A    between atoms: C_5  and  S_6
REMARK    3  A    between atoms: S_6  and  N_9
REMARK    4  A    between atoms: N_12  and  C_13
REMARK                            x       y       z     vdW  Elec       q    Type
REMARK                         _______ _______ _______ _____ _____    ______ ____
ROOT
ATOM      1  N   UNL     1       2.623   7.329  18.413  0.00  0.00    +0.000 N 
ATOM      2  C   UNL     1       1.840   8.032  19.319  0.00  0.00    +0.000 C 
ATOM      3  O   UNL     1       1.505   7.522  20.375  0.00  0.00    +0.000 OA
ATOM      4  N   UNL     1       1.455   9.278  18.884  0.00  0.00    +0.000 N 
ATOM      5  H   UNL     1       2.895   7.677  17.506  0.00  0.00    +0.000 HD
ATOM      6  H   UNL     1       1.671   9.537  17.932  0.00  0.00    +0.000 HD
ENDROOT
BRANCH   4   7
ATOM      7  C   UNL     1       0.601  10.158  19.602  0.00  0.00    +0.000 A 
ATOM      8  C   UNL     1       0.948  10.681  20.853  0.00  0.00    +0.000 A 
ATOM      9  C   UNL     1       0.057  11.468  21.584  0.00  0.00    +0.000 A 
ATOM     10  C   UNL     1      -1.192  11.767  21.055  0.00  0.00    +0.000 A 
ATOM     11 CL   UNL     1      -2.298  12.704  21.978  0.00  0.00    +0.000 Cl
ATOM     12  C   UNL     1      -1.545  11.312  19.788  0.00  0.00    +0.000 A 
ATOM     13  C   UNL     1      -0.649  10.519  19.061  0.00  0.00    +0.000 A 
ATOM     14 CL   UNL     1      -1.138   9.960  17.497  0.00  0.00    +0.000 Cl
ENDBRANCH   4   7
BRANCH   1  15
ATOM     15  S   UNL     1       3.093   5.748  18.703  0.00  0.00    +0.000 S 
ATOM     16  O   UNL     1       1.921   4.903  18.675  0.00  0.00    +0.000 OA
ATOM     17  O   UNL     1       3.939   5.807  19.879  0.00  0.00    +0.000 OA
BRANCH  15  22
ATOM     18  C   UNL     1       6.709   4.442  13.993  0.00  0.00    +0.000 C 
ATOM     19  C   UNL     1       5.807   4.767  15.149  0.00  0.00    +0.000 A 
ATOM     20  C   UNL     1       5.502   6.097  15.469  0.00  0.00    +0.000 A 
ATOM     21  C   UNL     1       4.678   6.394  16.557  0.00  0.00    +0.000 A 
ATOM     22  C   UNL     1       4.147   5.354  17.326  0.00  0.00    +0.000 A 
ATOM     23  C   UNL     1       4.439   4.023  17.016  0.00  0.00    +0.000 A 
ATOM     24  C   UNL     1       5.269   3.733  15.929  0.00  0.00    +0.000 A 
ENDBRANCH  15  22
ENDBRANCH   1  15
TORSDOF 3
ENDMDL
MODEL 9
REMARK VINA RESULT:      -7.3      3.656      8.555
REMARK  Name = 
REMARK  4 active torsions:
REMARK  status: ('A' for Active; 'I' for Inactive)
REMARK    1  A    between atoms: C_1  and  C_2
REMARK    2  A    between atoms: C_5  and  S_6
REMARK    3  A    between atoms: S_6  and  N_9
REMARK    4  A    between atoms: N_12  and  C_13
REMARK                            x       y       z     vdW  Elec       q    Type
REMARK                         _______ _______ _______ _____ _____    ______ ____
ROOT
ATOM      1  N   UNL     1       1.194   9.153  19.198  0.00  0.00    +0.000 N 
ATOM      2  C   UNL     1       2.048   8.488  18.329  0.00  0.00    +0.000 C 
ATOM      3  O   UNL     1       2.245   8.918  17.205  0.00  0.00    +0.000 OA
ATOM      4  N   UNL     1       2.569   7.321  18.833  0.00  0.00    +0.000 N 
ATOM      5  H   UNL     1       0.954   8.825  20.122  0.00  0.00    +0.000 HD
ATOM      6  H   UNL     1       2.222   6.988  19.721  0.00  0.00    +0.000 HD
ENDROOT
BRANCH   4   7
ATOM      7  C   UNL     1       3.414   6.434  18.112  0.00  0.00    +0.000 A 
ATOM      8  C   UNL     1       4.613   6.856  17.523  0.00  0.00    +0.000 A 
ATOM      9  C   UNL     1       5.380   5.993  16.741  0.00  0.00    +0.000 A 
ATOM     10  C   UNL     1       4.972   4.679  16.560  0.00  0.00    +0.000 A 
ATOM     11 CL   UNL     1       5.903   3.634  15.563  0.00  0.00    +0.000 Cl
ATOM     12  C   UNL     1       3.816   4.211  17.180  0.00  0.00    +0.000 A 
ATOM     13  C   UNL     1       3.046   5.082  17.960  0.00  0.00    +0.000 A 
ATOM     14 CL   UNL     1       1.608   4.462  18.696  0.00  0.00    +0.000 Cl
ENDBRANCH   4   7
BRANCH   1  15
ATOM     15  S   UNL     1       0.363  10.530  18.730  0.00  0.00    +0.000 S 
ATOM     16  O   UNL     1      -0.583  10.171  17.697  0.00  0.00    +0.000 OA
ATOM     17  O   UNL     1       1.382  11.532  18.489  0.00  0.00    +0.000 OA
BRANCH  15  22
ATOM     18  C   UNL     1      -2.601  12.196  23.770  0.00  0.00    +0.000 C 
ATOM     19  C   UNL     1      -1.875  11.774  22.525  0.00  0.00    +0.000 A 
ATOM     20  C   UNL     1      -0.875  10.794  22.574  0.00  0.00    +0.000 A 
ATOM     21  C   UNL     1      -0.191  10.419  21.416  0.00  0.00    +0.000 A 
ATOM     22  C   UNL     1      -0.513  11.022  20.197  0.00  0.00    +0.000 A 
ATOM     23  C   UNL     1      -1.511  11.999  20.132  0.00  0.00    +0.000 A 
ATOM     24  C   UNL     1      -2.189  12.372  21.296  0.00  0.00    +0.000 A 
ENDBRANCH  15  22
ENDBRANCH   1  15
TORSDOF 3
ENDMDL
