MODEL 1
REMARK VINA RESULT:      -8.3      0.000      0.000
REMARK  Name = 
REMARK  3 active torsions:
REMARK  status: ('A' for Active; 'I' for Inactive)
REMARK    1  A    between atoms: C_7  and  O_8
REMARK    2  A    between atoms: O_8  and  C_9
REMARK    3  A    between atoms: C_19  and  O_20
REMARK                            x       y       z     vdW  Elec       q    Type
REMARK                         _______ _______ _______ _____ _____    ______ ____
ROOT
ATOM      1  O   UNL     1      -0.584   8.574  21.646  0.00  0.00    +0.000 OA
ATOM      2  S   UNL     1       0.762   9.036  21.365  0.00  0.00    +0.000 S 
ATOM      3  O   UNL     1       1.714   9.318  22.426  0.00  0.00    +0.000 OA
ATOM      4  C   UNL     1       1.506   7.820  20.350  0.00  0.00    +0.000 A 
ATOM      5  C   UNL     1       1.803   6.529  20.760  0.00  0.00    +0.000 A 
ATOM      6  C   UNL     1       2.399   5.680  19.826  0.00  0.00    +0.000 A 
ATOM      7  C   UNL     1       2.621   6.113  18.506  0.00  0.00    +0.000 A 
ATOM      8  C   UNL     1       2.331   7.435  18.140  0.00  0.00    +0.000 A 
ATOM      9  C   UNL     1       1.760   8.294  19.072  0.00  0.00    +0.000 A 
ATOM     10  C   UNL     1       1.427   9.740  18.835  0.00  0.00    +0.000 C 
ATOM     11  C   UNL     1       0.761  10.344  20.097  0.00  0.00    +0.000 C 
ATOM     12  F   UNL     1       1.442  11.460  20.489  0.00  0.00    +0.000 F 
ATOM     13  F   UNL     1      -0.503  10.757  19.785  0.00  0.00    +0.000 F 
ENDROOT
BRANCH  10  14
ATOM     14  O   UNL     1       0.627   9.813  17.649  0.00  0.00    +0.000 OA
ATOM     15  H   UNL     1       0.166   8.959  17.532  0.00  0.00    +0.000 HD
ENDBRANCH  10  14
BRANCH   7  16
ATOM     16  O   UNL     1       3.188   5.336  17.519  0.00  0.00    +0.000 OA
BRANCH  16  17
ATOM     17  C   UNL     1       4.553   5.188  17.456  0.00  0.00    +0.000 A 
ATOM     18  C   UNL     1       5.053   4.663  16.266  0.00  0.00    +0.000 A 
ATOM     19  C   UNL     1       6.424   4.490  16.114  0.00  0.00    +0.000 A 
ATOM     20  F   UNL     1       6.901   3.993  14.966  0.00  0.00    +0.000 F 
ATOM     21  C   UNL     1       7.309   4.831  17.129  0.00  0.00    +0.000 A 
ATOM     22  C   UNL     1       6.801   5.318  18.329  0.00  0.00    +0.000 A 
ATOM     23 CL   UNL     1       7.879   5.756  19.597  0.00  0.00    +0.000 Cl
ATOM     24  C   UNL     1       5.427   5.470  18.511  0.00  0.00    +0.000 A 
ENDBRANCH  16  17
ENDBRANCH   7  16
TORSDOF 3
ENDMDL
MODEL 2
REMARK VINA RESULT:      -8.2      4.575      6.011
REMARK  Name = 
REMARK  3 active torsions:
REMARK  status: ('A' for Active; 'I' for Inactive)
REMARK    1  A    between atoms: C_7  and  O_8
REMARK    2  A    between atoms: O_8  and  C_9
REMARK    3  A    between atoms: C_19  and  O_20
REMARK                            x       y       z     vdW  Elec       q    Type
REMARK                         _______ _______ _______ _____ _____    ______ ____
ROOT
ATOM      1  O   UNL     1       2.543   5.390  20.527  0.00  0.00    +0.000 OA
ATOM      2  S   UNL     1       2.348   4.526  19.379  0.00  0.00    +0.000 S 
ATOM      3  O   UNL     1       1.165   4.619  18.540  0.00  0.00    +0.000 OA
ATOM      4  C   UNL     1       3.718   4.785  18.321  0.00  0.00    +0.000 A 
ATOM      5  C   UNL     1       3.984   5.972  17.655  0.00  0.00    +0.000 A 
ATOM      6  C   UNL     1       5.121   6.013  16.846  0.00  0.00    +0.000 A 
ATOM      7  C   UNL     1       5.987   4.907  16.773  0.00  0.00    +0.000 A 
ATOM      8  C   UNL     1       5.667   3.716  17.441  0.00  0.00    +0.000 A 
ATOM      9  C   UNL     1       4.523   3.659  18.229  0.00  0.00    +0.000 A 
ATOM     10  C   UNL     1       4.037   2.447  18.973  0.00  0.00    +0.000 C 
ATOM     11  C   UNL     1       2.757   2.796  19.774  0.00  0.00    +0.000 C 
ATOM     12  F   UNL     1       1.757   1.928  19.446  0.00  0.00    +0.000 F 
ATOM     13  F   UNL     1       2.998   2.617  21.107  0.00  0.00    +0.000 F 
ENDROOT
BRANCH  10  14
ATOM     14  O   UNL     1       5.123   1.963  19.771  0.00  0.00    +0.000 OA
ATOM     15  H   UNL     1       5.688   1.393  19.214  0.00  0.00    +0.000 HD
ENDBRANCH  10  14
BRANCH   7  16
ATOM     16  O   UNL     1       7.136   4.869  16.013  0.00  0.00    +0.000 OA
BRANCH  16  17
ATOM     17  C   UNL     1       7.058   4.691  14.652  0.00  0.00    +0.000 A 
ATOM     18  C   UNL     1       7.773   5.604  13.879  0.00  0.00    +0.000 A 
ATOM     19  C   UNL     1       7.757   5.490  12.494  0.00  0.00    +0.000 A 
ATOM     20  F   UNL     1       8.451   6.364  11.754  0.00  0.00    +0.000 F 
ATOM     21  C   UNL     1       7.041   4.481  11.862  0.00  0.00    +0.000 A 
ATOM     22  C   UNL     1       6.298   3.597  12.638  0.00  0.00    +0.000 A 
ATOM     23 CL   UNL     1       5.411   2.332  11.879  0.00  0.00    +0.000 Cl
ATOM     24  C   UNL     1       6.277   3.713  14.028  0.00  0.00    +0.000 A 
ENDBRANCH  16  17
ENDBRANCH   7  16
TORSDOF 3
ENDMDL
MODEL 3
REMARK VINA RESULT:      -8.1      1.872      2.982
REMARK  Name = 
REMARK  3 active torsions:
REMARK  status: ('A' for Active; 'I' for Inactive)
REMARK    1  A    between atoms: C_7  and  O_8
REMARK    2  A    between atoms: O_8  and  C_9
REMARK    3  A    between atoms: C_19  and  O_20
REMARK                            x       y       z     vdW  Elec       q    Type
REMARK                         _______ _______ _______ _____ _____    ______ ____
ROOT
ATOM      1  O   UNL     1       1.741  11.506  18.879  0.00  0.00    +0.000 OA
ATOM      2  S   UNL     1       0.755  10.455  19.037  0.00  0.00    +0.000 S 
ATOM      3  O   UNL     1      -0.418  10.368  18.183  0.00  0.00    +0.000 OA
ATOM      4  C   UNL     1       1.608   8.938  18.850  0.00  0.00    +0.000 A 
ATOM      5  C   UNL     1       2.196   8.507  17.670  0.00  0.00    +0.000 A 
ATOM      6  C   UNL     1       2.839   7.268  17.689  0.00  0.00    +0.000 A 
ATOM      7  C   UNL     1       2.934   6.529  18.883  0.00  0.00    +0.000 A 
ATOM      8  C   UNL     1       2.302   6.988  20.047  0.00  0.00    +0.000 A 
ATOM      9  C   UNL     1       1.639   8.210  20.030  0.00  0.00    +0.000 A 
ATOM     10  C   UNL     1       0.891   8.812  21.187  0.00  0.00    +0.000 C 
ATOM     11  C   UNL     1       0.331  10.202  20.790  0.00  0.00    +0.000 C 
ATOM     12  F   UNL     1      -1.014  10.240  21.019  0.00  0.00    +0.000 F 
ATOM     13  F   UNL     1       0.884  11.157  21.595  0.00  0.00    +0.000 F 
ENDROOT
BRANCH  10  14
ATOM     14  O   UNL     1       1.773   8.828  22.314  0.00  0.00    +0.000 OA
ATOM     15  H   UNL     1       1.361   9.356  23.025  0.00  0.00    +0.000 HD
ENDBRANCH  10  14
BRANCH   7  16
ATOM     16  O   UNL     1       3.563   5.308  18.993  0.00  0.00    +0.000 OA
BRANCH  16  17
ATOM     17  C   UNL     1       4.754   5.085  18.343  0.00  0.00    +0.000 A 
ATOM     18  C   UNL     1       5.905   5.420  19.054  0.00  0.00    +0.000 A 
ATOM     19  C   UNL     1       7.152   5.217  18.475  0.00  0.00    +0.000 A 
ATOM     20  F   UNL     1       8.256   5.532  19.164  0.00  0.00    +0.000 F 
ATOM     21  C   UNL     1       7.275   4.683  17.198  0.00  0.00    +0.000 A 
ATOM     22  C   UNL     1       6.121   4.387  16.479  0.00  0.00    +0.000 A 
ATOM     23 CL   UNL     1       6.248   3.717  14.900  0.00  0.00    +0.000 Cl
ATOM     24  C   UNL     1       4.860   4.613  17.031  0.00  0.00    +0.000 A 
ENDBRANCH  16  17
ENDBRANCH   7  16
TORSDOF 3
ENDMDL
MODEL 4
REMARK VINA RESULT:      -8.0      3.904      6.945
REMARK  Name = 
REMARK  3 active torsions:
REMARK  status: ('A' for Active; 'I' for Inactive)
REMARK    1  A    between atoms: C_7  and  O_8
REMARK    2  A    between atoms: O_8  and  C_9
REMARK    3  A    between atoms: C_19  and  O_20
REMARK                            x       y       z     vdW  Elec       q    Type
REMARK                         _______ _______ _______ _____ _____    ______ ____
ROOT
ATOM      1  O   UNL     1       3.292   1.925  18.131  0.00  0.00    +0.000 OA
ATOM      2  S   UNL     1       3.735   2.695  19.276  0.00  0.00    +0.000 S 
ATOM      3  O   UNL     1       5.068   2.541  19.837  0.00  0.00    +0.000 OA
ATOM      4  C   UNL     1       3.583   4.381  18.833  0.00  0.00    +0.000 A 
ATOM      5  C   UNL     1       4.335   5.006  17.849  0.00  0.00    +0.000 A 
ATOM      6  C   UNL     1       4.091   6.361  17.618  0.00  0.00    +0.000 A 
ATOM      7  C   UNL     1       3.073   7.034  18.319  0.00  0.00    +0.000 A 
ATOM      8  C   UNL     1       2.354   6.372  19.325  0.00  0.00    +0.000 A 
ATOM      9  C   UNL     1       2.609   5.029  19.577  0.00  0.00    +0.000 A 
ATOM     10  C   UNL     1       1.945   4.202  20.642  0.00  0.00    +0.000 C 
ATOM     11  C   UNL     1       2.461   2.742  20.577  0.00  0.00    +0.000 C 
ATOM     12  F   UNL     1       2.939   2.366  21.799  0.00  0.00    +0.000 F 
ATOM     13  F   UNL     1       1.416   1.907  20.301  0.00  0.00    +0.000 F 
ENDROOT
BRANCH  10  14
ATOM     14  O   UNL     1       0.529   4.338  20.479  0.00  0.00    +0.000 OA
ATOM     15  H   UNL     1       0.354   4.739  19.604  0.00  0.00    +0.000 HD
ENDBRANCH  10  14
BRANCH   7  16
ATOM     16  O   UNL     1       2.756   8.363  18.142  0.00  0.00    +0.000 OA
BRANCH  16  17
ATOM     17  C   UNL     1       1.660   8.900  18.776  0.00  0.00    +0.000 A 
ATOM     18  C   UNL     1       0.774   9.605  17.963  0.00  0.00    +0.000 A 
ATOM     19  C   UNL     1      -0.366  10.172  18.520  0.00  0.00    +0.000 A 
ATOM     20  F   UNL     1      -1.218  10.842  17.735  0.00  0.00    +0.000 F 
ATOM     21  C   UNL     1      -0.642  10.049  19.877  0.00  0.00    +0.000 A 
ATOM     22  C   UNL     1       0.266   9.377  20.689  0.00  0.00    +0.000 A 
ATOM     23 CL   UNL     1      -0.058   9.203  22.370  0.00  0.00    +0.000 Cl
ATOM     24  C   UNL     1       1.431   8.828  20.153  0.00  0.00    +0.000 A 
ENDBRANCH  16  17
ENDBRANCH   7  16
TORSDOF 3
ENDMDL
MODEL 5
REMARK VINA RESULT:      -7.9      2.672      3.891
REMARK  Name = 
REMARK  3 active torsions:
REMARK  status: ('A' for Active; 'I' for Inactive)
REMARK    1  A    between atoms: C_7  and  O_8
REMARK    2  A    between atoms: O_8  and  C_9
REMARK    3  A    between atoms: C_19  and  O_20
REMARK                            x       y       z     vdW  Elec       q    Type
REMARK                         _______ _______ _______ _____ _____    ______ ____
ROOT
ATOM      1  O   UNL     1       0.957  12.523  18.707  0.00  0.00    +0.000 OA
ATOM      2  S   UNL     1      -0.039  11.499  18.956  0.00  0.00    +0.000 S 
ATOM      3  O   UNL     1      -1.149  11.270  18.047  0.00  0.00    +0.000 OA
ATOM      4  C   UNL     1       0.823   9.980  19.068  0.00  0.00    +0.000 A 
ATOM      5  C   UNL     1       1.492   9.377  18.014  0.00  0.00    +0.000 A 
ATOM      6  C   UNL     1       2.130   8.162  18.270  0.00  0.00    +0.000 A 
ATOM      7  C   UNL     1       2.139   7.619  19.568  0.00  0.00    +0.000 A 
ATOM      8  C   UNL     1       1.428   8.247  20.600  0.00  0.00    +0.000 A 
ATOM      9  C   UNL     1       0.769   9.445  20.346  0.00  0.00    +0.000 A 
ATOM     10  C   UNL     1      -0.058  10.212  21.340  0.00  0.00    +0.000 C 
ATOM     11  C   UNL     1      -0.586  11.517  20.693  0.00  0.00    +0.000 C 
ATOM     12  F   UNL     1      -1.944  11.578  20.820  0.00  0.00    +0.000 F 
ATOM     13  F   UNL     1      -0.090  12.591  21.377  0.00  0.00    +0.000 F 
ENDROOT
BRANCH  10  14
ATOM     14  O   UNL     1       0.743  10.411  22.510  0.00  0.00    +0.000 OA
ATOM     15  H   UNL     1       0.735   9.587  23.036  0.00  0.00    +0.000 HD
ENDBRANCH  10  14
BRANCH   7  16
ATOM     16  O   UNL     1       2.757   6.436  19.911  0.00  0.00    +0.000 OA
BRANCH  16  17
ATOM     17  C   UNL     1       2.781   5.387  19.022  0.00  0.00    +0.000 A 
ATOM     18  C   UNL     1       1.712   4.496  19.107  0.00  0.00    +0.000 A 
ATOM     19  C   UNL     1       1.651   3.413  18.238  0.00  0.00    +0.000 A 
ATOM     20  F   UNL     1       0.619   2.563  18.317  0.00  0.00    +0.000 F 
ATOM     21  C   UNL     1       2.637   3.200  17.282  0.00  0.00    +0.000 A 
ATOM     22  C   UNL     1       3.720   4.071  17.228  0.00  0.00    +0.000 A 
ATOM     23 CL   UNL     1       4.949   3.834  16.047  0.00  0.00    +0.000 Cl
ATOM     24  C   UNL     1       3.814   5.146  18.112  0.00  0.00    +0.000 A 
ENDBRANCH  16  17
ENDBRANCH   7  16
TORSDOF 3
ENDMDL
MODEL 6
REMARK VINA RESULT:      -7.9      1.501      1.796
REMARK  Name = 
REMARK  3 active torsions:
REMARK  status: ('A' for Active; 'I' for Inactive)
REMARK    1  A    between atoms: C_7  and  O_8
REMARK    2  A    between atoms: O_8  and  C_9
REMARK    3  A    between atoms: C_19  and  O_20
REMARK                            x       y       z     vdW  Elec       q    Type
REMARK                         _______ _______ _______ _____ _____    ______ ____
ROOT
ATOM      1  O   UNL     1      -0.638   8.785  21.620  0.00  0.00    +0.000 OA
ATOM      2  S   UNL     1       0.736   9.178  21.376  0.00  0.00    +0.000 S 
ATOM      3  O   UNL     1       1.661   9.455  22.462  0.00  0.00    +0.000 OA
ATOM      4  C   UNL     1       1.462   7.896  20.430  0.00  0.00    +0.000 A 
ATOM      5  C   UNL     1       1.685   6.609  20.894  0.00  0.00    +0.000 A 
ATOM      6  C   UNL     1       2.277   5.703  20.011  0.00  0.00    +0.000 A 
ATOM      7  C   UNL     1       2.567   6.080  18.687  0.00  0.00    +0.000 A 
ATOM      8  C   UNL     1       2.350   7.400  18.267  0.00  0.00    +0.000 A 
ATOM      9  C   UNL     1       1.784   8.315  19.148  0.00  0.00    +0.000 A 
ATOM     10  C   UNL     1       1.525   9.765  18.851  0.00  0.00    +0.000 C 
ATOM     11  C   UNL     1       0.841  10.441  20.067  0.00  0.00    +0.000 C 
ATOM     12  F   UNL     1       1.557  11.539  20.447  0.00  0.00    +0.000 F 
ATOM     13  F   UNL     1      -0.391  10.897  19.694  0.00  0.00    +0.000 F 
ENDROOT
BRANCH  10  14
ATOM     14  O   UNL     1       0.773   9.832  17.634  0.00  0.00    +0.000 OA
ATOM     15  H   UNL     1       0.081   9.143  17.658  0.00  0.00    +0.000 HD
ENDBRANCH  10  14
BRANCH   7  16
ATOM     16  O   UNL     1       3.134   5.246  17.748  0.00  0.00    +0.000 OA
BRANCH  16  17
ATOM     17  C   UNL     1       4.495   5.250  17.555  0.00  0.00    +0.000 A 
ATOM     18  C   UNL     1       5.270   5.417  18.702  0.00  0.00    +0.000 A 
ATOM     19  C   UNL     1       6.656   5.422  18.598  0.00  0.00    +0.000 A 
ATOM     20  F   UNL     1       7.397   5.575  19.703  0.00  0.00    +0.000 F 
ATOM     21  C   UNL     1       7.287   5.262  17.371  0.00  0.00    +0.000 A 
ATOM     22  C   UNL     1       6.508   5.135  16.226  0.00  0.00    +0.000 A 
ATOM     23 CL   UNL     1       7.266   4.926  14.695  0.00  0.00    +0.000 Cl
ATOM     24  C   UNL     1       5.115   5.158  16.305  0.00  0.00    +0.000 A 
ENDBRANCH  16  17
ENDBRANCH   7  16
TORSDOF 3
ENDMDL
MODEL 7
REMARK VINA RESULT:      -7.9      2.687      3.862
REMARK  Name = 
REMARK  3 active torsions:
REMARK  status: ('A' for Active; 'I' for Inactive)
REMARK    1  A    between atoms: C_7  and  O_8
REMARK    2  A    between atoms: O_8  and  C_9
REMARK    3  A    between atoms: C_19  and  O_20
REMARK                            x       y       z     vdW  Elec       q    Type
REMARK                         _______ _______ _______ _____ _____    ______ ____
ROOT
ATOM      1  O   UNL     1       0.891  12.508  18.612  0.00  0.00    +0.000 OA
ATOM      2  S   UNL     1      -0.065  11.456  18.892  0.00  0.00    +0.000 S 
ATOM      3  O   UNL     1      -1.192  11.188  18.013  0.00  0.00    +0.000 OA
ATOM      4  C   UNL     1       0.847   9.965  18.987  0.00  0.00    +0.000 A 
ATOM      5  C   UNL     1       1.506   9.378  17.917  0.00  0.00    +0.000 A 
ATOM      6  C   UNL     1       2.189   8.185  18.161  0.00  0.00    +0.000 A 
ATOM      7  C   UNL     1       2.249   7.648  19.460  0.00  0.00    +0.000 A 
ATOM      8  C   UNL     1       1.546   8.259  20.508  0.00  0.00    +0.000 A 
ATOM      9  C   UNL     1       0.844   9.434  20.268  0.00  0.00    +0.000 A 
ATOM     10  C   UNL     1       0.020  10.179  21.280  0.00  0.00    +0.000 C 
ATOM     11  C   UNL     1      -0.567  11.465  20.643  0.00  0.00    +0.000 C 
ATOM     12  F   UNL     1      -1.922  11.484  20.805  0.00  0.00    +0.000 F 
ATOM     13  F   UNL     1      -0.086  12.557  21.309  0.00  0.00    +0.000 F 
ENDROOT
BRANCH  10  14
ATOM     14  O   UNL     1       0.844  10.409  22.428  0.00  0.00    +0.000 OA
ATOM     15  H   UNL     1       1.573   9.757  22.423  0.00  0.00    +0.000 HD
ENDBRANCH  10  14
BRANCH   7  16
ATOM     16  O   UNL     1       2.913   6.487  19.791  0.00  0.00    +0.000 OA
BRANCH  16  17
ATOM     17  C   UNL     1       2.752   5.358  19.023  0.00  0.00    +0.000 A 
ATOM     18  C   UNL     1       3.659   5.202  17.976  0.00  0.00    +0.000 A 
ATOM     19  C   UNL     1       3.575   4.082  17.156  0.00  0.00    +0.000 A 
ATOM     20  F   UNL     1       4.453   3.932  16.157  0.00  0.00    +0.000 F 
ATOM     21  C   UNL     1       2.601   3.112  17.360  0.00  0.00    +0.000 A 
ATOM     22  C   UNL     1       1.675   3.294  18.382  0.00  0.00    +0.000 A 
ATOM     23 CL   UNL     1       0.467   2.101  18.661  0.00  0.00    +0.000 Cl
ATOM     24  C   UNL     1       1.725   4.425  19.196  0.00  0.00    +0.000 A 
ENDBRANCH  16  17
ENDBRANCH   7  16
TORSDOF 3
ENDMDL
MODEL 8
REMARK VINA RESULT:      -7.8      3.706      7.227
REMARK  Name = 
REMARK  3 active torsions:
REMARK  status: ('A' for Active; 'I' for Inactive)
REMARK    1  A    between atoms: C_7  and  O_8
REMARK    2  A    between atoms: O_8  and  C_9
REMARK    3  A    between atoms: C_19  and  O_20
REMARK                            x       y       z     vdW  Elec       q    Type
REMARK                         _______ _______ _______ _____ _____    ______ ____
ROOT
ATOM      1  O   UNL     1       3.381   2.717  20.732  0.00  0.00    +0.000 OA
ATOM      2  S   UNL     1       2.357   2.998  19.745  0.00  0.00    +0.000 S 
ATOM      3  O   UNL     1       1.000   2.496  19.882  0.00  0.00    +0.000 OA
ATOM      4  C   UNL     1       2.226   4.740  19.643  0.00  0.00    +0.000 A 
ATOM      5  C   UNL     1       1.768   5.555  20.667  0.00  0.00    +0.000 A 
ATOM      6  C   UNL     1       1.724   6.929  20.424  0.00  0.00    +0.000 A 
ATOM      7  C   UNL     1       2.193   7.454  19.206  0.00  0.00    +0.000 A 
ATOM      8  C   UNL     1       2.623   6.593  18.186  0.00  0.00    +0.000 A 
ATOM      9  C   UNL     1       2.647   5.222  18.413  0.00  0.00    +0.000 A 
ATOM     10  C   UNL     1       3.049   4.180  17.407  0.00  0.00    +0.000 C 
ATOM     11  C   UNL     1       2.989   2.771  18.052  0.00  0.00    +0.000 C 
ATOM     12  F   UNL     1       2.200   1.952  17.298  0.00  0.00    +0.000 F 
ATOM     13  F   UNL     1       4.238   2.218  18.040  0.00  0.00    +0.000 F 
ENDROOT
BRANCH  10  14
ATOM     14  O   UNL     1       4.336   4.544  16.895  0.00  0.00    +0.000 OA
ATOM     15  H   UNL     1       4.330   4.424  15.925  0.00  0.00    +0.000 HD
ENDBRANCH  10  14
BRANCH   7  16
ATOM     16  O   UNL     1       2.201   8.795  18.890  0.00  0.00    +0.000 OA
BRANCH  16  17
ATOM     17  C   UNL     1       1.069   9.554  19.074  0.00  0.00    +0.000 A 
ATOM     18  C   UNL     1       0.187   9.599  17.995  0.00  0.00    +0.000 A 
ATOM     19  C   UNL     1      -0.988  10.335  18.100  0.00  0.00    +0.000 A 
ATOM     20  F   UNL     1      -1.836  10.369  17.065  0.00  0.00    +0.000 F 
ATOM     21  C   UNL     1      -1.303  11.027  19.263  0.00  0.00    +0.000 A 
ATOM     22  C   UNL     1      -0.400  11.010  20.321  0.00  0.00    +0.000 A 
ATOM     23 CL   UNL     1      -0.772  11.852  21.774  0.00  0.00    +0.000 Cl
ATOM     24  C   UNL     1       0.799  10.303  20.223  0.00  0.00    +0.000 A 
ENDBRANCH  16  17
ENDBRANCH   7  16
TORSDOF 3
ENDMDL
MODEL 9
REMARK VINA RESULT:      -7.8      3.643      7.431
REMARK  Name = 
REMARK  3 active torsions:
REMARK  status: ('A' for Active; 'I' for Inactive)
REMARK    1  A    between atoms: C_7  and  O_8
REMARK    2  A    between atoms: O_8  and  C_9
REMARK    3  A    between atoms: C_19  and  O_20
REMARK                            x       y       z     vdW  Elec       q    Type
REMARK                         _______ _______ _______ _____ _____    ______ ____
ROOT
ATOM      1  O   UNL     1       3.444   2.747  20.746  0.00  0.00    +0.000 OA
ATOM      2  S   UNL     1       2.391   3.019  19.788  0.00  0.00    +0.000 S 
ATOM      3  O   UNL     1       1.041   2.511  19.966  0.00  0.00    +0.000 OA
ATOM      4  C   UNL     1       2.247   4.761  19.684  0.00  0.00    +0.000 A 
ATOM      5  C   UNL     1       1.815   5.576  20.719  0.00  0.00    +0.000 A 
ATOM      6  C   UNL     1       1.756   6.949  20.472  0.00  0.00    +0.000 A 
ATOM      7  C   UNL     1       2.186   7.473  19.239  0.00  0.00    +0.000 A 
ATOM      8  C   UNL     1       2.591   6.611  18.210  0.00  0.00    +0.000 A 
ATOM      9  C   UNL     1       2.629   5.240  18.441  0.00  0.00    +0.000 A 
ATOM     10  C   UNL     1       3.007   4.197  17.427  0.00  0.00    +0.000 C 
ATOM     11  C   UNL     1       2.974   2.791  18.078  0.00  0.00    +0.000 C 
ATOM     12  F   UNL     1       2.168   1.964  17.350  0.00  0.00    +0.000 F 
ATOM     13  F   UNL     1       4.225   2.244  18.031  0.00  0.00    +0.000 F 
ENDROOT
BRANCH  10  14
ATOM     14  O   UNL     1       4.276   4.566  16.877  0.00  0.00    +0.000 OA
ATOM     15  H   UNL     1       4.929   3.876  17.108  0.00  0.00    +0.000 HD
ENDBRANCH  10  14
BRANCH   7  16
ATOM     16  O   UNL     1       2.177   8.813  18.919  0.00  0.00    +0.000 OA
BRANCH  16  17
ATOM     17  C   UNL     1       0.995   9.515  18.920  0.00  0.00    +0.000 A 
ATOM     18  C   UNL     1       0.738  10.270  20.063  0.00  0.00    +0.000 A 
ATOM     19  C   UNL     1      -0.430  11.019  20.143  0.00  0.00    +0.000 A 
ATOM     20  F   UNL     1      -0.669  11.749  21.240  0.00  0.00    +0.000 F 
ATOM     21  C   UNL     1      -1.351  11.031  19.103  0.00  0.00    +0.000 A 
ATOM     22  C   UNL     1      -1.107  10.244  17.981  0.00  0.00    +0.000 A 
ATOM     23 CL   UNL     1      -2.228  10.250  16.675  0.00  0.00    +0.000 Cl
ATOM     24  C   UNL     1       0.045   9.462  17.896  0.00  0.00    +0.000 A 
ENDBRANCH  16  17
ENDBRANCH   7  16
TORSDOF 3
ENDMDL
