MODEL 1
REMARK VINA RESULT:      -7.2      0.000      0.000
REMARK  Name = 
REMARK  3 active torsions:
REMARK  status: ('A' for Active; 'I' for Inactive)
REMARK    1  A    between atoms: C_1  and  N_2
REMARK    2  A    between atoms: C_5  and  N_6
REMARK    3  A    between atoms: C_16  and  C_17
REMARK                            x       y       z     vdW  Elec       q    Type
REMARK                         _______ _______ _______ _____ _____    ______ ____
ROOT
ATOM      1  C   UNL     1       0.588   9.153  22.754  0.00  0.00    +0.000 C 
ATOM      2  N   UNL     1       0.172   9.885  21.524  0.00  0.00    +0.000 N 
ATOM      3  C   UNL     1      -0.729  10.918  21.598  0.00  0.00    +0.000 A 
ATOM      4  C   UNL     1      -1.175  11.536  20.411  0.00  0.00    +0.000 A 
ATOM      5  C   UNL     1      -0.669  11.145  19.159  0.00  0.00    +0.000 A 
ATOM      6  C   UNL     1       0.271  10.093  19.113  0.00  0.00    +0.000 A 
ATOM      7  C   UNL     1       0.811   9.617  17.892  0.00  0.00    +0.000 A 
ATOM      8  C   UNL     1       1.755   8.594  17.847  0.00  0.00    +0.000 A 
ATOM      9  C   UNL     1       2.183   8.004  19.021  0.00  0.00    +0.000 A 
ATOM     10  C   UNL     1       1.660   8.439  20.240  0.00  0.00    +0.000 A 
ATOM     11  C   UNL     1       0.700   9.477  20.318  0.00  0.00    +0.000 A 
ATOM     12  C   UNL     1      -2.167  12.653  20.483  0.00  0.00    +0.000 C 
ATOM     13  O   UNL     1      -2.323  13.432  19.553  0.00  0.00    +0.000 OA
ATOM     14  C   UNL     1      -2.855  12.834  21.787  0.00  0.00    +0.000 C 
ATOM     15  C   UNL     1      -4.174  13.063  21.892  0.00  0.00    +0.000 C 
ATOM     16  C   UNL     1      -1.930  12.728  22.947  0.00  0.00    +0.000 C 
ATOM     17  C   UNL     1      -1.289  11.348  22.943  0.00  0.00    +0.000 C 
ENDROOT
BRANCH  15  18
ATOM     18  C   UNL     1      -5.116  13.133  20.764  0.00  0.00    +0.000 A 
ATOM     19  C   UNL     1      -5.696  11.931  20.334  0.00  0.00    +0.000 A 
ATOM     20  C   UNL     1      -6.569  11.920  19.252  0.00  0.00    +0.000 A 
ATOM     21  C   UNL     1      -6.885  13.112  18.605  0.00  0.00    +0.000 A 
ATOM     22  C   UNL     1      -6.359  14.335  19.045  0.00  0.00    +0.000 A 
ATOM     23  C   UNL     1      -6.743  15.537  18.425  0.00  0.00    +0.000 A 
ATOM     24  C   UNL     1      -6.262  16.760  18.877  0.00  0.00    +0.000 A 
ATOM     25  C   UNL     1      -5.349  16.804  19.921  0.00  0.00    +0.000 A 
ATOM     26  C   UNL     1      -4.937  15.618  20.533  0.00  0.00    +0.000 A 
ATOM     27  C   UNL     1      -5.450  14.362  20.133  0.00  0.00    +0.000 A 
ENDBRANCH  15  18
BRANCH   5  28
ATOM     28  N   UNL     1      -1.269  11.619  17.973  0.00  0.00    +0.000 N 
ATOM     29  H   UNL     1      -1.884  10.926  17.517  0.00  0.00    +0.000 HD
ATOM     30  H   UNL     1      -1.732  12.520  18.006  0.00  0.00    +0.000 HD
ENDBRANCH   5  28
TORSDOF 2
ENDMDL
MODEL 2
REMARK VINA RESULT:      -7.2      0.876      2.235
REMARK  Name = 
REMARK  3 active torsions:
REMARK  status: ('A' for Active; 'I' for Inactive)
REMARK    1  A    between atoms: C_1  and  N_2
REMARK    2  A    between atoms: C_5  and  N_6
REMARK    3  A    between atoms: C_16  and  C_17
REMARK                            x       y       z     vdW  Elec       q    Type
REMARK                         _______ _______ _______ _____ _____    ______ ____
ROOT
ATOM      1  C   UNL     1      -0.373   9.395  22.865  0.00  0.00    +0.000 C 
ATOM      2  N   UNL     1      -0.500  10.375  21.751  0.00  0.00    +0.000 N 
ATOM      3  C   UNL     1      -1.278  11.498  21.893  0.00  0.00    +0.000 A 
ATOM      4  C   UNL     1      -1.454  12.364  20.794  0.00  0.00    +0.000 A 
ATOM      5  C   UNL     1      -0.801  12.124  19.573  0.00  0.00    +0.000 A 
ATOM      6  C   UNL     1       0.009  10.974  19.459  0.00  0.00    +0.000 A 
ATOM      7  C   UNL     1       0.681  10.640  18.257  0.00  0.00    +0.000 A 
ATOM      8  C   UNL     1       1.499   9.518  18.150  0.00  0.00    +0.000 A 
ATOM      9  C   UNL     1       1.663   8.683  19.239  0.00  0.00    +0.000 A 
ATOM     10  C   UNL     1       1.003   8.974  20.434  0.00  0.00    +0.000 A 
ATOM     11  C   UNL     1       0.166  10.108  20.574  0.00  0.00    +0.000 A 
ATOM     12  C   UNL     1      -2.312  13.581  20.938  0.00  0.00    +0.000 C 
ATOM     13  O   UNL     1      -2.227  14.520  20.160  0.00  0.00    +0.000 OA
ATOM     14  C   UNL     1      -3.176  13.632  22.145  0.00  0.00    +0.000 C 
ATOM     15  C   UNL     1      -4.460  14.024  22.109  0.00  0.00    +0.000 C 
ATOM     16  C   UNL     1      -2.468  13.203  23.381  0.00  0.00    +0.000 C 
ATOM     17  C   UNL     1      -1.995  11.767  23.205  0.00  0.00    +0.000 C 
ENDROOT
BRANCH  15  18
ATOM     18  C   UNL     1      -5.194  14.416  20.895  0.00  0.00    +0.000 A 
ATOM     19  C   UNL     1      -5.250  15.783  20.591  0.00  0.00    +0.000 A 
ATOM     20  C   UNL     1      -5.955  16.227  19.477  0.00  0.00    +0.000 A 
ATOM     21  C   UNL     1      -6.592  15.306  18.648  0.00  0.00    +0.000 A 
ATOM     22  C   UNL     1      -6.509  13.929  18.901  0.00  0.00    +0.000 A 
ATOM     23  C   UNL     1      -7.098  13.009  18.016  0.00  0.00    +0.000 A 
ATOM     24  C   UNL     1      -6.990  11.640  18.231  0.00  0.00    +0.000 A 
ATOM     25  C   UNL     1      -6.338  11.165  19.360  0.00  0.00    +0.000 A 
ATOM     26  C   UNL     1      -5.769  12.065  20.264  0.00  0.00    +0.000 A 
ATOM     27  C   UNL     1      -5.813  13.461  20.044  0.00  0.00    +0.000 A 
ENDBRANCH  15  18
BRANCH   5  28
ATOM     28  N   UNL     1      -1.144  12.871  18.426  0.00  0.00    +0.000 N 
ATOM     29  H   UNL     1      -1.411  12.287  17.618  0.00  0.00    +0.000 HD
ATOM     30  H   UNL     1      -1.810  13.627  18.538  0.00  0.00    +0.000 HD
ENDBRANCH   5  28
TORSDOF 2
ENDMDL
MODEL 3
REMARK VINA RESULT:      -7.1      4.683     10.696
REMARK  Name = 
REMARK  3 active torsions:
REMARK  status: ('A' for Active; 'I' for Inactive)
REMARK    1  A    between atoms: C_1  and  N_2
REMARK    2  A    between atoms: C_5  and  N_6
REMARK    3  A    between atoms: C_16  and  C_17
REMARK                            x       y       z     vdW  Elec       q    Type
REMARK                         _______ _______ _______ _____ _____    ______ ____
ROOT
ATOM      1  C   UNL     1       0.072   8.322  22.327  0.00  0.00    +0.000 C 
ATOM      2  N   UNL     1       0.731   8.502  21.002  0.00  0.00    +0.000 N 
ATOM      3  C   UNL     1       1.383   7.456  20.399  0.00  0.00    +0.000 A 
ATOM      4  C   UNL     1       2.075   7.674  19.189  0.00  0.00    +0.000 A 
ATOM      5  C   UNL     1       2.061   8.934  18.566  0.00  0.00    +0.000 A 
ATOM      6  C   UNL     1       1.366   9.988  19.197  0.00  0.00    +0.000 A 
ATOM      7  C   UNL     1       1.324  11.296  18.654  0.00  0.00    +0.000 A 
ATOM      8  C   UNL     1       0.620  12.331  19.264  0.00  0.00    +0.000 A 
ATOM      9  C   UNL     1      -0.056  12.097  20.447  0.00  0.00    +0.000 A 
ATOM     10  C   UNL     1      -0.022  10.823  21.017  0.00  0.00    +0.000 A 
ATOM     11  C   UNL     1       0.684   9.751  20.420  0.00  0.00    +0.000 A 
ATOM     12  C   UNL     1       2.800   6.542  18.534  0.00  0.00    +0.000 C 
ATOM     13  O   UNL     1       3.114   6.580  17.353  0.00  0.00    +0.000 OA
ATOM     14  C   UNL     1       3.003   5.327  19.364  0.00  0.00    +0.000 C 
ATOM     15  C   UNL     1       4.166   4.657  19.408  0.00  0.00    +0.000 C 
ATOM     16  C   UNL     1       1.788   4.945  20.134  0.00  0.00    +0.000 C 
ATOM     17  C   UNL     1       1.413   6.090  21.063  0.00  0.00    +0.000 C 
ENDROOT
BRANCH  15  18
ATOM     18  C   UNL     1       5.391   5.035  18.688  0.00  0.00    +0.000 A 
ATOM     19  C   UNL     1       6.368   5.741  19.405  0.00  0.00    +0.000 A 
ATOM     20  C   UNL     1       7.536   6.159  18.777  0.00  0.00    +0.000 A 
ATOM     21  C   UNL     1       7.746   5.858  17.434  0.00  0.00    +0.000 A 
ATOM     22  C   UNL     1       6.809   5.110  16.706  0.00  0.00    +0.000 A 
ATOM     23  C   UNL     1       7.069   4.755  15.371  0.00  0.00    +0.000 A 
ATOM     24  C   UNL     1       6.169   3.979  14.649  0.00  0.00    +0.000 A 
ATOM     25  C   UNL     1       4.970   3.588  15.229  0.00  0.00    +0.000 A 
ATOM     26  C   UNL     1       4.684   3.954  16.546  0.00  0.00    +0.000 A 
ATOM     27  C   UNL     1       5.603   4.694  17.325  0.00  0.00    +0.000 A 
ENDBRANCH  15  18
BRANCH   5  28
ATOM     28  N   UNL     1       2.920   9.196  17.478  0.00  0.00    +0.000 N 
ATOM     29  H   UNL     1       3.637   8.468  17.334  0.00  0.00    +0.000 HD
ATOM     30  H   UNL     1       2.494   9.440  16.590  0.00  0.00    +0.000 HD
ENDBRANCH   5  28
TORSDOF 2
ENDMDL
MODEL 4
REMARK VINA RESULT:      -7.1      4.082      6.199
REMARK  Name = 
REMARK  3 active torsions:
REMARK  status: ('A' for Active; 'I' for Inactive)
REMARK    1  A    between atoms: C_1  and  N_2
REMARK    2  A    between atoms: C_5  and  N_6
REMARK    3  A    between atoms: C_16  and  C_17
REMARK                            x       y       z     vdW  Elec       q    Type
REMARK                         _______ _______ _______ _____ _____    ______ ____
ROOT
ATOM      1  C   UNL     1      -4.589  13.091  21.878  0.00  0.00    +0.000 C 
ATOM      2  N   UNL     1      -3.629  12.858  20.762  0.00  0.00    +0.000 N 
ATOM      3  C   UNL     1      -2.327  13.282  20.861  0.00  0.00    +0.000 A 
ATOM      4  C   UNL     1      -1.462  13.131  19.758  0.00  0.00    +0.000 A 
ATOM      5  C   UNL     1      -1.899  12.504  18.578  0.00  0.00    +0.000 A 
ATOM      6  C   UNL     1      -3.237  12.059  18.509  0.00  0.00    +0.000 A 
ATOM      7  C   UNL     1      -3.768  11.443  17.349  0.00  0.00    +0.000 A 
ATOM      8  C   UNL     1      -5.081  10.983  17.288  0.00  0.00    +0.000 A 
ATOM      9  C   UNL     1      -5.913  11.136  18.381  0.00  0.00    +0.000 A 
ATOM     10  C   UNL     1      -5.426  11.753  19.535  0.00  0.00    +0.000 A 
ATOM     11  C   UNL     1      -4.095  12.229  19.627  0.00  0.00    +0.000 A 
ATOM     12  C   UNL     1      -0.047  13.604  19.854  0.00  0.00    +0.000 C 
ATOM     13  O   UNL     1       0.816  13.202  19.087  0.00  0.00    +0.000 OA
ATOM     14  C   UNL     1       0.271  14.487  21.006  0.00  0.00    +0.000 C 
ATOM     15  C   UNL     1       1.019  15.597  20.892  0.00  0.00    +0.000 C 
ATOM     16  C   UNL     1      -0.329  14.011  22.281  0.00  0.00    +0.000 C 
ATOM     17  C   UNL     1      -1.843  13.967  22.128  0.00  0.00    +0.000 C 
ENDROOT
BRANCH  15  18
ATOM     18  C   UNL     1       1.591  16.109  19.637  0.00  0.00    +0.000 A 
ATOM     19  C   UNL     1       2.887  15.692  19.303  0.00  0.00    +0.000 A 
ATOM     20  C   UNL     1       3.502  16.164  18.148  0.00  0.00    +0.000 A 
ATOM     21  C   UNL     1       2.818  17.041  17.309  0.00  0.00    +0.000 A 
ATOM     22  C   UNL     1       1.503  17.435  17.593  0.00  0.00    +0.000 A 
ATOM     23  C   UNL     1       0.803  18.265  16.700  0.00  0.00    +0.000 A 
ATOM     24  C   UNL     1      -0.515  18.631  16.947  0.00  0.00    +0.000 A 
ATOM     25  C   UNL     1      -1.142  18.219  18.115  0.00  0.00    +0.000 A 
ATOM     26  C   UNL     1      -0.453  17.416  19.027  0.00  0.00    +0.000 A 
ATOM     27  C   UNL     1       0.869  16.980  18.777  0.00  0.00    +0.000 A 
ENDBRANCH  15  18
BRANCH   5  28
ATOM     28  N   UNL     1      -1.100  12.545  17.416  0.00  0.00    +0.000 N 
ATOM     29  H   UNL     1      -1.086  11.654  16.894  0.00  0.00    +0.000 HD
ATOM     30  H   UNL     1      -1.241  13.317  16.774  0.00  0.00    +0.000 HD
ENDBRANCH   5  28
TORSDOF 2
ENDMDL
MODEL 5
REMARK VINA RESULT:      -7.0      3.247      6.163
REMARK  Name = 
REMARK  3 active torsions:
REMARK  status: ('A' for Active; 'I' for Inactive)
REMARK    1  A    between atoms: C_1  and  N_2
REMARK    2  A    between atoms: C_5  and  N_6
REMARK    3  A    between atoms: C_16  and  C_17
REMARK                            x       y       z     vdW  Elec       q    Type
REMARK                         _______ _______ _______ _____ _____    ______ ____
ROOT
ATOM      1  C   UNL     1      -5.541  13.001  22.837  0.00  0.00    +0.000 C 
ATOM      2  N   UNL     1      -4.702  12.702  21.642  0.00  0.00    +0.000 N 
ATOM      3  C   UNL     1      -3.334  12.794  21.708  0.00  0.00    +0.000 A 
ATOM      4  C   UNL     1      -2.568  12.594  20.541  0.00  0.00    +0.000 A 
ATOM      5  C   UNL     1      -3.181  12.248  19.324  0.00  0.00    +0.000 A 
ATOM      6  C   UNL     1      -4.588  12.140  19.288  0.00  0.00    +0.000 A 
ATOM      7  C   UNL     1      -5.290  11.824  18.099  0.00  0.00    +0.000 A 
ATOM      8  C   UNL     1      -6.677  11.695  18.066  0.00  0.00    +0.000 A 
ATOM      9  C   UNL     1      -7.410  11.891  19.222  0.00  0.00    +0.000 A 
ATOM     10  C   UNL     1      -6.751  12.218  20.408  0.00  0.00    +0.000 A 
ATOM     11  C   UNL     1      -5.343  12.355  20.472  0.00  0.00    +0.000 A 
ATOM     12  C   UNL     1      -1.078  12.707  20.603  0.00  0.00    +0.000 C 
ATOM     13  O   UNL     1      -0.362  12.221  19.738  0.00  0.00    +0.000 OA
ATOM     14  C   UNL     1      -0.520  13.331  21.830  0.00  0.00    +0.000 C 
ATOM     15  C   UNL     1       0.468  14.241  21.804  0.00  0.00    +0.000 C 
ATOM     16  C   UNL     1      -1.173  12.842  23.074  0.00  0.00    +0.000 C 
ATOM     17  C   UNL     1      -2.657  13.172  23.014  0.00  0.00    +0.000 C 
ENDROOT
BRANCH  15  18
ATOM     18  C   UNL     1       1.103  14.769  20.587  0.00  0.00    +0.000 A 
ATOM     19  C   UNL     1       2.336  14.215  20.212  0.00  0.00    +0.000 A 
ATOM     20  C   UNL     1       3.008  14.690  19.091  0.00  0.00    +0.000 A 
ATOM     21  C   UNL     1       2.444  15.707  18.324  0.00  0.00    +0.000 A 
ATOM     22  C   UNL     1       1.190  16.243  18.647  0.00  0.00    +0.000 A 
ATOM     23  C   UNL     1       0.603  17.220  17.823  0.00  0.00    +0.000 A 
ATOM     24  C   UNL     1      -0.658  17.731  18.107  0.00  0.00    +0.000 A 
ATOM     25  C   UNL     1      -1.335  17.317  19.246  0.00  0.00    +0.000 A 
ATOM     26  C   UNL     1      -0.756  16.367  20.090  0.00  0.00    +0.000 A 
ATOM     27  C   UNL     1       0.500  15.786  19.799  0.00  0.00    +0.000 A 
ENDBRANCH  15  18
BRANCH   5  28
ATOM     28  N   UNL     1      -2.436  12.256  18.127  0.00  0.00    +0.000 N 
ATOM     29  H   UNL     1      -2.441  13.168  17.644  0.00  0.00    +0.000 HD
ATOM     30  H   UNL     1      -1.491  11.889  18.158  0.00  0.00    +0.000 HD
ENDBRANCH   5  28
TORSDOF 2
ENDMDL
MODEL 6
REMARK VINA RESULT:      -6.8      2.908      3.855
REMARK  Name = 
REMARK  3 active torsions:
REMARK  status: ('A' for Active; 'I' for Inactive)
REMARK    1  A    between atoms: C_1  and  N_2
REMARK    2  A    between atoms: C_5  and  N_6
REMARK    3  A    between atoms: C_16  and  C_17
REMARK                            x       y       z     vdW  Elec       q    Type
REMARK                         _______ _______ _______ _____ _____    ______ ____
ROOT
ATOM      1  C   UNL     1      -0.332  10.221  19.609  0.00  0.00    +0.000 C 
ATOM      2  N   UNL     1      -1.549  11.040  19.341  0.00  0.00    +0.000 N 
ATOM      3  C   UNL     1      -1.976  11.974  20.252  0.00  0.00    +0.000 A 
ATOM      4  C   UNL     1      -3.179  12.671  20.018  0.00  0.00    +0.000 A 
ATOM      5  C   UNL     1      -3.918  12.463  18.839  0.00  0.00    +0.000 A 
ATOM      6  C   UNL     1      -3.446  11.511  17.910  0.00  0.00    +0.000 A 
ATOM      7  C   UNL     1      -4.141  11.218  16.711  0.00  0.00    +0.000 A 
ATOM      8  C   UNL     1      -3.665  10.296  15.783  0.00  0.00    +0.000 A 
ATOM      9  C   UNL     1      -2.482   9.625  16.028  0.00  0.00    +0.000 A 
ATOM     10  C   UNL     1      -1.779   9.879  17.207  0.00  0.00    +0.000 A 
ATOM     11  C   UNL     1      -2.237  10.812  18.169  0.00  0.00    +0.000 A 
ATOM     12  C   UNL     1      -3.658  13.680  21.012  0.00  0.00    +0.000 C 
ATOM     13  O   UNL     1      -4.478  14.536  20.712  0.00  0.00    +0.000 OA
ATOM     14  C   UNL     1      -2.991  13.658  22.339  0.00  0.00    +0.000 C 
ATOM     15  C   UNL     1      -3.664  13.755  23.498  0.00  0.00    +0.000 C 
ATOM     16  C   UNL     1      -1.514  13.514  22.240  0.00  0.00    +0.000 C 
ATOM     17  C   UNL     1      -1.192  12.206  21.532  0.00  0.00    +0.000 C 
ENDROOT
BRANCH  15  18
ATOM     18  C   UNL     1      -5.125  13.860  23.624  0.00  0.00    +0.000 A 
ATOM     19  C   UNL     1      -5.839  12.673  23.848  0.00  0.00    +0.000 A 
ATOM     20  C   UNL     1      -7.226  12.694  23.944  0.00  0.00    +0.000 A 
ATOM     21  C   UNL     1      -7.909  13.904  23.838  0.00  0.00    +0.000 A 
ATOM     22  C   UNL     1      -7.217  15.111  23.665  0.00  0.00    +0.000 A 
ATOM     23  C   UNL     1      -7.917  16.330  23.631  0.00  0.00    +0.000 A 
ATOM     24  C   UNL     1      -7.242  17.539  23.501  0.00  0.00    +0.000 A 
ATOM     25  C   UNL     1      -5.863  17.550  23.351  0.00  0.00    +0.000 A 
ATOM     26  C   UNL     1      -5.153  16.347  23.357  0.00  0.00    +0.000 A 
ATOM     27  C   UNL     1      -5.804  15.106  23.543  0.00  0.00    +0.000 A 
ENDBRANCH  15  18
BRANCH   5  28
ATOM     28  N   UNL     1      -5.214  13.004  18.710  0.00  0.00    +0.000 N 
ATOM     29  H   UNL     1      -5.366  13.852  19.280  0.00  0.00    +0.000 HD
ATOM     30  H   UNL     1      -5.572  13.151  17.773  0.00  0.00    +0.000 HD
ENDBRANCH   5  28
TORSDOF 2
ENDMDL
MODEL 7
REMARK VINA RESULT:      -6.8      4.144      6.480
REMARK  Name = 
REMARK  3 active torsions:
REMARK  status: ('A' for Active; 'I' for Inactive)
REMARK    1  A    between atoms: C_1  and  N_2
REMARK    2  A    between atoms: C_5  and  N_6
REMARK    3  A    between atoms: C_16  and  C_17
REMARK                            x       y       z     vdW  Elec       q    Type
REMARK                         _______ _______ _______ _____ _____    ______ ____
ROOT
ATOM      1  C   UNL     1      -4.528  12.930  20.117  0.00  0.00    +0.000 C 
ATOM      2  N   UNL     1      -3.184  12.427  19.716  0.00  0.00    +0.000 N 
ATOM      3  C   UNL     1      -2.068  12.759  20.444  0.00  0.00    +0.000 A 
ATOM      4  C   UNL     1      -0.797  12.346  19.995  0.00  0.00    +0.000 A 
ATOM      5  C   UNL     1      -0.662  11.552  18.842  0.00  0.00    +0.000 A 
ATOM      6  C   UNL     1      -1.826  11.208  18.123  0.00  0.00    +0.000 A 
ATOM      7  C   UNL     1      -1.779  10.435  16.936  0.00  0.00    +0.000 A 
ATOM      8  C   UNL     1      -2.929  10.076  16.238  0.00  0.00    +0.000 A 
ATOM      9  C   UNL     1      -4.166  10.487  16.697  0.00  0.00    +0.000 A 
ATOM     10  C   UNL     1      -4.247  11.261  17.855  0.00  0.00    +0.000 A 
ATOM     11  C   UNL     1      -3.096  11.642  18.586  0.00  0.00    +0.000 A 
ATOM     12  C   UNL     1       0.423  12.717  20.775  0.00  0.00    +0.000 C 
ATOM     13  O   UNL     1       1.480  12.118  20.634  0.00  0.00    +0.000 OA
ATOM     14  C   UNL     1       0.243  13.766  21.812  0.00  0.00    +0.000 C 
ATOM     15  C   UNL     1       1.111  14.775  21.989  0.00  0.00    +0.000 C 
ATOM     16  C   UNL     1      -0.993  13.575  22.616  0.00  0.00    +0.000 C 
ATOM     17  C   UNL     1      -2.198  13.621  21.688  0.00  0.00    +0.000 C 
ENDROOT
BRANCH  15  18
ATOM     18  C   UNL     1       2.318  15.008  21.183  0.00  0.00    +0.000 A 
ATOM     19  C   UNL     1       3.523  14.470  21.658  0.00  0.00    +0.000 A 
ATOM     20  C   UNL     1       4.709  14.680  20.962  0.00  0.00    +0.000 A 
ATOM     21  C   UNL     1       4.697  15.412  19.777  0.00  0.00    +0.000 A 
ATOM     22  C   UNL     1       3.499  15.918  19.254  0.00  0.00    +0.000 A 
ATOM     23  C   UNL     1       3.493  16.595  18.021  0.00  0.00    +0.000 A 
ATOM     24  C   UNL     1       2.308  17.067  17.469  0.00  0.00    +0.000 A 
ATOM     25  C   UNL     1       1.114  16.919  18.161  0.00  0.00    +0.000 A 
ATOM     26  C   UNL     1       1.104  16.273  19.399  0.00  0.00    +0.000 A 
ATOM     27  C   UNL     1       2.284  15.732  19.960  0.00  0.00    +0.000 A 
ENDBRANCH  15  18
BRANCH   5  28
ATOM     28  N   UNL     1       0.615  11.321  18.286  0.00  0.00    +0.000 N 
ATOM     29  H   UNL     1       1.346  11.946  18.660  0.00  0.00    +0.000 HD
ATOM     30  H   UNL     1       0.954  10.366  18.268  0.00  0.00    +0.000 HD
ENDBRANCH   5  28
TORSDOF 2
ENDMDL
MODEL 8
REMARK VINA RESULT:      -6.7      3.417      9.630
REMARK  Name = 
REMARK  3 active torsions:
REMARK  status: ('A' for Active; 'I' for Inactive)
REMARK    1  A    between atoms: C_1  and  N_2
REMARK    2  A    between atoms: C_5  and  N_6
REMARK    3  A    between atoms: C_16  and  C_17
REMARK                            x       y       z     vdW  Elec       q    Type
REMARK                         _______ _______ _______ _____ _____    ______ ____
ROOT
ATOM      1  C   UNL     1      -0.986  12.029  18.343  0.00  0.00    +0.000 C 
ATOM      2  N   UNL     1      -0.488  11.168  19.453  0.00  0.00    +0.000 N 
ATOM      3  C   UNL     1       0.438  10.184  19.212  0.00  0.00    +0.000 A 
ATOM      4  C   UNL     1       0.827   9.324  20.260  0.00  0.00    +0.000 A 
ATOM      5  C   UNL     1       0.320   9.495  21.560  0.00  0.00    +0.000 A 
ATOM      6  C   UNL     1      -0.616  10.527  21.786  0.00  0.00    +0.000 A 
ATOM      7  C   UNL     1      -1.199  10.752  23.058  0.00  0.00    +0.000 A 
ATOM      8  C   UNL     1      -2.106  11.784  23.287  0.00  0.00    +0.000 A 
ATOM      9  C   UNL     1      -2.471  12.619  22.248  0.00  0.00    +0.000 A 
ATOM     10  C   UNL     1      -1.928  12.415  20.979  0.00  0.00    +0.000 A 
ATOM     11  C   UNL     1      -1.003  11.376  20.715  0.00  0.00    +0.000 A 
ATOM     12  C   UNL     1       1.825   8.241  20.001  0.00  0.00    +0.000 C 
ATOM     13  O   UNL     1       2.441   7.706  20.911  0.00  0.00    +0.000 OA
ATOM     14  C   UNL     1       2.112   7.944  18.574  0.00  0.00    +0.000 C 
ATOM     15  C   UNL     1       2.206   6.695  18.091  0.00  0.00    +0.000 C 
ATOM     16  C   UNL     1       2.277   9.173  17.751  0.00  0.00    +0.000 C 
ATOM     17  C   UNL     1       0.991   9.983  17.811  0.00  0.00    +0.000 C 
ENDROOT
BRANCH  15  18
ATOM     18  C   UNL     1       2.010   5.465  18.875  0.00  0.00    +0.000 A 
ATOM     19  C   UNL     1       1.137   5.533  19.970  0.00  0.00    +0.000 A 
ATOM     20  C   UNL     1       0.930   4.417  20.775  0.00  0.00    +0.000 A 
ATOM     21  C   UNL     1       1.578   3.221  20.478  0.00  0.00    +0.000 A 
ATOM     22  C   UNL     1       2.416   3.111  19.359  0.00  0.00    +0.000 A 
ATOM     23  C   UNL     1       3.007   1.878  19.034  0.00  0.00    +0.000 A 
ATOM     24  C   UNL     1       3.808   1.743  17.906  0.00  0.00    +0.000 A 
ATOM     25  C   UNL     1       4.076   2.848  17.110  0.00  0.00    +0.000 A 
ATOM     26  C   UNL     1       3.519   4.087  17.432  0.00  0.00    +0.000 A 
ATOM     27  C   UNL     1       2.655   4.244  18.541  0.00  0.00    +0.000 A 
ENDBRANCH  15  18
BRANCH   5  28
ATOM     28  N   UNL     1       0.550   8.512  22.546  0.00  0.00    +0.000 N 
ATOM     29  H   UNL     1      -0.195   7.799  22.598  0.00  0.00    +0.000 HD
ATOM     30  H   UNL     1       1.458   8.062  22.560  0.00  0.00    +0.000 HD
ENDBRANCH   5  28
TORSDOF 2
ENDMDL
MODEL 9
REMARK VINA RESULT:      -6.6      3.726      5.034
REMARK  Name = 
REMARK  3 active torsions:
REMARK  status: ('A' for Active; 'I' for Inactive)
REMARK    1  A    between atoms: C_1  and  N_2
REMARK    2  A    between atoms: C_5  and  N_6
REMARK    3  A    between atoms: C_16  and  C_17
REMARK                            x       y       z     vdW  Elec       q    Type
REMARK                         _______ _______ _______ _____ _____    ______ ____
ROOT
ATOM      1  C   UNL     1       2.608  14.026  19.460  0.00  0.00    +0.000 C 
ATOM      2  N   UNL     1       1.360  14.840  19.491  0.00  0.00    +0.000 N 
ATOM      3  C   UNL     1       0.307  14.472  20.291  0.00  0.00    +0.000 A 
ATOM      4  C   UNL     1      -0.896  15.206  20.236  0.00  0.00    +0.000 A 
ATOM      5  C   UNL     1      -1.012  16.341  19.414  0.00  0.00    +0.000 A 
ATOM      6  C   UNL     1       0.092  16.710  18.617  0.00  0.00    +0.000 A 
ATOM      7  C   UNL     1       0.052  17.822  17.740  0.00  0.00    +0.000 A 
ATOM      8  C   UNL     1       1.149  18.200  16.969  0.00  0.00    +0.000 A 
ATOM      9  C   UNL     1       2.321  17.470  17.040  0.00  0.00    +0.000 A 
ATOM     10  C   UNL     1       2.389  16.360  17.883  0.00  0.00    +0.000 A 
ATOM     11  C   UNL     1       1.291  15.951  18.679  0.00  0.00    +0.000 A 
ATOM     12  C   UNL     1      -2.053  14.802  21.094  0.00  0.00    +0.000 C 
ATOM     13  O   UNL     1      -2.967  15.575  21.341  0.00  0.00    +0.000 OA
ATOM     14  C   UNL     1      -1.962  13.460  21.723  0.00  0.00    +0.000 C 
ATOM     15  C   UNL     1      -2.993  12.600  21.762  0.00  0.00    +0.000 C 
ATOM     16  C   UNL     1      -0.618  13.180  22.294  0.00  0.00    +0.000 C 
ATOM     17  C   UNL     1       0.416  13.244  21.179  0.00  0.00    +0.000 C 
ENDROOT
BRANCH  15  18
ATOM     18  C   UNL     1      -4.319  12.837  21.172  0.00  0.00    +0.000 A 
ATOM     19  C   UNL     1      -5.286  13.446  21.984  0.00  0.00    +0.000 A 
ATOM     20  C   UNL     1      -6.571  13.670  21.501  0.00  0.00    +0.000 A 
ATOM     21  C   UNL     1      -6.893  13.305  20.196  0.00  0.00    +0.000 A 
ATOM     22  C   UNL     1      -5.931  12.740  19.346  0.00  0.00    +0.000 A 
ATOM     23  C   UNL     1      -6.253  12.442  18.010  0.00  0.00    +0.000 A 
ATOM     24  C   UNL     1      -5.300  11.921  17.143  0.00  0.00    +0.000 A 
ATOM     25  C   UNL     1      -4.023  11.637  17.606  0.00  0.00    +0.000 A 
ATOM     26  C   UNL     1      -3.692  11.903  18.937  0.00  0.00    +0.000 A 
ATOM     27  C   UNL     1      -4.623  12.485  19.829  0.00  0.00    +0.000 A 
ENDBRANCH  15  18
BRANCH   5  28
ATOM     28  N   UNL     1      -2.273  16.941  19.208  0.00  0.00    +0.000 N 
ATOM     29  H   UNL     1      -2.908  16.375  18.622  0.00  0.00    +0.000 HD
ATOM     30  H   UNL     1      -2.771  17.284  20.022  0.00  0.00    +0.000 HD
ENDBRANCH   5  28
TORSDOF 2
ENDMDL
