MODEL 1
REMARK VINA RESULT:      -8.5      0.000      0.000
REMARK  Name = 
REMARK  2 active torsions:
REMARK  status: ('A' for Active; 'I' for Inactive)
REMARK    1  A    between atoms: C_14  and  C_15
REMARK    2  A    between atoms: C_16  and  C_17
REMARK                            x       y       z     vdW  Elec       q    Type
REMARK                         _______ _______ _______ _____ _____    ______ ____
ROOT
ATOM      1  O   UNL     1       5.221   4.599  15.177  0.00  0.00    +0.000 OA
ATOM      2  C   UNL     1       4.866   4.281  16.302  0.00  0.00    +0.000 C 
ATOM      3  C   UNL     1       3.772   3.273  16.550  0.00  0.00    +0.000 C 
ATOM      4  C   UNL     1       3.636   3.169  18.084  0.00  0.00    +0.000 C 
ATOM      5  C   UNL     1       3.511   1.695  18.535  0.00  0.00    +0.000 C 
ATOM      6  C   UNL     1       2.152   1.553  19.216  0.00  0.00    +0.000 C 
ATOM      7  C   UNL     1       1.326   2.709  18.685  0.00  0.00    +0.000 C 
ATOM      8  C   UNL     1       2.338   3.842  18.588  0.00  0.00    +0.000 C 
ATOM      9  C   UNL     1       4.897   3.875  18.614  0.00  0.00    +0.000 C 
ATOM     10  N   UNL     1       5.365   4.681  17.525  0.00  0.00    +0.000 N 
ATOM     11  C   UNL     1       6.271   5.735  17.702  0.00  0.00    +0.000 A 
ATOM     12  N   UNL     1       6.390   6.650  16.727  0.00  0.00    +0.000 NA
ATOM     13  C   UNL     1       7.179   7.722  16.956  0.00  0.00    +0.000 A 
ATOM     14  C   UNL     1       7.891   7.906  18.114  0.00  0.00    +0.000 A 
ATOM     15  C   UNL     1       7.730   6.906  19.046  0.00  0.00    +0.000 A 
ATOM     16  N   UNL     1       6.916   5.832  18.881  0.00  0.00    +0.000 NA
ENDROOT
BRANCH  14  17
ATOM     17  C   UNL     1       8.705   9.055  18.341  0.00  0.00    +0.000 C 
ATOM     18  C   UNL     1       9.409  10.010  18.526  0.00  0.00    +0.000 C 
BRANCH  18  19
ATOM     19  C   UNL     1      10.268  11.143  18.732  0.00  0.00    +0.000 A 
ATOM     20  C   UNL     1      10.584  11.566  20.028  0.00  0.00    +0.000 A 
ATOM     21  C   UNL     1      11.421  12.668  20.221  0.00  0.00    +0.000 A 
ATOM     22  C   UNL     1      11.943  13.352  19.122  0.00  0.00    +0.000 A 
ATOM     23  C   UNL     1      11.628  12.935  17.829  0.00  0.00    +0.000 A 
ATOM     24  C   UNL     1      10.795  11.830  17.634  0.00  0.00    +0.000 A 
ENDBRANCH  18  19
ENDBRANCH  14  17
TORSDOF 2
ENDMDL
MODEL 2
REMARK VINA RESULT:      -8.4      0.235      1.002
REMARK  Name = 
REMARK  2 active torsions:
REMARK  status: ('A' for Active; 'I' for Inactive)
REMARK    1  A    between atoms: C_14  and  C_15
REMARK    2  A    between atoms: C_16  and  C_17
REMARK                            x       y       z     vdW  Elec       q    Type
REMARK                         _______ _______ _______ _____ _____    ______ ____
ROOT
ATOM      1  O   UNL     1       5.000   4.870  15.279  0.00  0.00    +0.000 OA
ATOM      2  C   UNL     1       4.739   4.499  16.413  0.00  0.00    +0.000 C 
ATOM      3  C   UNL     1       3.656   3.491  16.705  0.00  0.00    +0.000 C 
ATOM      4  C   UNL     1       3.652   3.311  18.239  0.00  0.00    +0.000 C 
ATOM      5  C   UNL     1       3.544   1.817  18.624  0.00  0.00    +0.000 C 
ATOM      6  C   UNL     1       2.248   1.656  19.414  0.00  0.00    +0.000 C 
ATOM      7  C   UNL     1       1.397   2.846  19.016  0.00  0.00    +0.000 C 
ATOM      8  C   UNL     1       2.414   3.971  18.888  0.00  0.00    +0.000 C 
ATOM      9  C   UNL     1       4.965   3.974  18.691  0.00  0.00    +0.000 C 
ATOM     10  N   UNL     1       5.349   4.830  17.606  0.00  0.00    +0.000 N 
ATOM     11  C   UNL     1       6.283   5.863  17.755  0.00  0.00    +0.000 A 
ATOM     12  N   UNL     1       6.332   6.826  16.820  0.00  0.00    +0.000 NA
ATOM     13  C   UNL     1       7.154   7.876  17.033  0.00  0.00    +0.000 A 
ATOM     14  C   UNL     1       7.967   7.993  18.132  0.00  0.00    +0.000 A 
ATOM     15  C   UNL     1       7.872   6.947  19.023  0.00  0.00    +0.000 A 
ATOM     16  N   UNL     1       7.030   5.893  18.876  0.00  0.00    +0.000 NA
ENDROOT
BRANCH  14  17
ATOM     17  C   UNL     1       8.815   9.119  18.344  0.00  0.00    +0.000 C 
ATOM     18  C   UNL     1       9.523  10.077  18.501  0.00  0.00    +0.000 C 
BRANCH  18  19
ATOM     19  C   UNL     1      10.356  11.234  18.674  0.00  0.00    +0.000 A 
ATOM     20  C   UNL     1      10.642  12.069  17.588  0.00  0.00    +0.000 A 
ATOM     21  C   UNL     1      11.453  13.194  17.763  0.00  0.00    +0.000 A 
ATOM     22  C   UNL     1      11.982  13.487  19.021  0.00  0.00    +0.000 A 
ATOM     23  C   UNL     1      11.701  12.655  20.105  0.00  0.00    +0.000 A 
ATOM     24  C   UNL     1      10.887  11.533  19.932  0.00  0.00    +0.000 A 
ENDBRANCH  18  19
ENDBRANCH  14  17
TORSDOF 2
ENDMDL
MODEL 3
REMARK VINA RESULT:      -8.2      7.386      8.862
REMARK  Name = 
REMARK  2 active torsions:
REMARK  status: ('A' for Active; 'I' for Inactive)
REMARK    1  A    between atoms: C_14  and  C_15
REMARK    2  A    between atoms: C_16  and  C_17
REMARK                            x       y       z     vdW  Elec       q    Type
REMARK                         _______ _______ _______ _____ _____    ______ ____
ROOT
ATOM      1  O   UNL     1       3.391   7.910  17.457  0.00  0.00    +0.000 OA
ATOM      2  C   UNL     1       3.133   6.898  18.089  0.00  0.00    +0.000 C 
ATOM      3  C   UNL     1       3.531   5.523  17.613  0.00  0.00    +0.000 C 
ATOM      4  C   UNL     1       3.015   4.541  18.687  0.00  0.00    +0.000 C 
ATOM      5  C   UNL     1       4.081   3.471  19.021  0.00  0.00    +0.000 C 
ATOM      6  C   UNL     1       3.480   2.117  18.653  0.00  0.00    +0.000 C 
ATOM      7  C   UNL     1       2.385   2.433  17.653  0.00  0.00    +0.000 C 
ATOM      8  C   UNL     1       1.797   3.733  18.184  0.00  0.00    +0.000 C 
ATOM      9  C   UNL     1       2.656   5.450  19.876  0.00  0.00    +0.000 C 
ATOM     10  N   UNL     1       2.519   6.764  19.318  0.00  0.00    +0.000 N 
ATOM     11  C   UNL     1       1.863   7.803  19.990  0.00  0.00    +0.000 A 
ATOM     12  N   UNL     1       1.469   8.876  19.286  0.00  0.00    +0.000 NA
ATOM     13  C   UNL     1       0.737   9.817  19.920  0.00  0.00    +0.000 A 
ATOM     14  C   UNL     1       0.407   9.753  21.250  0.00  0.00    +0.000 A 
ATOM     15  C   UNL     1       0.877   8.634  21.899  0.00  0.00    +0.000 A 
ATOM     16  N   UNL     1       1.578   7.639  21.297  0.00  0.00    +0.000 NA
ENDROOT
BRANCH  14  17
ATOM     17  C   UNL     1      -0.382  10.751  21.895  0.00  0.00    +0.000 C 
ATOM     18  C   UNL     1      -1.048  11.577  22.457  0.00  0.00    +0.000 C 
BRANCH  18  19
ATOM     19  C   UNL     1      -1.840  12.556  23.150  0.00  0.00    +0.000 A 
ATOM     20  C   UNL     1      -3.158  12.268  23.519  0.00  0.00    +0.000 A 
ATOM     21  C   UNL     1      -3.922  13.224  24.194  0.00  0.00    +0.000 A 
ATOM     22  C   UNL     1      -3.373  14.470  24.500  0.00  0.00    +0.000 A 
ATOM     23  C   UNL     1      -2.059  14.760  24.132  0.00  0.00    +0.000 A 
ATOM     24  C   UNL     1      -1.293  13.804  23.461  0.00  0.00    +0.000 A 
ENDBRANCH  18  19
ENDBRANCH  14  17
TORSDOF 2
ENDMDL
MODEL 4
REMARK VINA RESULT:      -8.0      6.589      8.370
REMARK  Name = 
REMARK  2 active torsions:
REMARK  status: ('A' for Active; 'I' for Inactive)
REMARK    1  A    between atoms: C_14  and  C_15
REMARK    2  A    between atoms: C_16  and  C_17
REMARK                            x       y       z     vdW  Elec       q    Type
REMARK                         _______ _______ _______ _____ _____    ______ ____
ROOT
ATOM      1  O   UNL     1       2.572   4.118  19.894  0.00  0.00    +0.000 OA
ATOM      2  C   UNL     1       3.286   4.692  19.086  0.00  0.00    +0.000 C 
ATOM      3  C   UNL     1       4.405   3.993  18.355  0.00  0.00    +0.000 C 
ATOM      4  C   UNL     1       5.049   5.065  17.449  0.00  0.00    +0.000 C 
ATOM      5  C   UNL     1       5.325   4.506  16.034  0.00  0.00    +0.000 C 
ATOM      6  C   UNL     1       6.835   4.577  15.817  0.00  0.00    +0.000 C 
ATOM      7  C   UNL     1       7.429   4.632  17.211  0.00  0.00    +0.000 C 
ATOM      8  C   UNL     1       6.437   5.497  17.975  0.00  0.00    +0.000 C 
ATOM      9  C   UNL     1       4.036   6.223  17.471  0.00  0.00    +0.000 C 
ATOM     10  N   UNL     1       3.224   5.994  18.631  0.00  0.00    +0.000 N 
ATOM     11  C   UNL     1       2.425   6.993  19.202  0.00  0.00    +0.000 A 
ATOM     12  N   UNL     1       1.980   6.821  20.457  0.00  0.00    +0.000 NA
ATOM     13  C   UNL     1       1.308   7.839  21.036  0.00  0.00    +0.000 A 
ATOM     14  C   UNL     1       1.026   9.021  20.401  0.00  0.00    +0.000 A 
ATOM     15  C   UNL     1       1.496   9.098  19.109  0.00  0.00    +0.000 A 
ATOM     16  N   UNL     1       2.213   8.121  18.497  0.00  0.00    +0.000 NA
ENDROOT
BRANCH  14  17
ATOM     17  C   UNL     1       0.330  10.090  21.039  0.00  0.00    +0.000 C 
ATOM     18  C   UNL     1      -0.250  10.981  21.598  0.00  0.00    +0.000 C 
BRANCH  18  19
ATOM     19  C   UNL     1      -0.930  12.044  22.285  0.00  0.00    +0.000 A 
ATOM     20  C   UNL     1      -2.142  11.802  22.940  0.00  0.00    +0.000 A 
ATOM     21  C   UNL     1      -2.798  12.841  23.607  0.00  0.00    +0.000 A 
ATOM     22  C   UNL     1      -2.246  14.122  23.621  0.00  0.00    +0.000 A 
ATOM     23  C   UNL     1      -1.038  14.367  22.967  0.00  0.00    +0.000 A 
ATOM     24  C   UNL     1      -0.380  13.329  22.303  0.00  0.00    +0.000 A 
ENDBRANCH  18  19
ENDBRANCH  14  17
TORSDOF 2
ENDMDL
MODEL 5
REMARK VINA RESULT:      -8.0      7.310      9.337
REMARK  Name = 
REMARK  2 active torsions:
REMARK  status: ('A' for Active; 'I' for Inactive)
REMARK    1  A    between atoms: C_14  and  C_15
REMARK    2  A    between atoms: C_16  and  C_17
REMARK                            x       y       z     vdW  Elec       q    Type
REMARK                         _______ _______ _______ _____ _____    ______ ____
ROOT
ATOM      1  O   UNL     1      -1.792  11.544  18.286  0.00  0.00    +0.000 OA
ATOM      2  C   UNL     1      -1.480  11.603  19.465  0.00  0.00    +0.000 C 
ATOM      3  C   UNL     1      -2.114  12.583  20.422  0.00  0.00    +0.000 C 
ATOM      4  C   UNL     1      -1.440  12.333  21.788  0.00  0.00    +0.000 C 
ATOM      5  C   UNL     1      -2.483  12.316  22.930  0.00  0.00    +0.000 C 
ATOM      6  C   UNL     1      -2.125  13.461  23.873  0.00  0.00    +0.000 C 
ATOM      7  C   UNL     1      -1.294  14.413  23.037  0.00  0.00    +0.000 C 
ATOM      8  C   UNL     1      -0.470  13.477  22.163  0.00  0.00    +0.000 C 
ATOM      9  C   UNL     1      -0.707  10.993  21.598  0.00  0.00    +0.000 C 
ATOM     10  N   UNL     1      -0.592  10.824  20.178  0.00  0.00    +0.000 N 
ATOM     11  C   UNL     1       0.309   9.921  19.598  0.00  0.00    +0.000 A 
ATOM     12  N   UNL     1       0.612  10.063  18.297  0.00  0.00    +0.000 NA
ATOM     13  C   UNL     1       1.567   9.262  17.778  0.00  0.00    +0.000 A 
ATOM     14  C   UNL     1       2.214   8.289  18.496  0.00  0.00    +0.000 A 
ATOM     15  C   UNL     1       1.820   8.196  19.811  0.00  0.00    +0.000 A 
ATOM     16  N   UNL     1       0.898   9.006  20.392  0.00  0.00    +0.000 NA
ENDROOT
BRANCH  14  17
ATOM     17  C   UNL     1       3.231   7.464  17.930  0.00  0.00    +0.000 C 
ATOM     18  C   UNL     1       4.102   6.789  17.453  0.00  0.00    +0.000 C 
BRANCH  18  19
ATOM     19  C   UNL     1       5.161   5.997  16.890  0.00  0.00    +0.000 A 
ATOM     20  C   UNL     1       6.127   5.415  17.719  0.00  0.00    +0.000 A 
ATOM     21  C   UNL     1       7.153   4.645  17.164  0.00  0.00    +0.000 A 
ATOM     22  C   UNL     1       7.219   4.456  15.783  0.00  0.00    +0.000 A 
ATOM     23  C   UNL     1       6.259   5.036  14.955  0.00  0.00    +0.000 A 
ATOM     24  C   UNL     1       5.230   5.803  15.507  0.00  0.00    +0.000 A 
ENDBRANCH  18  19
ENDBRANCH  14  17
TORSDOF 2
ENDMDL
MODEL 6
REMARK VINA RESULT:      -7.6      7.885     10.152
REMARK  Name = 
REMARK  2 active torsions:
REMARK  status: ('A' for Active; 'I' for Inactive)
REMARK    1  A    between atoms: C_14  and  C_15
REMARK    2  A    between atoms: C_16  and  C_17
REMARK                            x       y       z     vdW  Elec       q    Type
REMARK                         _______ _______ _______ _____ _____    ______ ____
ROOT
ATOM      1  O   UNL     1      -0.406  10.641  23.447  0.00  0.00    +0.000 OA
ATOM      2  C   UNL     1      -0.928  11.299  22.561  0.00  0.00    +0.000 C 
ATOM      3  C   UNL     1      -2.050  12.270  22.830  0.00  0.00    +0.000 C 
ATOM      4  C   UNL     1      -2.418  12.878  21.459  0.00  0.00    +0.000 C 
ATOM      5  C   UNL     1      -2.615  14.409  21.562  0.00  0.00    +0.000 C 
ATOM      6  C   UNL     1      -4.061  14.697  21.169  0.00  0.00    +0.000 C 
ATOM      7  C   UNL     1      -4.793  13.386  21.383  0.00  0.00    +0.000 C 
ATOM      8  C   UNL     1      -3.774  12.345  20.943  0.00  0.00    +0.000 C 
ATOM      9  C   UNL     1      -1.249  12.464  20.547  0.00  0.00    +0.000 C 
ATOM     10  N   UNL     1      -0.618  11.364  21.218  0.00  0.00    +0.000 N 
ATOM     11  C   UNL     1       0.255  10.484  20.565  0.00  0.00    +0.000 A 
ATOM     12  N   UNL     1       0.524   9.302  21.141  0.00  0.00    +0.000 NA
ATOM     13  C   UNL     1       1.273   8.415  20.450  0.00  0.00    +0.000 A 
ATOM     14  C   UNL     1       1.802   8.672  19.211  0.00  0.00    +0.000 A 
ATOM     15  C   UNL     1       1.498   9.918  18.711  0.00  0.00    +0.000 A 
ATOM     16  N   UNL     1       0.714  10.827  19.346  0.00  0.00    +0.000 NA
ENDROOT
BRANCH  14  17
ATOM     17  C   UNL     1       2.576   7.714  18.492  0.00  0.00    +0.000 C 
ATOM     18  C   UNL     1       3.243   6.925  17.880  0.00  0.00    +0.000 C 
BRANCH  18  19
ATOM     19  C   UNL     1       4.059   5.996  17.148  0.00  0.00    +0.000 A 
ATOM     20  C   UNL     1       3.915   4.619  17.346  0.00  0.00    +0.000 A 
ATOM     21  C   UNL     1       4.712   3.721  16.630  0.00  0.00    +0.000 A 
ATOM     22  C   UNL     1       5.654   4.196  15.716  0.00  0.00    +0.000 A 
ATOM     23  C   UNL     1       5.801   5.568  15.518  0.00  0.00    +0.000 A 
ATOM     24  C   UNL     1       5.003   6.467  16.230  0.00  0.00    +0.000 A 
ENDBRANCH  18  19
ENDBRANCH  14  17
TORSDOF 2
ENDMDL
MODEL 7
REMARK VINA RESULT:      -7.4      6.838      8.504
REMARK  Name = 
REMARK  2 active torsions:
REMARK  status: ('A' for Active; 'I' for Inactive)
REMARK    1  A    between atoms: C_14  and  C_15
REMARK    2  A    between atoms: C_16  and  C_17
REMARK                            x       y       z     vdW  Elec       q    Type
REMARK                         _______ _______ _______ _____ _____    ______ ____
ROOT
ATOM      1  O   UNL     1       2.739   4.910  20.465  0.00  0.00    +0.000 OA
ATOM      2  C   UNL     1       3.427   5.264  19.520  0.00  0.00    +0.000 C 
ATOM      3  C   UNL     1       4.604   4.459  19.030  0.00  0.00    +0.000 C 
ATOM      4  C   UNL     1       5.190   5.252  17.842  0.00  0.00    +0.000 C 
ATOM      5  C   UNL     1       5.531   4.314  16.660  0.00  0.00    +0.000 C 
ATOM      6  C   UNL     1       7.035   4.423  16.427  0.00  0.00    +0.000 C 
ATOM      7  C   UNL     1       7.598   4.937  17.738  0.00  0.00    +0.000 C 
ATOM      8  C   UNL     1       6.535   5.920  18.209  0.00  0.00    +0.000 C 
ATOM      9  C   UNL     1       4.100   6.288  17.516  0.00  0.00    +0.000 C 
ATOM     10  N   UNL     1       3.285   6.361  18.694  0.00  0.00    +0.000 N 
ATOM     11  C   UNL     1       2.408   7.426  18.939  0.00  0.00    +0.000 A 
ATOM     12  N   UNL     1       1.952   7.608  20.189  0.00  0.00    +0.000 NA
ATOM     13  C   UNL     1       1.202   8.703  20.437  0.00  0.00    +0.000 A 
ATOM     14  C   UNL     1       0.851   9.616  19.475  0.00  0.00    +0.000 A 
ATOM     15  C   UNL     1       1.338   9.334  18.219  0.00  0.00    +0.000 A 
ATOM     16  N   UNL     1       2.132   8.272  17.928  0.00  0.00    +0.000 NA
ENDROOT
BRANCH  14  17
ATOM     17  C   UNL     1       0.071  10.775  19.764  0.00  0.00    +0.000 C 
ATOM     18  C   UNL     1      -0.603  11.736  20.015  0.00  0.00    +0.000 C 
BRANCH  18  19
ATOM     19  C   UNL     1      -1.422  12.874  20.332  0.00  0.00    +0.000 A 
ATOM     20  C   UNL     1      -2.795  12.720  20.549  0.00  0.00    +0.000 A 
ATOM     21  C   UNL     1      -3.585  13.831  20.858  0.00  0.00    +0.000 A 
ATOM     22  C   UNL     1      -3.006  15.097  20.949  0.00  0.00    +0.000 A 
ATOM     23  C   UNL     1      -1.638  15.254  20.732  0.00  0.00    +0.000 A 
ATOM     24  C   UNL     1      -0.846  14.144  20.427  0.00  0.00    +0.000 A 
ENDBRANCH  18  19
ENDBRANCH  14  17
TORSDOF 2
ENDMDL
