MODEL 1
REMARK VINA RESULT:      -7.7      0.000      0.000
REMARK  Name = 
REMARK  12 active torsions:
REMARK  status: ('A' for Active; 'I' for Inactive)
REMARK    1  A    between atoms: C_1  and  C_2
REMARK    2  A    between atoms: C_2  and  O_3
REMARK    3  A    between atoms: C_2  and  C_16
REMARK    4  A    between atoms: O_3  and  C_4
REMARK    5  A    between atoms: C_4  and  C_6
REMARK    6  A    between atoms: C_11  and  N_12
REMARK    7  A    between atoms: N_12  and  C_13
REMARK    8  A    between atoms: C_13  and  C_14
REMARK    9  A    between atoms: C_14  and  O_15
REMARK   10  A    between atoms: N_18  and  C_19
REMARK   11  A    between atoms: C_19  and  C_20
REMARK   12  A    between atoms: N_22  and  C_23
REMARK                            x       y       z     vdW  Elec       q    Type
REMARK                         _______ _______ _______ _____ _____    ______ ____
ROOT
ATOM      1  C   UNL     1       6.812   5.502  17.506  0.00  0.00    +0.000 C 
ATOM      2  O   UNL     1       7.216   4.655  18.301  0.00  0.00    +0.000 OA
ATOM      3  N   UNL     1       7.222   6.807  17.587  0.00  0.00    +0.000 N 
ATOM      4  H   UNL     1       6.724   7.516  17.058  0.00  0.00    +0.000 HD
ENDROOT
BRANCH   1   6
ATOM      5  C   UNL     1       6.365   3.903  15.622  0.00  0.00    +0.000 C 
ATOM      6  C   UNL     1       5.847   5.148  16.345  0.00  0.00    +0.000 C 
BRANCH   6   7
ATOM      7  O   UNL     1       4.472   4.960  16.746  0.00  0.00    +0.000 OA
BRANCH   7   8
ATOM      8  C   UNL     1       3.951   5.980  17.493  0.00  0.00    +0.000 C 
ATOM      9  O   UNL     1       4.001   7.159  17.166  0.00  0.00    +0.000 OA
BRANCH   8  10
ATOM     10  C   UNL     1       3.293   5.553  18.777  0.00  0.00    +0.000 A 
ATOM     11  C   UNL     1       2.458   6.528  19.374  0.00  0.00    +0.000 A 
ATOM     12  C   UNL     1       1.767   6.276  20.560  0.00  0.00    +0.000 A 
ATOM     13  C   UNL     1       1.861   5.026  21.145  0.00  0.00    +0.000 A 
ATOM     14  C   UNL     1       2.667   4.050  20.562  0.00  0.00    +0.000 A 
ATOM     15  C   UNL     1       3.453   4.298  19.414  0.00  0.00    +0.000 A 
BRANCH  15  16
ATOM     16  N   UNL     1       4.275   3.290  18.880  0.00  0.00    +0.000 N 
ATOM     17  H   UNL     1       5.146   3.245  19.412  0.00  0.00    +0.000 HD
BRANCH  16  18
ATOM     18  C   UNL     1       3.727   1.948  18.627  0.00  0.00    +0.000 C 
BRANCH  18  19
ATOM     19  C   UNL     1       2.488   2.044  17.730  0.00  0.00    +0.000 C 
BRANCH  19  20
ATOM     20  O   UNL     1       1.335   1.570  18.428  0.00  0.00    +0.000 OA
ATOM     21  H   UNL     1       1.585   0.677  18.737  0.00  0.00    +0.000 HD
ENDBRANCH  19  20
ENDBRANCH  18  19
ENDBRANCH  16  18
ENDBRANCH  15  16
ENDBRANCH   8  10
ENDBRANCH   7   8
ENDBRANCH   6   7
ENDBRANCH   1   6
BRANCH   3  22
ATOM     22  C   UNL     1       8.215   7.269  18.558  0.00  0.00    +0.000 C 
BRANCH  22  23
ATOM     23  C   UNL     1       8.374   8.785  18.405  0.00  0.00    +0.000 C 
ATOM     24  O   UNL     1       7.651   9.388  17.610  0.00  0.00    +0.000 OA
ATOM     25  N   UNL     1       9.357   9.380  19.179  0.00  0.00    +0.000 N 
ATOM     26  H   UNL     1      10.069   8.789  19.599  0.00  0.00    +0.000 HD
BRANCH  25  27
ATOM     27  C   UNL     1       9.605  10.785  19.237  0.00  0.00    +0.000 A 
ATOM     28  C   UNL     1      10.071  11.518  18.139  0.00  0.00    +0.000 A 
ATOM     29  C   UNL     1      10.352  12.883  18.251  0.00  0.00    +0.000 A 
ATOM     30  C   UNL     1      10.151  13.530  19.465  0.00  0.00    +0.000 A 
ATOM     31  F   UNL     1      10.445  14.833  19.568  0.00  0.00    +0.000 F 
ATOM     32  C   UNL     1       9.651  12.832  20.555  0.00  0.00    +0.000 A 
ATOM     33  F   UNL     1       9.449  13.466  21.718  0.00  0.00    +0.000 F 
ATOM     34  C   UNL     1       9.369  11.468  20.438  0.00  0.00    +0.000 A 
ATOM     35  F   UNL     1       8.891  10.801  21.500  0.00  0.00    +0.000 F 
ENDBRANCH  25  27
ENDBRANCH  22  23
ENDBRANCH   3  22
TORSDOF 11
ENDMDL
MODEL 2
REMARK VINA RESULT:      -7.5      1.375      2.500
REMARK  Name = 
REMARK  12 active torsions:
REMARK  status: ('A' for Active; 'I' for Inactive)
REMARK    1  A    between atoms: C_1  and  C_2
REMARK    2  A    between atoms: C_2  and  O_3
REMARK    3  A    between atoms: C_2  and  C_16
REMARK    4  A    between atoms: O_3  and  C_4
REMARK    5  A    between atoms: C_4  and  C_6
REMARK    6  A    between atoms: C_11  and  N_12
REMARK    7  A    between atoms: N_12  and  C_13
REMARK    8  A    between atoms: C_13  and  C_14
REMARK    9  A    between atoms: C_14  and  O_15
REMARK   10  A    between atoms: N_18  and  C_19
REMARK   11  A    between atoms: C_19  and  C_20
REMARK   12  A    between atoms: N_22  and  C_23
REMARK                            x       y       z     vdW  Elec       q    Type
REMARK                         _______ _______ _______ _____ _____    ______ ____
ROOT
ATOM      1  C   UNL     1       7.059   5.590  16.913  0.00  0.00    +0.000 C 
ATOM      2  O   UNL     1       7.835   4.713  17.290  0.00  0.00    +0.000 OA
ATOM      3  N   UNL     1       7.074   6.842  17.470  0.00  0.00    +0.000 N 
ATOM      4  H   UNL     1       6.301   7.474  17.290  0.00  0.00    +0.000 HD
ENDROOT
BRANCH   1   6
ATOM      5  C   UNL     1       6.780   4.786  14.551  0.00  0.00    +0.000 C 
ATOM      6  C   UNL     1       6.043   5.353  15.765  0.00  0.00    +0.000 C 
BRANCH   6   7
ATOM      7  O   UNL     1       4.928   4.505  16.118  0.00  0.00    +0.000 OA
BRANCH   7   8
ATOM      8  C   UNL     1       4.099   5.022  17.074  0.00  0.00    +0.000 C 
ATOM      9  O   UNL     1       3.950   6.221  17.272  0.00  0.00    +0.000 OA
BRANCH   8  10
ATOM     10  C   UNL     1       3.359   3.998  17.891  0.00  0.00    +0.000 A 
ATOM     11  C   UNL     1       3.807   2.665  17.727  0.00  0.00    +0.000 A 
ATOM     12  C   UNL     1       3.230   1.605  18.428  0.00  0.00    +0.000 A 
ATOM     13  C   UNL     1       2.225   1.866  19.342  0.00  0.00    +0.000 A 
ATOM     14  C   UNL     1       1.782   3.175  19.526  0.00  0.00    +0.000 A 
ATOM     15  C   UNL     1       2.279   4.259  18.769  0.00  0.00    +0.000 A 
BRANCH  15  16
ATOM     16  N   UNL     1       1.778   5.559  18.969  0.00  0.00    +0.000 N 
ATOM     17  H   UNL     1       0.839   5.625  18.572  0.00  0.00    +0.000 HD
BRANCH  16  18
ATOM     18  C   UNL     1       1.845   6.177  20.302  0.00  0.00    +0.000 C 
BRANCH  18  19
ATOM     19  C   UNL     1       2.007   7.696  20.172  0.00  0.00    +0.000 C 
BRANCH  19  20
ATOM     20  O   UNL     1       2.054   8.071  18.795  0.00  0.00    +0.000 OA
ATOM     21  H   UNL     1       1.473   7.428  18.344  0.00  0.00    +0.000 HD
ENDBRANCH  19  20
ENDBRANCH  18  19
ENDBRANCH  16  18
ENDBRANCH  15  16
ENDBRANCH   8  10
ENDBRANCH   7   8
ENDBRANCH   6   7
ENDBRANCH   1   6
BRANCH   3  22
ATOM     22  C   UNL     1       8.049   7.248  18.483  0.00  0.00    +0.000 C 
BRANCH  22  23
ATOM     23  C   UNL     1       8.308   8.751  18.332  0.00  0.00    +0.000 C 
ATOM     24  O   UNL     1       7.637   9.398  17.527  0.00  0.00    +0.000 OA
ATOM     25  N   UNL     1       9.316   9.283  19.121  0.00  0.00    +0.000 N 
ATOM     26  H   UNL     1       9.982   8.647  19.552  0.00  0.00    +0.000 HD
BRANCH  25  27
ATOM     27  C   UNL     1       9.652  10.669  19.182  0.00  0.00    +0.000 A 
ATOM     28  C   UNL     1      10.041  11.404  18.055  0.00  0.00    +0.000 A 
ATOM     29  C   UNL     1      10.415  12.747  18.166  0.00  0.00    +0.000 A 
ATOM     30  C   UNL     1      10.385  13.370  19.408  0.00  0.00    +0.000 A 
ATOM     31  F   UNL     1      10.766  14.650  19.507  0.00  0.00    +0.000 F 
ATOM     32  C   UNL     1       9.963  12.671  20.531  0.00  0.00    +0.000 A 
ATOM     33  F   UNL     1       9.927  13.283  21.723  0.00  0.00    +0.000 F 
ATOM     34  C   UNL     1       9.589  11.329  20.416  0.00  0.00    +0.000 A 
ATOM     35  F   UNL     1       9.189  10.662  21.509  0.00  0.00    +0.000 F 
ENDBRANCH  25  27
ENDBRANCH  22  23
ENDBRANCH   3  22
TORSDOF 11
ENDMDL
MODEL 3
REMARK VINA RESULT:      -7.5      5.378      8.297
REMARK  Name = 
REMARK  12 active torsions:
REMARK  status: ('A' for Active; 'I' for Inactive)
REMARK    1  A    between atoms: C_1  and  C_2
REMARK    2  A    between atoms: C_2  and  O_3
REMARK    3  A    between atoms: C_2  and  C_16
REMARK    4  A    between atoms: O_3  and  C_4
REMARK    5  A    between atoms: C_4  and  C_6
REMARK    6  A    between atoms: C_11  and  N_12
REMARK    7  A    between atoms: N_12  and  C_13
REMARK    8  A    between atoms: C_13  and  C_14
REMARK    9  A    between atoms: C_14  and  O_15
REMARK   10  A    between atoms: N_18  and  C_19
REMARK   11  A    between atoms: C_19  and  C_20
REMARK   12  A    between atoms: N_22  and  C_23
REMARK                            x       y       z     vdW  Elec       q    Type
REMARK                         _______ _______ _______ _____ _____    ______ ____
ROOT
ATOM      1  C   UNL     1       2.372   6.627  19.909  0.00  0.00    +0.000 C 
ATOM      2  O   UNL     1       2.718   7.462  19.075  0.00  0.00    +0.000 OA
ATOM      3  N   UNL     1       1.872   7.005  21.128  0.00  0.00    +0.000 N 
ATOM      4  H   UNL     1       1.788   6.312  21.866  0.00  0.00    +0.000 HD
ENDROOT
BRANCH   1   6
ATOM      5  C   UNL     1       1.079   4.475  19.928  0.00  0.00    +0.000 C 
ATOM      6  C   UNL     1       2.441   5.104  19.629  0.00  0.00    +0.000 C 
BRANCH   6   7
ATOM      7  O   UNL     1       2.871   4.760  18.294  0.00  0.00    +0.000 OA
BRANCH   7   8
ATOM      8  C   UNL     1       3.845   3.802  18.237  0.00  0.00    +0.000 C 
ATOM      9  O   UNL     1       3.619   2.599  18.222  0.00  0.00    +0.000 OA
BRANCH   8  10
ATOM     10  C   UNL     1       5.253   4.332  18.189  0.00  0.00    +0.000 A 
ATOM     11  C   UNL     1       5.666   5.036  19.346  0.00  0.00    +0.000 A 
ATOM     12  C   UNL     1       6.948   5.574  19.459  0.00  0.00    +0.000 A 
ATOM     13  C   UNL     1       7.857   5.378  18.436  0.00  0.00    +0.000 A 
ATOM     14  C   UNL     1       7.471   4.675  17.295  0.00  0.00    +0.000 A 
ATOM     15  C   UNL     1       6.155   4.195  17.106  0.00  0.00    +0.000 A 
BRANCH  15  16
ATOM     16  N   UNL     1       5.805   3.518  15.924  0.00  0.00    +0.000 N 
ATOM     17  H   UNL     1       5.085   2.824  16.132  0.00  0.00    +0.000 HD
BRANCH  16  18
ATOM     18  C   UNL     1       5.485   4.279  14.706  0.00  0.00    +0.000 C 
BRANCH  18  19
ATOM     19  C   UNL     1       6.646   4.192  13.709  0.00  0.00    +0.000 C 
BRANCH  19  20
ATOM     20  O   UNL     1       7.441   5.377  13.771  0.00  0.00    +0.000 OA
ATOM     21  H   UNL     1       7.492   5.688  12.847  0.00  0.00    +0.000 HD
ENDBRANCH  19  20
ENDBRANCH  18  19
ENDBRANCH  16  18
ENDBRANCH  15  16
ENDBRANCH   8  10
ENDBRANCH   7   8
ENDBRANCH   6   7
ENDBRANCH   1   6
BRANCH   3  22
ATOM     22  C   UNL     1       1.642   8.404  21.494  0.00  0.00    +0.000 C 
BRANCH  22  23
ATOM     23  C   UNL     1       0.330   8.864  20.849  0.00  0.00    +0.000 C 
ATOM     24  O   UNL     1      -0.733   8.381  21.241  0.00  0.00    +0.000 OA
ATOM     25  N   UNL     1       0.441   9.802  19.836  0.00  0.00    +0.000 N 
ATOM     26  H   UNL     1       1.350   9.947  19.404  0.00  0.00    +0.000 HD
BRANCH  25  27
ATOM     27  C   UNL     1      -0.666  10.412  19.170  0.00  0.00    +0.000 A 
ATOM     28  C   UNL     1      -1.477  11.378  19.778  0.00  0.00    +0.000 A 
ATOM     29  C   UNL     1      -2.583  11.912  19.111  0.00  0.00    +0.000 A 
ATOM     30  C   UNL     1      -2.877  11.493  17.819  0.00  0.00    +0.000 A 
ATOM     31  F   UNL     1      -3.952  11.995  17.197  0.00  0.00    +0.000 F 
ATOM     32  C   UNL     1      -2.062  10.567  17.182  0.00  0.00    +0.000 A 
ATOM     33  F   UNL     1      -2.345  10.178  15.931  0.00  0.00    +0.000 F 
ATOM     34  C   UNL     1      -0.955  10.037  17.851  0.00  0.00    +0.000 A 
ATOM     35  F   UNL     1      -0.179   9.138  17.228  0.00  0.00    +0.000 F 
ENDBRANCH  25  27
ENDBRANCH  22  23
ENDBRANCH   3  22
TORSDOF 11
ENDMDL
MODEL 4
REMARK VINA RESULT:      -7.5      7.189     10.333
REMARK  Name = 
REMARK  12 active torsions:
REMARK  status: ('A' for Active; 'I' for Inactive)
REMARK    1  A    between atoms: C_1  and  C_2
REMARK    2  A    between atoms: C_2  and  O_3
REMARK    3  A    between atoms: C_2  and  C_16
REMARK    4  A    between atoms: O_3  and  C_4
REMARK    5  A    between atoms: C_4  and  C_6
REMARK    6  A    between atoms: C_11  and  N_12
REMARK    7  A    between atoms: N_12  and  C_13
REMARK    8  A    between atoms: C_13  and  C_14
REMARK    9  A    between atoms: C_14  and  O_15
REMARK   10  A    between atoms: N_18  and  C_19
REMARK   11  A    between atoms: C_19  and  C_20
REMARK   12  A    between atoms: N_22  and  C_23
REMARK                            x       y       z     vdW  Elec       q    Type
REMARK                         _______ _______ _______ _____ _____    ______ ____
ROOT
ATOM      1  C   UNL     1      -0.062  10.996  21.621  0.00  0.00    +0.000 C 
ATOM      2  O   UNL     1       0.980  11.648  21.638  0.00  0.00    +0.000 OA
ATOM      3  N   UNL     1      -0.048   9.629  21.723  0.00  0.00    +0.000 N 
ATOM      4  H   UNL     1      -0.890   9.107  21.503  0.00  0.00    +0.000 HD
ENDROOT
BRANCH   1   6
ATOM      5  C   UNL     1      -1.988  11.936  22.929  0.00  0.00    +0.000 C 
ATOM      6  C   UNL     1      -1.455  11.670  21.520  0.00  0.00    +0.000 C 
BRANCH   6   7
ATOM      7  O   UNL     1      -1.477  12.883  20.737  0.00  0.00    +0.000 OA
BRANCH   7   8
ATOM      8  C   UNL     1      -1.099  12.728  19.432  0.00  0.00    +0.000 C 
ATOM      9  O   UNL     1      -0.164  13.326  18.917  0.00  0.00    +0.000 OA
BRANCH   8  10
ATOM     10  C   UNL     1      -1.926  11.746  18.646  0.00  0.00    +0.000 A 
ATOM     11  C   UNL     1      -1.184  10.758  17.955  0.00  0.00    +0.000 A 
ATOM     12  C   UNL     1      -1.809   9.768  17.196  0.00  0.00    +0.000 A 
ATOM     13  C   UNL     1      -3.190   9.721  17.151  0.00  0.00    +0.000 A 
ATOM     14  C   UNL     1      -3.936  10.679  17.837  0.00  0.00    +0.000 A 
ATOM     15  C   UNL     1      -3.338  11.748  18.540  0.00  0.00    +0.000 A 
BRANCH  15  16
ATOM     16  N   UNL     1      -4.134  12.709  19.191  0.00  0.00    +0.000 N 
ATOM     17  H   UNL     1      -4.433  13.415  18.516  0.00  0.00    +0.000 HD
BRANCH  16  18
ATOM     18  C   UNL     1      -5.245  12.282  20.055  0.00  0.00    +0.000 C 
BRANCH  18  19
ATOM     19  C   UNL     1      -5.276  13.128  21.333  0.00  0.00    +0.000 C 
BRANCH  19  20
ATOM     20  O   UNL     1      -5.502  12.296  22.471  0.00  0.00    +0.000 OA
ATOM     21  H   UNL     1      -4.631  11.898  22.663  0.00  0.00    +0.000 HD
ENDBRANCH  19  20
ENDBRANCH  18  19
ENDBRANCH  16  18
ENDBRANCH  15  16
ENDBRANCH   8  10
ENDBRANCH   7   8
ENDBRANCH   6   7
ENDBRANCH   1   6
BRANCH   3  22
ATOM     22  C   UNL     1       1.180   8.861  21.937  0.00  0.00    +0.000 C 
BRANCH  22  23
ATOM     23  C   UNL     1       1.515   8.112  20.643  0.00  0.00    +0.000 C 
ATOM     24  O   UNL     1       1.454   8.712  19.568  0.00  0.00    +0.000 OA
ATOM     25  N   UNL     1       1.854   6.776  20.778  0.00  0.00    +0.000 N 
ATOM     26  H   UNL     1       1.627   6.302  21.649  0.00  0.00    +0.000 HD
BRANCH  25  27
ATOM     27  C   UNL     1       2.274   5.932  19.705  0.00  0.00    +0.000 A 
ATOM     28  C   UNL     1       3.349   6.253  18.866  0.00  0.00    +0.000 A 
ATOM     29  C   UNL     1       3.695   5.427  17.793  0.00  0.00    +0.000 A 
ATOM     30  C   UNL     1       2.976   4.260  17.561  0.00  0.00    +0.000 A 
ATOM     31  F   UNL     1       3.302   3.487  16.517  0.00  0.00    +0.000 F 
ATOM     32  C   UNL     1       1.934   3.902  18.405  0.00  0.00    +0.000 A 
ATOM     33  F   UNL     1       1.253   2.770  18.182  0.00  0.00    +0.000 F 
ATOM     34  C   UNL     1       1.591   4.730  19.478  0.00  0.00    +0.000 A 
ATOM     35  F   UNL     1       0.578   4.378  20.283  0.00  0.00    +0.000 F 
ENDBRANCH  25  27
ENDBRANCH  22  23
ENDBRANCH   3  22
TORSDOF 11
ENDMDL
MODEL 5
REMARK VINA RESULT:      -7.5      1.278      1.872
REMARK  Name = 
REMARK  12 active torsions:
REMARK  status: ('A' for Active; 'I' for Inactive)
REMARK    1  A    between atoms: C_1  and  C_2
REMARK    2  A    between atoms: C_2  and  O_3
REMARK    3  A    between atoms: C_2  and  C_16
REMARK    4  A    between atoms: O_3  and  C_4
REMARK    5  A    between atoms: C_4  and  C_6
REMARK    6  A    between atoms: C_11  and  N_12
REMARK    7  A    between atoms: N_12  and  C_13
REMARK    8  A    between atoms: C_13  and  C_14
REMARK    9  A    between atoms: C_14  and  O_15
REMARK   10  A    between atoms: N_18  and  C_19
REMARK   11  A    between atoms: C_19  and  C_20
REMARK   12  A    between atoms: N_22  and  C_23
REMARK                            x       y       z     vdW  Elec       q    Type
REMARK                         _______ _______ _______ _____ _____    ______ ____
ROOT
ATOM      1  C   UNL     1       7.071   5.666  16.778  0.00  0.00    +0.000 C 
ATOM      2  O   UNL     1       7.706   4.727  17.254  0.00  0.00    +0.000 OA
ATOM      3  N   UNL     1       7.210   6.939  17.266  0.00  0.00    +0.000 N 
ATOM      4  H   UNL     1       6.534   7.649  17.000  0.00  0.00    +0.000 HD
ENDROOT
BRANCH   1   6
ATOM      5  C   UNL     1       6.426   4.169  14.869  0.00  0.00    +0.000 C 
ATOM      6  C   UNL     1       6.103   5.484  15.580  0.00  0.00    +0.000 C 
BRANCH   6   7
ATOM      7  O   UNL     1       4.702   5.537  15.928  0.00  0.00    +0.000 OA
BRANCH   7   8
ATOM      8  C   UNL     1       4.343   4.731  16.973  0.00  0.00    +0.000 C 
ATOM      9  O   UNL     1       4.608   3.537  17.034  0.00  0.00    +0.000 OA
BRANCH   8  10
ATOM     10  C   UNL     1       3.583   5.420  18.073  0.00  0.00    +0.000 A 
ATOM     11  C   UNL     1       3.285   6.783  17.831  0.00  0.00    +0.000 A 
ATOM     12  C   UNL     1       2.572   7.552  18.751  0.00  0.00    +0.000 A 
ATOM     13  C   UNL     1       2.103   6.960  19.910  0.00  0.00    +0.000 A 
ATOM     14  C   UNL     1       2.376   5.615  20.157  0.00  0.00    +0.000 A 
ATOM     15  C   UNL     1       3.172   4.829  19.293  0.00  0.00    +0.000 A 
BRANCH  15  16
ATOM     16  N   UNL     1       3.445   3.484  19.601  0.00  0.00    +0.000 N 
ATOM     17  H   UNL     1       3.964   3.436  20.479  0.00  0.00    +0.000 HD
BRANCH  16  18
ATOM     18  C   UNL     1       2.367   2.484  19.555  0.00  0.00    +0.000 C 
BRANCH  18  19
ATOM     19  C   UNL     1       1.278   2.927  18.572  0.00  0.00    +0.000 C 
BRANCH  19  20
ATOM     20  O   UNL     1       0.352   1.863  18.349  0.00  0.00    +0.000 OA
ATOM     21  H   UNL     1      -0.283   2.221  17.698  0.00  0.00    +0.000 HD
ENDBRANCH  19  20
ENDBRANCH  18  19
ENDBRANCH  16  18
ENDBRANCH  15  16
ENDBRANCH   8  10
ENDBRANCH   7   8
ENDBRANCH   6   7
ENDBRANCH   1   6
BRANCH   3  22
ATOM     22  C   UNL     1       8.166   7.286  18.318  0.00  0.00    +0.000 C 
BRANCH  22  23
ATOM     23  C   UNL     1       8.306   8.812  18.363  0.00  0.00    +0.000 C 
ATOM     24  O   UNL     1       7.588   9.503  17.638  0.00  0.00    +0.000 OA
ATOM     25  N   UNL     1       9.265   9.316  19.226  0.00  0.00    +0.000 N 
ATOM     26  H   UNL     1       9.978   8.684  19.582  0.00  0.00    +0.000 HD
BRANCH  25  27
ATOM     27  C   UNL     1       9.491  10.705  19.468  0.00  0.00    +0.000 A 
ATOM     28  C   UNL     1       9.146  11.329  20.673  0.00  0.00    +0.000 A 
ATOM     29  C   UNL     1       9.333  12.703  20.851  0.00  0.00    +0.000 A 
ATOM     30  C   UNL     1       9.887  13.461  19.826  0.00  0.00    +0.000 A 
ATOM     31  F   UNL     1      10.043  14.780  19.999  0.00  0.00    +0.000 F 
ATOM     32  C   UNL     1      10.275  12.855  18.640  0.00  0.00    +0.000 A 
ATOM     33  F   UNL     1      10.819  13.591  17.661  0.00  0.00    +0.000 F 
ATOM     34  C   UNL     1      10.087  11.481  18.465  0.00  0.00    +0.000 A 
ATOM     35  F   UNL     1      10.459  10.907  17.312  0.00  0.00    +0.000 F 
ENDBRANCH  25  27
ENDBRANCH  22  23
ENDBRANCH   3  22
TORSDOF 11
ENDMDL
MODEL 6
REMARK VINA RESULT:      -7.5      5.623      8.277
REMARK  Name = 
REMARK  12 active torsions:
REMARK  status: ('A' for Active; 'I' for Inactive)
REMARK    1  A    between atoms: C_1  and  C_2
REMARK    2  A    between atoms: C_2  and  O_3
REMARK    3  A    between atoms: C_2  and  C_16
REMARK    4  A    between atoms: O_3  and  C_4
REMARK    5  A    between atoms: C_4  and  C_6
REMARK    6  A    between atoms: C_11  and  N_12
REMARK    7  A    between atoms: N_12  and  C_13
REMARK    8  A    between atoms: C_13  and  C_14
REMARK    9  A    between atoms: C_14  and  O_15
REMARK   10  A    between atoms: N_18  and  C_19
REMARK   11  A    between atoms: C_19  and  C_20
REMARK   12  A    between atoms: N_22  and  C_23
REMARK                            x       y       z     vdW  Elec       q    Type
REMARK                         _______ _______ _______ _____ _____    ______ ____
ROOT
ATOM      1  C   UNL     1       2.127   7.214  19.779  0.00  0.00    +0.000 C 
ATOM      2  O   UNL     1       2.180   8.071  18.899  0.00  0.00    +0.000 OA
ATOM      3  N   UNL     1       1.873   7.549  21.084  0.00  0.00    +0.000 N 
ATOM      4  H   UNL     1       2.035   6.861  21.813  0.00  0.00    +0.000 HD
ENDROOT
BRANCH   1   6
ATOM      5  C   UNL     1       1.502   4.887  20.485  0.00  0.00    +0.000 C 
ATOM      6  C   UNL     1       2.306   5.704  19.473  0.00  0.00    +0.000 C 
BRANCH   6   7
ATOM      7  O   UNL     1       1.953   5.322  18.125  0.00  0.00    +0.000 OA
BRANCH   7   8
ATOM      8  C   UNL     1       2.849   4.488  17.515  0.00  0.00    +0.000 C 
ATOM      9  O   UNL     1       2.541   3.429  16.984  0.00  0.00    +0.000 OA
BRANCH   8  10
ATOM     10  C   UNL     1       4.275   4.965  17.537  0.00  0.00    +0.000 A 
ATOM     11  C   UNL     1       4.497   6.217  16.914  0.00  0.00    +0.000 A 
ATOM     12  C   UNL     1       5.764   6.799  16.867  0.00  0.00    +0.000 A 
ATOM     13  C   UNL     1       6.825   6.162  17.484  0.00  0.00    +0.000 A 
ATOM     14  C   UNL     1       6.621   4.935  18.114  0.00  0.00    +0.000 A 
ATOM     15  C   UNL     1       5.373   4.272  18.103  0.00  0.00    +0.000 A 
BRANCH  15  16
ATOM     16  N   UNL     1       5.225   3.020  18.726  0.00  0.00    +0.000 N 
ATOM     17  H   UNL     1       6.100   2.498  18.651  0.00  0.00    +0.000 HD
BRANCH  16  18
ATOM     18  C   UNL     1       4.659   2.934  20.081  0.00  0.00    +0.000 C 
BRANCH  18  19
ATOM     19  C   UNL     1       4.691   1.483  20.576  0.00  0.00    +0.000 C 
BRANCH  19  20
ATOM     20  O   UNL     1       5.630   1.345  21.643  0.00  0.00    +0.000 OA
ATOM     21  H   UNL     1       5.697   0.382  21.788  0.00  0.00    +0.000 HD
ENDBRANCH  19  20
ENDBRANCH  18  19
ENDBRANCH  16  18
ENDBRANCH  15  16
ENDBRANCH   8  10
ENDBRANCH   7   8
ENDBRANCH   6   7
ENDBRANCH   1   6
BRANCH   3  22
ATOM     22  C   UNL     1       1.572   8.917  21.508  0.00  0.00    +0.000 C 
BRANCH  22  23
ATOM     23  C   UNL     1       0.185   9.296  20.978  0.00  0.00    +0.000 C 
ATOM     24  O   UNL     1      -0.809   8.735  21.441  0.00  0.00    +0.000 OA
ATOM     25  N   UNL     1       0.151  10.255  19.979  0.00  0.00    +0.000 N 
ATOM     26  H   UNL     1       1.011  10.468  19.480  0.00  0.00    +0.000 HD
BRANCH  25  27
ATOM     27  C   UNL     1      -1.043  10.796  19.414  0.00  0.00    +0.000 A 
ATOM     28  C   UNL     1      -1.821  11.760  20.068  0.00  0.00    +0.000 A 
ATOM     29  C   UNL     1      -3.013  12.226  19.506  0.00  0.00    +0.000 A 
ATOM     30  C   UNL     1      -3.427  11.742  18.270  0.00  0.00    +0.000 A 
ATOM     31  F   UNL     1      -4.581  12.179  17.750  0.00  0.00    +0.000 F 
ATOM     32  C   UNL     1      -2.650  10.818  17.585  0.00  0.00    +0.000 A 
ATOM     33  F   UNL     1      -3.051  10.365  16.389  0.00  0.00    +0.000 F 
ATOM     34  C   UNL     1      -1.458  10.355  18.150  0.00  0.00    +0.000 A 
ATOM     35  F   UNL     1      -0.719   9.457  17.482  0.00  0.00    +0.000 F 
ENDBRANCH  25  27
ENDBRANCH  22  23
ENDBRANCH   3  22
TORSDOF 11
ENDMDL
MODEL 7
REMARK VINA RESULT:      -7.5      4.903      7.789
REMARK  Name = 
REMARK  12 active torsions:
REMARK  status: ('A' for Active; 'I' for Inactive)
REMARK    1  A    between atoms: C_1  and  C_2
REMARK    2  A    between atoms: C_2  and  O_3
REMARK    3  A    between atoms: C_2  and  C_16
REMARK    4  A    between atoms: O_3  and  C_4
REMARK    5  A    between atoms: C_4  and  C_6
REMARK    6  A    between atoms: C_11  and  N_12
REMARK    7  A    between atoms: N_12  and  C_13
REMARK    8  A    between atoms: C_13  and  C_14
REMARK    9  A    between atoms: C_14  and  O_15
REMARK   10  A    between atoms: N_18  and  C_19
REMARK   11  A    between atoms: C_19  and  C_20
REMARK   12  A    between atoms: N_22  and  C_23
REMARK                            x       y       z     vdW  Elec       q    Type
REMARK                         _______ _______ _______ _____ _____    ______ ____
ROOT
ATOM      1  C   UNL     1       3.218   7.115  18.026  0.00  0.00    +0.000 C 
ATOM      2  O   UNL     1       4.203   7.489  17.392  0.00  0.00    +0.000 OA
ATOM      3  N   UNL     1       2.121   7.922  18.179  0.00  0.00    +0.000 N 
ATOM      4  H   UNL     1       1.416   7.676  18.867  0.00  0.00    +0.000 HD
ENDROOT
BRANCH   1   6
ATOM      5  C   UNL     1       2.135   5.729  19.818  0.00  0.00    +0.000 C 
ATOM      6  C   UNL     1       3.133   5.702  18.660  0.00  0.00    +0.000 C 
BRANCH   6   7
ATOM      7  O   UNL     1       2.796   4.648  17.731  0.00  0.00    +0.000 OA
BRANCH   7   8
ATOM      8  C   UNL     1       3.747   3.674  17.603  0.00  0.00    +0.000 C 
ATOM      9  O   UNL     1       3.669   2.573  18.132  0.00  0.00    +0.000 OA
BRANCH   8  10
ATOM     10  C   UNL     1       4.926   4.048  16.747  0.00  0.00    +0.000 A 
ATOM     11  C   UNL     1       4.648   4.164  15.364  0.00  0.00    +0.000 A 
ATOM     12  C   UNL     1       5.636   4.519  14.444  0.00  0.00    +0.000 A 
ATOM     13  C   UNL     1       6.909   4.811  14.897  0.00  0.00    +0.000 A 
ATOM     14  C   UNL     1       7.196   4.715  16.258  0.00  0.00    +0.000 A 
ATOM     15  C   UNL     1       6.247   4.271  17.206  0.00  0.00    +0.000 A 
BRANCH  15  16
ATOM     16  N   UNL     1       6.593   4.161  18.565  0.00  0.00    +0.000 N 
ATOM     17  H   UNL     1       7.454   3.618  18.653  0.00  0.00    +0.000 HD
BRANCH  16  18
ATOM     18  C   UNL     1       6.622   5.359  19.418  0.00  0.00    +0.000 C 
BRANCH  18  19
ATOM     19  C   UNL     1       8.069   5.720  19.773  0.00  0.00    +0.000 C 
BRANCH  19  20
ATOM     20  O   UNL     1       8.408   5.194  21.057  0.00  0.00    +0.000 OA
ATOM     21  H   UNL     1       8.051   4.285  21.053  0.00  0.00    +0.000 HD
ENDBRANCH  19  20
ENDBRANCH  18  19
ENDBRANCH  16  18
ENDBRANCH  15  16
ENDBRANCH   8  10
ENDBRANCH   7   8
ENDBRANCH   6   7
ENDBRANCH   1   6
BRANCH   3  22
ATOM     22  C   UNL     1       2.007   9.236  17.545  0.00  0.00    +0.000 C 
BRANCH  22  23
ATOM     23  C   UNL     1       1.371  10.205  18.547  0.00  0.00    +0.000 C 
ATOM     24  O   UNL     1       2.010  11.191  18.918  0.00  0.00    +0.000 OA
ATOM     25  N   UNL     1       0.097   9.885  18.987  0.00  0.00    +0.000 N 
ATOM     26  H   UNL     1      -0.244   8.938  18.839  0.00  0.00    +0.000 HD
BRANCH  25  27
ATOM     27  C   UNL     1      -0.691  10.699  19.855  0.00  0.00    +0.000 A 
ATOM     28  C   UNL     1      -1.672  11.580  19.383  0.00  0.00    +0.000 A 
ATOM     29  C   UNL     1      -2.386  12.400  20.262  0.00  0.00    +0.000 A 
ATOM     30  C   UNL     1      -2.133  12.331  21.627  0.00  0.00    +0.000 A 
ATOM     31  F   UNL     1      -2.807  13.137  22.458  0.00  0.00    +0.000 F 
ATOM     32  C   UNL     1      -1.195  11.436  22.120  0.00  0.00    +0.000 A 
ATOM     33  F   UNL     1      -0.966  11.367  23.439  0.00  0.00    +0.000 F 
ATOM     34  C   UNL     1      -0.484  10.616  21.238  0.00  0.00    +0.000 A 
ATOM     35  F   UNL     1       0.425   9.759  21.725  0.00  0.00    +0.000 F 
ENDBRANCH  25  27
ENDBRANCH  22  23
ENDBRANCH   3  22
TORSDOF 11
ENDMDL
MODEL 8
REMARK VINA RESULT:      -7.4      4.524      7.043
REMARK  Name = 
REMARK  12 active torsions:
REMARK  status: ('A' for Active; 'I' for Inactive)
REMARK    1  A    between atoms: C_1  and  C_2
REMARK    2  A    between atoms: C_2  and  O_3
REMARK    3  A    between atoms: C_2  and  C_16
REMARK    4  A    between atoms: O_3  and  C_4
REMARK    5  A    between atoms: C_4  and  C_6
REMARK    6  A    between atoms: C_11  and  N_12
REMARK    7  A    between atoms: N_12  and  C_13
REMARK    8  A    between atoms: C_13  and  C_14
REMARK    9  A    between atoms: C_14  and  O_15
REMARK   10  A    between atoms: N_18  and  C_19
REMARK   11  A    between atoms: C_19  and  C_20
REMARK   12  A    between atoms: N_22  and  C_23
REMARK                            x       y       z     vdW  Elec       q    Type
REMARK                         _______ _______ _______ _____ _____    ______ ____
ROOT
ATOM      1  C   UNL     1       4.230   3.311  19.439  0.00  0.00    +0.000 C 
ATOM      2  O   UNL     1       5.189   3.879  19.960  0.00  0.00    +0.000 OA
ATOM      3  N   UNL     1       2.964   3.442  19.947  0.00  0.00    +0.000 N 
ATOM      4  H   UNL     1       2.234   2.810  19.630  0.00  0.00    +0.000 HD
ENDROOT
BRANCH   1   6
ATOM      5  C   UNL     1       3.769   1.066  18.414  0.00  0.00    +0.000 C 
ATOM      6  C   UNL     1       4.379   2.446  18.161  0.00  0.00    +0.000 C 
BRANCH   6   7
ATOM      7  O   UNL     1       3.812   3.035  16.970  0.00  0.00    +0.000 OA
BRANCH   7   8
ATOM      8  C   UNL     1       4.215   4.317  16.720  0.00  0.00    +0.000 C 
ATOM      9  O   UNL     1       3.743   5.301  17.274  0.00  0.00    +0.000 OA
BRANCH   8  10
ATOM     10  C   UNL     1       5.308   4.449  15.694  0.00  0.00    +0.000 A 
ATOM     11  C   UNL     1       5.048   3.807  14.459  0.00  0.00    +0.000 A 
ATOM     12  C   UNL     1       5.959   3.853  13.402  0.00  0.00    +0.000 A 
ATOM     13  C   UNL     1       7.126   4.580  13.546  0.00  0.00    +0.000 A 
ATOM     14  C   UNL     1       7.391   5.229  14.752  0.00  0.00    +0.000 A 
ATOM     15  C   UNL     1       6.536   5.130  15.872  0.00  0.00    +0.000 A 
BRANCH  15  16
ATOM     16  N   UNL     1       6.862   5.778  17.078  0.00  0.00    +0.000 N 
ATOM     17  H   UNL     1       6.018   6.189  17.481  0.00  0.00    +0.000 HD
BRANCH  16  18
ATOM     18  C   UNL     1       7.661   5.080  18.097  0.00  0.00    +0.000 C 
BRANCH  18  19
ATOM     19  C   UNL     1       7.973   6.027  19.262  0.00  0.00    +0.000 C 
BRANCH  19  20
ATOM     20  O   UNL     1       7.892   5.325  20.503  0.00  0.00    +0.000 OA
ATOM     21  H   UNL     1       7.706   4.400  20.251  0.00  0.00    +0.000 HD
ENDBRANCH  19  20
ENDBRANCH  18  19
ENDBRANCH  16  18
ENDBRANCH  15  16
ENDBRANCH   8  10
ENDBRANCH   7   8
ENDBRANCH   6   7
ENDBRANCH   1   6
BRANCH   3  22
ATOM     22  C   UNL     1       2.649   4.314  21.080  0.00  0.00    +0.000 C 
BRANCH  22  23
ATOM     23  C   UNL     1       1.838   5.507  20.563  0.00  0.00    +0.000 C 
ATOM     24  O   UNL     1       0.607   5.442  20.561  0.00  0.00    +0.000 OA
ATOM     25  N   UNL     1       2.567   6.593  20.108  0.00  0.00    +0.000 N 
ATOM     26  H   UNL     1       3.554   6.464  19.901  0.00  0.00    +0.000 HD
BRANCH  25  27
ATOM     27  C   UNL     1       1.997   7.825  19.664  0.00  0.00    +0.000 A 
ATOM     28  C   UNL     1       2.046   8.245  18.329  0.00  0.00    +0.000 A 
ATOM     29  C   UNL     1       1.524   9.483  17.944  0.00  0.00    +0.000 A 
ATOM     30  C   UNL     1       0.930  10.305  18.894  0.00  0.00    +0.000 A 
ATOM     31  F   UNL     1       0.452  11.499  18.519  0.00  0.00    +0.000 F 
ATOM     32  C   UNL     1       0.833   9.891  20.215  0.00  0.00    +0.000 A 
ATOM     33  F   UNL     1       0.248  10.685  21.123  0.00  0.00    +0.000 F 
ATOM     34  C   UNL     1       1.355   8.651  20.596  0.00  0.00    +0.000 A 
ATOM     35  F   UNL     1       1.262   8.264  21.877  0.00  0.00    +0.000 F 
ENDBRANCH  25  27
ENDBRANCH  22  23
ENDBRANCH   3  22
TORSDOF 11
ENDMDL
MODEL 9
REMARK VINA RESULT:      -7.4      4.753      7.585
REMARK  Name = 
REMARK  12 active torsions:
REMARK  status: ('A' for Active; 'I' for Inactive)
REMARK    1  A    between atoms: C_1  and  C_2
REMARK    2  A    between atoms: C_2  and  O_3
REMARK    3  A    between atoms: C_2  and  C_16
REMARK    4  A    between atoms: O_3  and  C_4
REMARK    5  A    between atoms: C_4  and  C_6
REMARK    6  A    between atoms: C_11  and  N_12
REMARK    7  A    between atoms: N_12  and  C_13
REMARK    8  A    between atoms: C_13  and  C_14
REMARK    9  A    between atoms: C_14  and  O_15
REMARK   10  A    between atoms: N_18  and  C_19
REMARK   11  A    between atoms: C_19  and  C_20
REMARK   12  A    between atoms: N_22  and  C_23
REMARK                            x       y       z     vdW  Elec       q    Type
REMARK                         _______ _______ _______ _____ _____    ______ ____
ROOT
ATOM      1  C   UNL     1       1.758   4.672  20.098  0.00  0.00    +0.000 C 
ATOM      2  O   UNL     1       0.652   4.341  20.522  0.00  0.00    +0.000 OA
ATOM      3  N   UNL     1       2.224   5.952  20.250  0.00  0.00    +0.000 N 
ATOM      4  H   UNL     1       3.037   6.250  19.720  0.00  0.00    +0.000 HD
ENDROOT
BRANCH   1   6
ATOM      5  C   UNL     1       1.898   2.468  18.904  0.00  0.00    +0.000 C 
ATOM      6  C   UNL     1       2.710   3.665  19.402  0.00  0.00    +0.000 C 
BRANCH   6   7
ATOM      7  O   UNL     1       3.490   4.227  18.324  0.00  0.00    +0.000 OA
BRANCH   7   8
ATOM      8  C   UNL     1       4.834   3.987  18.407  0.00  0.00    +0.000 C 
ATOM      9  O   UNL     1       5.396   3.605  19.425  0.00  0.00    +0.000 OA
BRANCH   8  10
ATOM     10  C   UNL     1       5.600   4.228  17.135  0.00  0.00    +0.000 A 
ATOM     11  C   UNL     1       4.853   4.056  15.945  0.00  0.00    +0.000 A 
ATOM     12  C   UNL     1       5.420   4.258  14.687  0.00  0.00    +0.000 A 
ATOM     13  C   UNL     1       6.733   4.683  14.597  0.00  0.00    +0.000 A 
ATOM     14  C   UNL     1       7.479   4.871  15.759  0.00  0.00    +0.000 A 
ATOM     15  C   UNL     1       6.967   4.588  17.045  0.00  0.00    +0.000 A 
BRANCH  15  16
ATOM     16  N   UNL     1       7.769   4.764  18.188  0.00  0.00    +0.000 N 
ATOM     17  H   UNL     1       8.747   4.599  17.944  0.00  0.00    +0.000 HD
BRANCH  16  18
ATOM     18  C   UNL     1       7.615   5.969  19.018  0.00  0.00    +0.000 C 
BRANCH  18  19
ATOM     19  C   UNL     1       8.095   7.205  18.248  0.00  0.00    +0.000 C 
BRANCH  19  20
ATOM     20  O   UNL     1       6.992   7.842  17.601  0.00  0.00    +0.000 OA
ATOM     21  H   UNL     1       7.340   8.711  17.321  0.00  0.00    +0.000 HD
ENDBRANCH  19  20
ENDBRANCH  18  19
ENDBRANCH  16  18
ENDBRANCH  15  16
ENDBRANCH   8  10
ENDBRANCH   7   8
ENDBRANCH   6   7
ENDBRANCH   1   6
BRANCH   3  22
ATOM     22  C   UNL     1       1.488   6.983  20.983  0.00  0.00    +0.000 C 
BRANCH  22  23
ATOM     23  C   UNL     1       1.433   8.247  20.119  0.00  0.00    +0.000 C 
ATOM     24  O   UNL     1       2.073   8.284  19.067  0.00  0.00    +0.000 OA
ATOM     25  N   UNL     1       0.661   9.290  20.604  0.00  0.00    +0.000 N 
ATOM     26  H   UNL     1       0.387   9.277  21.584  0.00  0.00    +0.000 HD
BRANCH  25  27
ATOM     27  C   UNL     1       0.420  10.514  19.910  0.00  0.00    +0.000 A 
ATOM     28  C   UNL     1       1.299  11.603  19.968  0.00  0.00    +0.000 A 
ATOM     29  C   UNL     1       1.001  12.803  19.317  0.00  0.00    +0.000 A 
ATOM     30  C   UNL     1      -0.176  12.917  18.586  0.00  0.00    +0.000 A 
ATOM     31  F   UNL     1      -0.462  14.079  17.984  0.00  0.00    +0.000 F 
ATOM     32  C   UNL     1      -1.041  11.837  18.481  0.00  0.00    +0.000 A 
ATOM     33  F   UNL     1      -2.168  11.951  17.764  0.00  0.00    +0.000 F 
ATOM     34  C   UNL     1      -0.739  10.637  19.132  0.00  0.00    +0.000 A 
ATOM     35  F   UNL     1      -1.585   9.602  19.029  0.00  0.00    +0.000 F 
ENDBRANCH  25  27
ENDBRANCH  22  23
ENDBRANCH   3  22
TORSDOF 11
ENDMDL
