MODEL 1
REMARK VINA RESULT:      -7.7      0.000      0.000
REMARK  Name = 
REMARK  5 active torsions:
REMARK  status: ('A' for Active; 'I' for Inactive)
REMARK    1  A    between atoms: C_2  and  O_14
REMARK    2  A    between atoms: N_3  and  C_4
REMARK    3  A    between atoms: C_7  and  C_8
REMARK    4  A    between atoms: O_14  and  C_15
REMARK    5  A    between atoms: C_15  and  C_16
REMARK                            x       y       z     vdW  Elec       q    Type
REMARK                         _______ _______ _______ _____ _____    ______ ____
ROOT
ATOM      1  O   UNL     1       0.871   9.235  20.033  0.00  0.00    +0.000 OA
ATOM      2  C   UNL     1       1.212   9.271  18.879  0.00  0.00    +0.000 C 
ATOM      3  N   UNL     1       0.456   9.738  17.796  0.00  0.00    +0.000 N 
ATOM      4  H   UNL     1       0.817   9.632  16.860  0.00  0.00    +0.000 HD
ENDROOT
BRANCH   3   5
ATOM      5  C   UNL     1      -0.835  10.293  17.964  0.00  0.00    +0.000 A 
ATOM      6  C   UNL     1      -1.917   9.794  17.239  0.00  0.00    +0.000 A 
ATOM      7  C   UNL     1      -3.192  10.330  17.403  0.00  0.00    +0.000 A 
ATOM      8  C   UNL     1      -3.411  11.388  18.293  0.00  0.00    +0.000 A 
ATOM      9  C   UNL     1      -2.321  11.906  19.006  0.00  0.00    +0.000 A 
ATOM     10  C   UNL     1      -1.045  11.352  18.853  0.00  0.00    +0.000 A 
BRANCH   8  11
ATOM     11  C   UNL     1      -4.799  11.939  18.500  0.00  0.00    +0.000 C 
ATOM     12  F   UNL     1      -4.829  12.999  19.355  0.00  0.00    +0.000 F 
ATOM     13  F   UNL     1      -5.359  12.378  17.340  0.00  0.00    +0.000 F 
ATOM     14  F   UNL     1      -5.668  11.023  19.011  0.00  0.00    +0.000 F 
ENDBRANCH   8  11
ENDBRANCH   3   5
BRANCH   2  15
ATOM     15  O   UNL     1       2.422   8.782  18.437  0.00  0.00    +0.000 OA
BRANCH  15  16
ATOM     16  C   UNL     1       2.468   7.456  17.841  0.00  0.00    +0.000 C 
BRANCH  16  17
ATOM     17  C   UNL     1       3.470   6.525  18.553  0.00  0.00    +0.000 C 
ATOM     18  C   UNL     1       4.631   6.250  17.579  0.00  0.00    +0.000 C 
ATOM     19  C   UNL     1       5.655   5.318  18.201  0.00  0.00    +0.000 C 
ATOM     20  C   UNL     1       4.992   4.034  18.674  0.00  0.00    +0.000 C 
ATOM     21  N   UNL     1       3.921   4.308  19.641  0.00  0.00    +0.000 NA
ATOM     22  C   UNL     1       3.390   3.026  20.141  0.00  0.00    +0.000 C 
ATOM     23  C   UNL     1       2.337   3.224  21.225  0.00  0.00    +0.000 C 
ATOM     24  C   UNL     1       1.214   4.099  20.706  0.00  0.00    +0.000 C 
ATOM     25  C   UNL     1       1.782   5.411  20.170  0.00  0.00    +0.000 C 
ATOM     26  C   UNL     1       2.856   5.182  19.074  0.00  0.00    +0.000 C 
ENDBRANCH  16  17
ENDBRANCH  15  16
ENDBRANCH   2  15
TORSDOF 5
ENDMDL
MODEL 2
REMARK VINA RESULT:      -7.7      0.610      1.390
REMARK  Name = 
REMARK  5 active torsions:
REMARK  status: ('A' for Active; 'I' for Inactive)
REMARK    1  A    between atoms: C_2  and  O_14
REMARK    2  A    between atoms: N_3  and  C_4
REMARK    3  A    between atoms: C_7  and  C_8
REMARK    4  A    between atoms: O_14  and  C_15
REMARK    5  A    between atoms: C_15  and  C_16
REMARK                            x       y       z     vdW  Elec       q    Type
REMARK                         _______ _______ _______ _____ _____    ______ ____
ROOT
ATOM      1  O   UNL     1       0.329   9.329  20.054  0.00  0.00    +0.000 OA
ATOM      2  C   UNL     1       0.825   9.471  18.966  0.00  0.00    +0.000 C 
ATOM      3  N   UNL     1       0.195   9.960  17.815  0.00  0.00    +0.000 N 
ATOM      4  H   UNL     1       0.692   9.947  16.936  0.00  0.00    +0.000 HD
ENDROOT
BRANCH   3   5
ATOM      5  C   UNL     1      -1.146  10.410  17.825  0.00  0.00    +0.000 A 
ATOM      6  C   UNL     1      -1.538  11.444  18.676  0.00  0.00    +0.000 A 
ATOM      7  C   UNL     1      -2.855  11.897  18.686  0.00  0.00    +0.000 A 
ATOM      8  C   UNL     1      -3.814  11.317  17.849  0.00  0.00    +0.000 A 
ATOM      9  C   UNL     1      -3.429  10.263  17.010  0.00  0.00    +0.000 A 
ATOM     10  C   UNL     1      -2.100   9.823  16.987  0.00  0.00    +0.000 A 
BRANCH   8  11
ATOM     11  C   UNL     1      -5.230  11.837  17.831  0.00  0.00    +0.000 C 
ATOM     12  F   UNL     1      -6.162  10.845  17.858  0.00  0.00    +0.000 F 
ATOM     13  F   UNL     1      -5.501  12.633  18.902  0.00  0.00    +0.000 F 
ATOM     14  F   UNL     1      -5.512  12.585  16.729  0.00  0.00    +0.000 F 
ENDBRANCH   8  11
ENDBRANCH   3   5
BRANCH   2  15
ATOM     15  O   UNL     1       2.121   9.101  18.677  0.00  0.00    +0.000 OA
BRANCH  15  16
ATOM     16  C   UNL     1       2.347   7.987  17.771  0.00  0.00    +0.000 C 
BRANCH  16  17
ATOM     17  C   UNL     1       3.383   6.983  18.318  0.00  0.00    +0.000 C 
ATOM     18  C   UNL     1       4.410   6.714  17.202  0.00  0.00    +0.000 C 
ATOM     19  C   UNL     1       5.457   5.713  17.657  0.00  0.00    +0.000 C 
ATOM     20  C   UNL     1       4.797   4.432  18.146  0.00  0.00    +0.000 C 
ATOM     21  N   UNL     1       3.858   4.699  19.243  0.00  0.00    +0.000 NA
ATOM     22  C   UNL     1       3.333   3.415  19.744  0.00  0.00    +0.000 C 
ATOM     23  C   UNL     1       2.421   3.599  20.952  0.00  0.00    +0.000 C 
ATOM     24  C   UNL     1       1.286   4.541  20.607  0.00  0.00    +0.000 C 
ATOM     25  C   UNL     1       1.845   5.855  20.069  0.00  0.00    +0.000 C 
ATOM     26  C   UNL     1       2.774   5.641  18.846  0.00  0.00    +0.000 C 
ENDBRANCH  16  17
ENDBRANCH  15  16
ENDBRANCH   2  15
TORSDOF 5
ENDMDL
MODEL 3
REMARK VINA RESULT:      -7.7      3.254      5.078
REMARK  Name = 
REMARK  5 active torsions:
REMARK  status: ('A' for Active; 'I' for Inactive)
REMARK    1  A    between atoms: C_2  and  O_14
REMARK    2  A    between atoms: N_3  and  C_4
REMARK    3  A    between atoms: C_7  and  C_8
REMARK    4  A    between atoms: O_14  and  C_15
REMARK    5  A    between atoms: C_15  and  C_16
REMARK                            x       y       z     vdW  Elec       q    Type
REMARK                         _______ _______ _______ _____ _____    ______ ____
ROOT
ATOM      1  O   UNL     1       1.035   4.313  19.917  0.00  0.00    +0.000 OA
ATOM      2  C   UNL     1       2.160   4.465  20.318  0.00  0.00    +0.000 C 
ATOM      3  N   UNL     1       2.871   5.670  20.380  0.00  0.00    +0.000 N 
ATOM      4  H   UNL     1       3.843   5.657  20.651  0.00  0.00    +0.000 HD
ENDROOT
BRANCH   3   5
ATOM      5  C   UNL     1       2.292   6.906  20.005  0.00  0.00    +0.000 A 
ATOM      6  C   UNL     1       2.477   7.410  18.717  0.00  0.00    +0.000 A 
ATOM      7  C   UNL     1       1.905   8.622  18.337  0.00  0.00    +0.000 A 
ATOM      8  C   UNL     1       1.139   9.362  19.245  0.00  0.00    +0.000 A 
ATOM      9  C   UNL     1       0.971   8.870  20.546  0.00  0.00    +0.000 A 
ATOM     10  C   UNL     1       1.531   7.642  20.918  0.00  0.00    +0.000 A 
BRANCH   8  11
ATOM     11  C   UNL     1       0.486  10.653  18.820  0.00  0.00    +0.000 C 
ATOM     12  F   UNL     1      -0.470  10.477  17.866  0.00  0.00    +0.000 F 
ATOM     13  F   UNL     1      -0.132  11.286  19.855  0.00  0.00    +0.000 F 
ATOM     14  F   UNL     1       1.366  11.555  18.304  0.00  0.00    +0.000 F 
ENDBRANCH   8  11
ENDBRANCH   3   5
BRANCH   2  15
ATOM     15  O   UNL     1       2.957   3.422  20.735  0.00  0.00    +0.000 OA
BRANCH  15  16
ATOM     16  C   UNL     1       4.130   3.075  19.948  0.00  0.00    +0.000 C 
BRANCH  16  17
ATOM     17  C   UNL     1       4.234   3.903  18.650  0.00  0.00    +0.000 C 
ATOM     18  C   UNL     1       3.681   3.041  17.499  0.00  0.00    +0.000 C 
ATOM     19  C   UNL     1       3.768   3.780  16.176  0.00  0.00    +0.000 C 
ATOM     20  C   UNL     1       5.195   4.238  15.912  0.00  0.00    +0.000 C 
ATOM     21  N   UNL     1       5.690   5.099  16.993  0.00  0.00    +0.000 NA
ATOM     22  C   UNL     1       7.032   5.596  16.631  0.00  0.00    +0.000 C 
ATOM     23  C   UNL     1       7.578   6.578  17.662  0.00  0.00    +0.000 C 
ATOM     24  C   UNL     1       7.600   5.934  19.033  0.00  0.00    +0.000 C 
ATOM     25  C   UNL     1       6.212   5.405  19.382  0.00  0.00    +0.000 C 
ATOM     26  C   UNL     1       5.675   4.414  18.316  0.00  0.00    +0.000 C 
ENDBRANCH  16  17
ENDBRANCH  15  16
ENDBRANCH   2  15
TORSDOF 5
ENDMDL
MODEL 4
REMARK VINA RESULT:      -7.7      2.860      4.873
REMARK  Name = 
REMARK  5 active torsions:
REMARK  status: ('A' for Active; 'I' for Inactive)
REMARK    1  A    between atoms: C_2  and  O_14
REMARK    2  A    between atoms: N_3  and  C_4
REMARK    3  A    between atoms: C_7  and  C_8
REMARK    4  A    between atoms: O_14  and  C_15
REMARK    5  A    between atoms: C_15  and  C_16
REMARK                            x       y       z     vdW  Elec       q    Type
REMARK                         _______ _______ _______ _____ _____    ______ ____
ROOT
ATOM      1  O   UNL     1       1.871   5.004  18.630  0.00  0.00    +0.000 OA
ATOM      2  C   UNL     1       2.767   5.343  19.359  0.00  0.00    +0.000 C 
ATOM      3  N   UNL     1       3.009   6.633  19.846  0.00  0.00    +0.000 N 
ATOM      4  H   UNL     1       3.848   6.812  20.378  0.00  0.00    +0.000 HD
ENDROOT
BRANCH   3   5
ATOM      5  C   UNL     1       2.150   7.719  19.557  0.00  0.00    +0.000 A 
ATOM      6  C   UNL     1       2.109   8.266  18.274  0.00  0.00    +0.000 A 
ATOM      7  C   UNL     1       1.261   9.331  17.980  0.00  0.00    +0.000 A 
ATOM      8  C   UNL     1       0.438   9.880  18.969  0.00  0.00    +0.000 A 
ATOM      9  C   UNL     1       0.493   9.348  20.265  0.00  0.00    +0.000 A 
ATOM     10  C   UNL     1       1.333   8.265  20.552  0.00  0.00    +0.000 A 
BRANCH   8  11
ATOM     11  C   UNL     1      -0.510  11.005  18.639  0.00  0.00    +0.000 C 
ATOM     12  F   UNL     1      -1.293  10.741  17.556  0.00  0.00    +0.000 F 
ATOM     13  F   UNL     1      -1.366  11.277  19.662  0.00  0.00    +0.000 F 
ATOM     14  F   UNL     1       0.126  12.177  18.362  0.00  0.00    +0.000 F 
ENDBRANCH   8  11
ENDBRANCH   3   5
BRANCH   2  15
ATOM     15  O   UNL     1       3.755   4.482  19.786  0.00  0.00    +0.000 OA
BRANCH  15  16
ATOM     16  C   UNL     1       4.405   3.620  18.812  0.00  0.00    +0.000 C 
BRANCH  16  17
ATOM     17  C   UNL     1       5.777   4.166  18.364  0.00  0.00    +0.000 C 
ATOM     18  C   UNL     1       6.205   5.246  19.375  0.00  0.00    +0.000 C 
ATOM     19  C   UNL     1       7.543   5.851  18.991  0.00  0.00    +0.000 C 
ATOM     20  C   UNL     1       7.498   6.388  17.568  0.00  0.00    +0.000 C 
ATOM     21  N   UNL     1       7.138   5.336  16.609  0.00  0.00    +0.000 NA
ATOM     22  C   UNL     1       7.215   5.888  15.243  0.00  0.00    +0.000 C 
ATOM     23  C   UNL     1       6.948   4.829  14.180  0.00  0.00    +0.000 C 
ATOM     24  C   UNL     1       5.599   4.181  14.418  0.00  0.00    +0.000 C 
ATOM     25  C   UNL     1       5.526   3.637  15.842  0.00  0.00    +0.000 C 
ATOM     26  C   UNL     1       5.808   4.731  16.904  0.00  0.00    +0.000 C 
ENDBRANCH  16  17
ENDBRANCH  15  16
ENDBRANCH   2  15
TORSDOF 5
ENDMDL
MODEL 5
REMARK VINA RESULT:      -7.6      5.810      9.368
REMARK  Name = 
REMARK  5 active torsions:
REMARK  status: ('A' for Active; 'I' for Inactive)
REMARK    1  A    between atoms: C_2  and  O_14
REMARK    2  A    between atoms: N_3  and  C_4
REMARK    3  A    between atoms: C_7  and  C_8
REMARK    4  A    between atoms: O_14  and  C_15
REMARK    5  A    between atoms: C_15  and  C_16
REMARK                            x       y       z     vdW  Elec       q    Type
REMARK                         _______ _______ _______ _____ _____    ______ ____
ROOT
ATOM      1  O   UNL     1       2.182   8.716  17.458  0.00  0.00    +0.000 OA
ATOM      2  C   UNL     1       2.172   8.116  18.501  0.00  0.00    +0.000 C 
ATOM      3  N   UNL     1       2.813   6.901  18.775  0.00  0.00    +0.000 N 
ATOM      4  H   UNL     1       2.655   6.448  19.664  0.00  0.00    +0.000 HD
ENDROOT
BRANCH   3   5
ATOM      5  C   UNL     1       3.623   6.245  17.819  0.00  0.00    +0.000 A 
ATOM      6  C   UNL     1       3.545   4.862  17.657  0.00  0.00    +0.000 A 
ATOM      7  C   UNL     1       4.334   4.210  16.712  0.00  0.00    +0.000 A 
ATOM      8  C   UNL     1       5.228   4.929  15.913  0.00  0.00    +0.000 A 
ATOM      9  C   UNL     1       5.326   6.316  16.088  0.00  0.00    +0.000 A 
ATOM     10  C   UNL     1       4.518   6.971  17.025  0.00  0.00    +0.000 A 
BRANCH   8  11
ATOM     11  C   UNL     1       6.051   4.227  14.862  0.00  0.00    +0.000 C 
ATOM     12  F   UNL     1       7.298   4.756  14.720  0.00  0.00    +0.000 F 
ATOM     13  F   UNL     1       6.236   2.908  15.146  0.00  0.00    +0.000 F 
ATOM     14  F   UNL     1       5.485   4.267  13.624  0.00  0.00    +0.000 F 
ENDBRANCH   8  11
ENDBRANCH   3   5
BRANCH   2  15
ATOM     15  O   UNL     1       1.450   8.529  19.600  0.00  0.00    +0.000 OA
BRANCH  15  16
ATOM     16  C   UNL     1       1.013   9.914  19.672  0.00  0.00    +0.000 C 
BRANCH  16  17
ATOM     17  C   UNL     1       0.693  10.358  21.114  0.00  0.00    +0.000 C 
ATOM     18  C   UNL     1      -0.159   9.253  21.767  0.00  0.00    +0.000 C 
ATOM     19  C   UNL     1      -0.535   9.625  23.190  0.00  0.00    +0.000 C 
ATOM     20  C   UNL     1      -1.231  10.977  23.223  0.00  0.00    +0.000 C 
ATOM     21  N   UNL     1      -0.385  12.029  22.644  0.00  0.00    +0.000 NA
ATOM     22  C   UNL     1      -1.066  13.329  22.801  0.00  0.00    +0.000 C 
ATOM     23  C   UNL     1      -0.209  14.490  22.309  0.00  0.00    +0.000 C 
ATOM     24  C   UNL     1       0.189  14.267  20.864  0.00  0.00    +0.000 C 
ATOM     25  C   UNL     1       0.869  12.910  20.714  0.00  0.00    +0.000 C 
ATOM     26  C   UNL     1      -0.019  11.747  21.228  0.00  0.00    +0.000 C 
ENDBRANCH  16  17
ENDBRANCH  15  16
ENDBRANCH   2  15
TORSDOF 5
ENDMDL
MODEL 6
REMARK VINA RESULT:      -7.6      2.848      4.800
REMARK  Name = 
REMARK  5 active torsions:
REMARK  status: ('A' for Active; 'I' for Inactive)
REMARK    1  A    between atoms: C_2  and  O_14
REMARK    2  A    between atoms: N_3  and  C_4
REMARK    3  A    between atoms: C_7  and  C_8
REMARK    4  A    between atoms: O_14  and  C_15
REMARK    5  A    between atoms: C_15  and  C_16
REMARK                            x       y       z     vdW  Elec       q    Type
REMARK                         _______ _______ _______ _____ _____    ______ ____
ROOT
ATOM      1  O   UNL     1       1.526   4.961  19.646  0.00  0.00    +0.000 OA
ATOM      2  C   UNL     1       2.653   5.366  19.765  0.00  0.00    +0.000 C 
ATOM      3  N   UNL     1       3.081   6.696  19.665  0.00  0.00    +0.000 N 
ATOM      4  H   UNL     1       4.068   6.901  19.693  0.00  0.00    +0.000 HD
ENDROOT
BRANCH   3   5
ATOM      5  C   UNL     1       2.176   7.763  19.451  0.00  0.00    +0.000 A 
ATOM      6  C   UNL     1       1.424   8.273  20.509  0.00  0.00    +0.000 A 
ATOM      7  C   UNL     1       0.537   9.328  20.308  0.00  0.00    +0.000 A 
ATOM      8  C   UNL     1       0.376   9.891  19.037  0.00  0.00    +0.000 A 
ATOM      9  C   UNL     1       1.113   9.365  17.968  0.00  0.00    +0.000 A 
ATOM     10  C   UNL     1       2.018   8.318  18.177  0.00  0.00    +0.000 A 
BRANCH   8  11
ATOM     11  C   UNL     1      -0.554  11.060  18.831  0.00  0.00    +0.000 C 
ATOM     12  F   UNL     1       0.102  12.215  18.530  0.00  0.00    +0.000 F 
ATOM     13  F   UNL     1      -1.429  10.850  17.808  0.00  0.00    +0.000 F 
ATOM     14  F   UNL     1      -1.317  11.337  19.924  0.00  0.00    +0.000 F 
ENDBRANCH   8  11
ENDBRANCH   3   5
BRANCH   2  15
ATOM     15  O   UNL     1       3.733   4.535  19.969  0.00  0.00    +0.000 OA
BRANCH  15  16
ATOM     16  C   UNL     1       4.239   3.754  18.852  0.00  0.00    +0.000 C 
BRANCH  16  17
ATOM     17  C   UNL     1       5.648   4.202  18.409  0.00  0.00    +0.000 C 
ATOM     18  C   UNL     1       6.140   5.262  19.412  0.00  0.00    +0.000 C 
ATOM     19  C   UNL     1       7.518   5.772  19.032  0.00  0.00    +0.000 C 
ATOM     20  C   UNL     1       7.521   6.294  17.603  0.00  0.00    +0.000 C 
ATOM     21  N   UNL     1       7.098   5.256  16.654  0.00  0.00    +0.000 NA
ATOM     22  C   UNL     1       7.223   5.785  15.282  0.00  0.00    +0.000 C 
ATOM     23  C   UNL     1       6.894   4.734  14.228  0.00  0.00    +0.000 C 
ATOM     24  C   UNL     1       5.502   4.182  14.462  0.00  0.00    +0.000 C 
ATOM     25  C   UNL     1       5.382   3.660  15.891  0.00  0.00    +0.000 C 
ATOM     26  C   UNL     1       5.729   4.746  16.944  0.00  0.00    +0.000 C 
ENDBRANCH  16  17
ENDBRANCH  15  16
ENDBRANCH   2  15
TORSDOF 5
ENDMDL
MODEL 7
REMARK VINA RESULT:      -7.6      5.836      9.373
REMARK  Name = 
REMARK  5 active torsions:
REMARK  status: ('A' for Active; 'I' for Inactive)
REMARK    1  A    between atoms: C_2  and  O_14
REMARK    2  A    between atoms: N_3  and  C_4
REMARK    3  A    between atoms: C_7  and  C_8
REMARK    4  A    between atoms: O_14  and  C_15
REMARK    5  A    between atoms: C_15  and  C_16
REMARK                            x       y       z     vdW  Elec       q    Type
REMARK                         _______ _______ _______ _____ _____    ______ ____
ROOT
ATOM      1  O   UNL     1       2.294   9.082  17.242  0.00  0.00    +0.000 OA
ATOM      2  C   UNL     1       1.983   8.468  18.230  0.00  0.00    +0.000 C 
ATOM      3  N   UNL     1       2.459   7.210  18.619  0.00  0.00    +0.000 N 
ATOM      4  H   UNL     1       2.054   6.755  19.424  0.00  0.00    +0.000 HD
ENDROOT
BRANCH   3   5
ATOM      5  C   UNL     1       3.446   6.517  17.879  0.00  0.00    +0.000 A 
ATOM      6  C   UNL     1       4.529   7.204  17.330  0.00  0.00    +0.000 A 
ATOM      7  C   UNL     1       5.508   6.528  16.606  0.00  0.00    +0.000 A 
ATOM      8  C   UNL     1       5.420   5.146  16.407  0.00  0.00    +0.000 A 
ATOM      9  C   UNL     1       4.321   4.457  16.937  0.00  0.00    +0.000 A 
ATOM     10  C   UNL     1       3.349   5.136  17.681  0.00  0.00    +0.000 A 
BRANCH   8  11
ATOM     11  C   UNL     1       6.502   4.410  15.658  0.00  0.00    +0.000 C 
ATOM     12  F   UNL     1       6.102   3.189  15.207  0.00  0.00    +0.000 F 
ATOM     13  F   UNL     1       6.927   5.093  14.559  0.00  0.00    +0.000 F 
ATOM     14  F   UNL     1       7.614   4.184  16.410  0.00  0.00    +0.000 F 
ENDBRANCH   8  11
ENDBRANCH   3   5
BRANCH   2  15
ATOM     15  O   UNL     1       1.031   8.911  19.122  0.00  0.00    +0.000 OA
BRANCH  15  16
ATOM     16  C   UNL     1       1.000  10.322  19.473  0.00  0.00    +0.000 C 
BRANCH  16  17
ATOM     17  C   UNL     1       0.710  10.551  20.971  0.00  0.00    +0.000 C 
ATOM     18  C   UNL     1      -0.006   9.297  21.507  0.00  0.00    +0.000 C 
ATOM     19  C   UNL     1      -0.347   9.453  22.978  0.00  0.00    +0.000 C 
ATOM     20  C   UNL     1      -1.162  10.717  23.208  0.00  0.00    +0.000 C 
ATOM     21  N   UNL     1      -0.445  11.909  22.737  0.00  0.00    +0.000 NA
ATOM     22  C   UNL     1      -1.234  13.107  23.082  0.00  0.00    +0.000 C 
ATOM     23  C   UNL     1      -0.511  14.398  22.711  0.00  0.00    +0.000 C 
ATOM     24  C   UNL     1      -0.164  14.394  21.237  0.00  0.00    +0.000 C 
ATOM     25  C   UNL     1       0.631  13.138  20.892  0.00  0.00    +0.000 C 
ATOM     26  C   UNL     1      -0.122  11.840  21.284  0.00  0.00    +0.000 C 
ENDBRANCH  16  17
ENDBRANCH  15  16
ENDBRANCH   2  15
TORSDOF 5
ENDMDL
MODEL 8
REMARK VINA RESULT:      -7.5      2.845      3.395
REMARK  Name = 
REMARK  5 active torsions:
REMARK  status: ('A' for Active; 'I' for Inactive)
REMARK    1  A    between atoms: C_2  and  O_14
REMARK    2  A    between atoms: N_3  and  C_4
REMARK    3  A    between atoms: C_7  and  C_8
REMARK    4  A    between atoms: O_14  and  C_15
REMARK    5  A    between atoms: C_15  and  C_16
REMARK                            x       y       z     vdW  Elec       q    Type
REMARK                         _______ _______ _______ _____ _____    ______ ____
ROOT
ATOM      1  O   UNL     1       1.697   9.531  17.464  0.00  0.00    +0.000 OA
ATOM      2  C   UNL     1       2.089   8.581  18.092  0.00  0.00    +0.000 C 
ATOM      3  N   UNL     1       1.846   8.312  19.444  0.00  0.00    +0.000 N 
ATOM      4  H   UNL     1       2.305   7.528  19.883  0.00  0.00    +0.000 HD
ENDROOT
BRANCH   3   5
ATOM      5  C   UNL     1       1.029   9.148  20.242  0.00  0.00    +0.000 A 
ATOM      6  C   UNL     1       0.828  10.483  19.890  0.00  0.00    +0.000 A 
ATOM      7  C   UNL     1       0.020  11.311  20.666  0.00  0.00    +0.000 A 
ATOM      8  C   UNL     1      -0.599  10.821  21.821  0.00  0.00    +0.000 A 
ATOM      9  C   UNL     1      -0.381   9.487  22.190  0.00  0.00    +0.000 A 
ATOM     10  C   UNL     1       0.416   8.653  21.397  0.00  0.00    +0.000 A 
BRANCH   8  11
ATOM     11  C   UNL     1      -1.507  11.707  22.637  0.00  0.00    +0.000 C 
ATOM     12  F   UNL     1      -2.482  12.299  21.893  0.00  0.00    +0.000 F 
ATOM     13  F   UNL     1      -2.152  11.020  23.620  0.00  0.00    +0.000 F 
ATOM     14  F   UNL     1      -0.846  12.721  23.261  0.00  0.00    +0.000 F 
ENDBRANCH   8  11
ENDBRANCH   3   5
BRANCH   2  15
ATOM     15  O   UNL     1       2.914   7.614  17.557  0.00  0.00    +0.000 OA
BRANCH  15  16
ATOM     16  C   UNL     1       3.978   7.065  18.382  0.00  0.00    +0.000 C 
BRANCH  16  17
ATOM     17  C   UNL     1       4.033   5.525  18.325  0.00  0.00    +0.000 C 
ATOM     18  C   UNL     1       4.468   5.123  16.904  0.00  0.00    +0.000 C 
ATOM     19  C   UNL     1       4.526   3.612  16.759  0.00  0.00    +0.000 C 
ATOM     20  C   UNL     1       3.195   2.986  17.147  0.00  0.00    +0.000 C 
ATOM     21  N   UNL     1       2.818   3.337  18.522  0.00  0.00    +0.000 NA
ATOM     22  C   UNL     1       1.579   2.619  18.876  0.00  0.00    +0.000 C 
ATOM     23  C   UNL     1       1.172   2.855  20.326  0.00  0.00    +0.000 C 
ATOM     24  C   UNL     1       1.020   4.339  20.588  0.00  0.00    +0.000 C 
ATOM     25  C   UNL     1       2.300   5.071  20.195  0.00  0.00    +0.000 C 
ATOM     26  C   UNL     1       2.697   4.809  18.719  0.00  0.00    +0.000 C 
ENDBRANCH  16  17
ENDBRANCH  15  16
ENDBRANCH   2  15
TORSDOF 5
ENDMDL
MODEL 9
REMARK VINA RESULT:      -7.4      5.576      9.041
REMARK  Name = 
REMARK  5 active torsions:
REMARK  status: ('A' for Active; 'I' for Inactive)
REMARK    1  A    between atoms: C_2  and  O_14
REMARK    2  A    between atoms: N_3  and  C_4
REMARK    3  A    between atoms: C_7  and  C_8
REMARK    4  A    between atoms: O_14  and  C_15
REMARK    5  A    between atoms: C_15  and  C_16
REMARK                            x       y       z     vdW  Elec       q    Type
REMARK                         _______ _______ _______ _____ _____    ______ ____
ROOT
ATOM      1  O   UNL     1       1.471   4.996  20.038  0.00  0.00    +0.000 OA
ATOM      2  C   UNL     1       1.832   6.108  20.325  0.00  0.00    +0.000 C 
ATOM      3  N   UNL     1       2.989   6.756  19.875  0.00  0.00    +0.000 N 
ATOM      4  H   UNL     1       3.232   7.657  20.260  0.00  0.00    +0.000 HD
ENDROOT
BRANCH   3   5
ATOM      5  C   UNL     1       3.873   6.158  18.947  0.00  0.00    +0.000 A 
ATOM      6  C   UNL     1       3.824   6.508  17.598  0.00  0.00    +0.000 A 
ATOM      7  C   UNL     1       4.696   5.929  16.679  0.00  0.00    +0.000 A 
ATOM      8  C   UNL     1       5.634   4.977  17.091  0.00  0.00    +0.000 A 
ATOM      9  C   UNL     1       5.671   4.606  18.441  0.00  0.00    +0.000 A 
ATOM     10  C   UNL     1       4.806   5.204  19.366  0.00  0.00    +0.000 A 
BRANCH   8  11
ATOM     11  C   UNL     1       6.605   4.382  16.102  0.00  0.00    +0.000 C 
ATOM     12  F   UNL     1       6.143   3.238  15.524  0.00  0.00    +0.000 F 
ATOM     13  F   UNL     1       6.884   5.232  15.076  0.00  0.00    +0.000 F 
ATOM     14  F   UNL     1       7.806   4.061  16.658  0.00  0.00    +0.000 F 
ENDBRANCH   8  11
ENDBRANCH   3   5
BRANCH   2  15
ATOM     15  O   UNL     1       1.157   6.910  21.221  0.00  0.00    +0.000 OA
BRANCH  15  16
ATOM     16  C   UNL     1       1.438   8.336  21.236  0.00  0.00    +0.000 C 
BRANCH  16  17
ATOM     17  C   UNL     1       0.376   9.155  20.473  0.00  0.00    +0.000 C 
ATOM     18  C   UNL     1       0.944   9.476  19.078  0.00  0.00    +0.000 C 
ATOM     19  C   UNL     1      -0.038  10.302  18.267  0.00  0.00    +0.000 C 
ATOM     20  C   UNL     1      -0.433  11.560  19.026  0.00  0.00    +0.000 C 
ATOM     21  N   UNL     1      -1.019  11.235  20.333  0.00  0.00    +0.000 NA
ATOM     22  C   UNL     1      -1.478  12.483  20.973  0.00  0.00    +0.000 C 
ATOM     23  C   UNL     1      -2.189  12.223  22.296  0.00  0.00    +0.000 C 
ATOM     24  C   UNL     1      -1.282  11.447  23.230  0.00  0.00    +0.000 C 
ATOM     25  C   UNL     1      -0.797  10.172  22.545  0.00  0.00    +0.000 C 
ATOM     26  C   UNL     1      -0.084  10.463  21.198  0.00  0.00    +0.000 C 
ENDBRANCH  16  17
ENDBRANCH  15  16
ENDBRANCH   2  15
TORSDOF 5
ENDMDL
