MODEL 1
REMARK VINA RESULT:      -8.5      0.000      0.000
REMARK  Name = 
REMARK  1 active torsions:
REMARK  status: ('A' for Active; 'I' for Inactive)
REMARK    1  A    between atoms: C_5  and  C_6
REMARK                            x       y       z     vdW  Elec       q    Type
REMARK                         _______ _______ _______ _____ _____    ______ ____
ROOT
ATOM      1  C   UNL     1       2.768   7.511  18.094  0.00  0.00    +0.000 A 
ATOM      2  C   UNL     1       3.927   7.477  17.290  0.00  0.00    +0.000 A 
ATOM      3  C   UNL     1       4.567   6.265  17.014  0.00  0.00    +0.000 A 
ATOM      4  C   UNL     1       4.016   5.123  17.549  0.00  0.00    +0.000 A 
ATOM      5  C   UNL     1       2.870   5.139  18.347  0.00  0.00    +0.000 A 
ATOM      6  C   UNL     1       2.237   6.335  18.641  0.00  0.00    +0.000 A 
ATOM      7  C   UNL     1       2.533   3.729  18.768  0.00  0.00    +0.000 C 
ATOM      8  C   UNL     1       1.164   3.258  18.262  0.00  0.00    +0.000 C 
ATOM      9  C   UNL     1       0.657   2.331  19.359  0.00  0.00    +0.000 C 
ATOM     10  C   UNL     1       1.150   2.989  20.635  0.00  0.00    +0.000 C 
ATOM     11  C   UNL     1       2.541   3.516  20.289  0.00  0.00    +0.000 C 
ATOM     12  C   UNL     1       3.671   2.922  18.087  0.00  0.00    +0.000 C 
ATOM     13  O   UNL     1       3.843   1.712  18.125  0.00  0.00    +0.000 OA
ATOM     14  N   UNL     1       4.476   3.825  17.407  0.00  0.00    +0.000 N 
ATOM     15  H   UNL     1       5.289   3.539  16.884  0.00  0.00    +0.000 HD
ENDROOT
BRANCH   1  20
ATOM     16  O   UNL     1       0.428  12.390  19.127  0.00  0.00    +0.000 OA
ATOM     17  C   UNL     1       0.966  11.292  18.987  0.00  0.00    +0.000 C 
ATOM     18  C   UNL     1       0.993  10.277  20.092  0.00  0.00    +0.000 C 
ATOM     19  C   UNL     1       1.192   8.866  19.592  0.00  0.00    +0.000 C 
ATOM     20  C   UNL     1       2.098   8.807  18.388  0.00  0.00    +0.000 C 
ATOM     21  N   UNL     1       2.281   9.805  17.581  0.00  0.00    +0.000 NA
ATOM     22  N   UNL     1       1.643  10.971  17.845  0.00  0.00    +0.000 N 
ATOM     23  H   UNL     1       1.698  11.688  17.126  0.00  0.00    +0.000 HD
ENDBRANCH   1  20
TORSDOF 1
ENDMDL
MODEL 2
REMARK VINA RESULT:      -8.2      3.366      6.093
REMARK  Name = 
REMARK  1 active torsions:
REMARK  status: ('A' for Active; 'I' for Inactive)
REMARK    1  A    between atoms: C_5  and  C_6
REMARK                            x       y       z     vdW  Elec       q    Type
REMARK                         _______ _______ _______ _____ _____    ______ ____
ROOT
ATOM      1  C   UNL     1       5.046   5.385  16.152  0.00  0.00    +0.000 A 
ATOM      2  C   UNL     1       5.203   6.712  16.606  0.00  0.00    +0.000 A 
ATOM      3  C   UNL     1       4.535   7.155  17.752  0.00  0.00    +0.000 A 
ATOM      4  C   UNL     1       3.737   6.248  18.410  0.00  0.00    +0.000 A 
ATOM      5  C   UNL     1       3.570   4.932  17.973  0.00  0.00    +0.000 A 
ATOM      6  C   UNL     1       4.212   4.486  16.831  0.00  0.00    +0.000 A 
ATOM      7  C   UNL     1       2.637   4.208  18.912  0.00  0.00    +0.000 C 
ATOM      8  C   UNL     1       3.293   3.011  19.613  0.00  0.00    +0.000 C 
ATOM      9  C   UNL     1       2.161   2.006  19.777  0.00  0.00    +0.000 C 
ATOM     10  C   UNL     1       1.346   2.178  18.508  0.00  0.00    +0.000 C 
ATOM     11  C   UNL     1       1.361   3.680  18.237  0.00  0.00    +0.000 C 
ATOM     12  C   UNL     1       2.302   5.323  19.939  0.00  0.00    +0.000 C 
ATOM     13  O   UNL     1       1.574   5.232  20.916  0.00  0.00    +0.000 OA
ATOM     14  N   UNL     1       2.991   6.465  19.555  0.00  0.00    +0.000 N 
ATOM     15  H   UNL     1       2.933   7.331  20.068  0.00  0.00    +0.000 HD
ENDROOT
BRANCH   1  20
ATOM     16  O   UNL     1       7.694   3.842  11.574  0.00  0.00    +0.000 OA
ATOM     17  C   UNL     1       7.023   4.165  12.554  0.00  0.00    +0.000 C 
ATOM     18  C   UNL     1       5.665   3.581  12.812  0.00  0.00    +0.000 C 
ATOM     19  C   UNL     1       5.251   3.668  14.261  0.00  0.00    +0.000 C 
ATOM     20  C   UNL     1       5.754   4.924  14.926  0.00  0.00    +0.000 C 
ATOM     21  N   UNL     1       6.791   5.586  14.515  0.00  0.00    +0.000 NA
ATOM     22  N   UNL     1       7.444   5.139  13.415  0.00  0.00    +0.000 N 
ATOM     23  H   UNL     1       8.325   5.597  13.197  0.00  0.00    +0.000 HD
ENDBRANCH   1  20
TORSDOF 1
ENDMDL
MODEL 3
REMARK VINA RESULT:      -8.1      2.082      2.539
REMARK  Name = 
REMARK  1 active torsions:
REMARK  status: ('A' for Active; 'I' for Inactive)
REMARK    1  A    between atoms: C_5  and  C_6
REMARK                            x       y       z     vdW  Elec       q    Type
REMARK                         _______ _______ _______ _____ _____    ______ ____
ROOT
ATOM      1  C   UNL     1       1.442   8.260  20.013  0.00  0.00    +0.000 A 
ATOM      2  C   UNL     1       2.090   8.690  18.835  0.00  0.00    +0.000 A 
ATOM      3  C   UNL     1       2.768   7.776  18.021  0.00  0.00    +0.000 A 
ATOM      4  C   UNL     1       2.767   6.458  18.415  0.00  0.00    +0.000 A 
ATOM      5  C   UNL     1       2.133   6.016  19.578  0.00  0.00    +0.000 A 
ATOM      6  C   UNL     1       1.472   6.914  20.400  0.00  0.00    +0.000 A 
ATOM      7  C   UNL     1       2.321   4.526  19.716  0.00  0.00    +0.000 C 
ATOM      8  C   UNL     1       1.000   3.744  19.695  0.00  0.00    +0.000 C 
ATOM      9  C   UNL     1       1.250   2.562  20.621  0.00  0.00    +0.000 C 
ATOM     10  C   UNL     1       2.122   3.146  21.717  0.00  0.00    +0.000 C 
ATOM     11  C   UNL     1       3.062   4.108  20.995  0.00  0.00    +0.000 C 
ATOM     12  C   UNL     1       3.164   4.201  18.454  0.00  0.00    +0.000 C 
ATOM     13  O   UNL     1       3.578   3.105  18.104  0.00  0.00    +0.000 OA
ATOM     14  N   UNL     1       3.367   5.391  17.769  0.00  0.00    +0.000 N 
ATOM     15  H   UNL     1       3.893   5.439  16.910  0.00  0.00    +0.000 HD
ENDROOT
BRANCH   1  20
ATOM     16  O   UNL     1      -1.059  11.992  23.201  0.00  0.00    +0.000 OA
ATOM     17  C   UNL     1      -0.486  11.108  22.565  0.00  0.00    +0.000 C 
ATOM     18  C   UNL     1      -0.455   9.685  23.040  0.00  0.00    +0.000 C 
ATOM     19  C   UNL     1      -0.204   8.696  21.927  0.00  0.00    +0.000 C 
ATOM     20  C   UNL     1       0.730   9.242  20.876  0.00  0.00    +0.000 C 
ATOM     21  N   UNL     1       0.902  10.508  20.659  0.00  0.00    +0.000 NA
ATOM     22  N   UNL     1       0.225  11.391  21.433  0.00  0.00    +0.000 N 
ATOM     23  H   UNL     1       0.276  12.367  21.154  0.00  0.00    +0.000 HD
ENDBRANCH   1  20
TORSDOF 1
ENDMDL
MODEL 4
REMARK VINA RESULT:      -8.0      1.112      1.222
REMARK  Name = 
REMARK  1 active torsions:
REMARK  status: ('A' for Active; 'I' for Inactive)
REMARK    1  A    between atoms: C_5  and  C_6
REMARK                            x       y       z     vdW  Elec       q    Type
REMARK                         _______ _______ _______ _____ _____    ______ ____
ROOT
ATOM      1  C   UNL     1       2.568   7.377  18.492  0.00  0.00    +0.000 A 
ATOM      2  C   UNL     1       3.625   7.485  17.563  0.00  0.00    +0.000 A 
ATOM      3  C   UNL     1       4.279   6.342  17.093  0.00  0.00    +0.000 A 
ATOM      4  C   UNL     1       3.843   5.125  17.566  0.00  0.00    +0.000 A 
ATOM      5  C   UNL     1       2.801   5.001  18.486  0.00  0.00    +0.000 A 
ATOM      6  C   UNL     1       2.157   6.126  18.971  0.00  0.00    +0.000 A 
ATOM      7  C   UNL     1       2.576   3.541  18.794  0.00  0.00    +0.000 C 
ATOM      8  C   UNL     1       1.178   3.047  18.401  0.00  0.00    +0.000 C 
ATOM      9  C   UNL     1       0.845   1.992  19.447  0.00  0.00    +0.000 C 
ATOM     10  C   UNL     1       1.457   2.547  20.720  0.00  0.00    +0.000 C 
ATOM     11  C   UNL     1       2.773   3.181  20.275  0.00  0.00    +0.000 C 
ATOM     12  C   UNL     1       3.659   2.866  17.910  0.00  0.00    +0.000 C 
ATOM     13  O   UNL     1       3.885   1.670  17.802  0.00  0.00    +0.000 OA
ATOM     14  N   UNL     1       4.338   3.874  17.239  0.00  0.00    +0.000 N 
ATOM     15  H   UNL     1       5.095   3.686  16.601  0.00  0.00    +0.000 HD
ENDROOT
BRANCH   1  20
ATOM     16  O   UNL     1      -0.069  11.807  20.434  0.00  0.00    +0.000 OA
ATOM     17  C   UNL     1       0.475  10.830  19.920  0.00  0.00    +0.000 C 
ATOM     18  C   UNL     1       0.661  10.717  18.436  0.00  0.00    +0.000 C 
ATOM     19  C   UNL     1       1.775   9.773  18.051  0.00  0.00    +0.000 C 
ATOM     20  C   UNL     1       1.884   8.600  18.993  0.00  0.00    +0.000 C 
ATOM     21  N   UNL     1       1.459   8.624  20.218  0.00  0.00    +0.000 NA
ATOM     22  N   UNL     1       0.863   9.755  20.670  0.00  0.00    +0.000 N 
ATOM     23  H   UNL     1       0.663   9.792  21.665  0.00  0.00    +0.000 HD
ENDBRANCH   1  20
TORSDOF 1
ENDMDL
MODEL 5
REMARK VINA RESULT:      -7.9      2.275      2.686
REMARK  Name = 
REMARK  1 active torsions:
REMARK  status: ('A' for Active; 'I' for Inactive)
REMARK    1  A    between atoms: C_5  and  C_6
REMARK                            x       y       z     vdW  Elec       q    Type
REMARK                         _______ _______ _______ _____ _____    ______ ____
ROOT
ATOM      1  C   UNL     1       1.502   8.160  20.014  0.00  0.00    +0.000 A 
ATOM      2  C   UNL     1       2.111   8.585  18.814  0.00  0.00    +0.000 A 
ATOM      3  C   UNL     1       2.751   7.667  17.975  0.00  0.00    +0.000 A 
ATOM      4  C   UNL     1       2.751   6.347  18.367  0.00  0.00    +0.000 A 
ATOM      5  C   UNL     1       2.155   5.910  19.551  0.00  0.00    +0.000 A 
ATOM      6  C   UNL     1       1.533   6.813  20.397  0.00  0.00    +0.000 A 
ATOM      7  C   UNL     1       2.334   4.418  19.680  0.00  0.00    +0.000 C 
ATOM      8  C   UNL     1       1.006   3.649  19.706  0.00  0.00    +0.000 C 
ATOM      9  C   UNL     1       1.277   2.462  20.621  0.00  0.00    +0.000 C 
ATOM     10  C   UNL     1       2.194   3.037  21.686  0.00  0.00    +0.000 C 
ATOM     11  C   UNL     1       3.117   3.991  20.932  0.00  0.00    +0.000 C 
ATOM     12  C   UNL     1       3.128   4.087  18.389  0.00  0.00    +0.000 C 
ATOM     13  O   UNL     1       3.518   2.988  18.022  0.00  0.00    +0.000 OA
ATOM     14  N   UNL     1       3.318   5.276  17.699  0.00  0.00    +0.000 N 
ATOM     15  H   UNL     1       3.813   5.320  16.822  0.00  0.00    +0.000 HD
ENDROOT
BRANCH   1  20
ATOM     16  O   UNL     1      -1.064  11.685  23.380  0.00  0.00    +0.000 OA
ATOM     17  C   UNL     1      -0.549  10.924  22.562  0.00  0.00    +0.000 C 
ATOM     18  C   UNL     1      -0.607  11.192  21.086  0.00  0.00    +0.000 C 
ATOM     19  C   UNL     1       0.487  10.493  20.316  0.00  0.00    +0.000 C 
ATOM     20  C   UNL     1       0.831   9.147  20.903  0.00  0.00    +0.000 C 
ATOM     21  N   UNL     1       0.616   8.830  22.142  0.00  0.00    +0.000 NA
ATOM     22  N   UNL     1       0.030   9.749  22.948  0.00  0.00    +0.000 N 
ATOM     23  H   UNL     1      -0.002   9.524  23.938  0.00  0.00    +0.000 HD
ENDBRANCH   1  20
TORSDOF 1
ENDMDL
MODEL 6
REMARK VINA RESULT:      -7.8      1.751      6.760
REMARK  Name = 
REMARK  1 active torsions:
REMARK  status: ('A' for Active; 'I' for Inactive)
REMARK    1  A    between atoms: C_5  and  C_6
REMARK                            x       y       z     vdW  Elec       q    Type
REMARK                         _______ _______ _______ _____ _____    ______ ____
ROOT
ATOM      1  C   UNL     1       2.929   6.284  19.243  0.00  0.00    +0.000 A 
ATOM      2  C   UNL     1       3.175   6.872  17.984  0.00  0.00    +0.000 A 
ATOM      3  C   UNL     1       2.642   8.126  17.668  0.00  0.00    +0.000 A 
ATOM      4  C   UNL     1       1.884   8.752  18.632  0.00  0.00    +0.000 A 
ATOM      5  C   UNL     1       1.630   8.183  19.881  0.00  0.00    +0.000 A 
ATOM      6  C   UNL     1       2.139   6.935  20.199  0.00  0.00    +0.000 A 
ATOM      7  C   UNL     1       0.773   9.121  20.694  0.00  0.00    +0.000 C 
ATOM      8  C   UNL     1       1.456   9.604  21.980  0.00  0.00    +0.000 C 
ATOM      9  C   UNL     1       0.314   9.765  22.974  0.00  0.00    +0.000 C 
ATOM     10  C   UNL     1      -0.619   8.618  22.632  0.00  0.00    +0.000 C 
ATOM     11  C   UNL     1      -0.581   8.525  21.109  0.00  0.00    +0.000 C 
ATOM     12  C   UNL     1       0.581  10.302  19.704  0.00  0.00    +0.000 C 
ATOM     13  O   UNL     1      -0.048  11.332  19.897  0.00  0.00    +0.000 OA
ATOM     14  N   UNL     1       1.265   9.986  18.539  0.00  0.00    +0.000 N 
ATOM     15  H   UNL     1       1.287  10.601  17.740  0.00  0.00    +0.000 HD
ENDROOT
BRANCH   1  20
ATOM     16  O   UNL     1       5.085   1.323  20.285  0.00  0.00    +0.000 OA
ATOM     17  C   UNL     1       4.521   2.390  20.044  0.00  0.00    +0.000 C 
ATOM     18  C   UNL     1       3.065   2.599  20.339  0.00  0.00    +0.000 C 
ATOM     19  C   UNL     1       2.697   4.056  20.488  0.00  0.00    +0.000 C 
ATOM     20  C   UNL     1       3.495   4.945  19.566  0.00  0.00    +0.000 C 
ATOM     21  N   UNL     1       4.656   4.623  19.089  0.00  0.00    +0.000 NA
ATOM     22  N   UNL     1       5.172   3.413  19.415  0.00  0.00    +0.000 N 
ATOM     23  H   UNL     1       6.135   3.245  19.138  0.00  0.00    +0.000 HD
ENDBRANCH   1  20
TORSDOF 1
ENDMDL
MODEL 7
REMARK VINA RESULT:      -7.6      1.715      3.145
REMARK  Name = 
REMARK  1 active torsions:
REMARK  status: ('A' for Active; 'I' for Inactive)
REMARK    1  A    between atoms: C_5  and  C_6
REMARK                            x       y       z     vdW  Elec       q    Type
REMARK                         _______ _______ _______ _____ _____    ______ ____
ROOT
ATOM      1  C   UNL     1       2.101   7.258  19.628  0.00  0.00    +0.000 A 
ATOM      2  C   UNL     1       1.407   6.542  20.626  0.00  0.00    +0.000 A 
ATOM      3  C   UNL     1       1.757   5.223  20.930  0.00  0.00    +0.000 A 
ATOM      4  C   UNL     1       2.800   4.668  20.224  0.00  0.00    +0.000 A 
ATOM      5  C   UNL     1       3.496   5.362  19.233  0.00  0.00    +0.000 A 
ATOM      6  C   UNL     1       3.148   6.663  18.913  0.00  0.00    +0.000 A 
ATOM      7  C   UNL     1       4.572   4.472  18.660  0.00  0.00    +0.000 C 
ATOM      8  C   UNL     1       5.989   5.021  18.872  0.00  0.00    +0.000 C 
ATOM      9  C   UNL     1       6.757   4.565  17.639  0.00  0.00    +0.000 C 
ATOM     10  C   UNL     1       5.732   4.669  16.524  0.00  0.00    +0.000 C 
ATOM     11  C   UNL     1       4.422   4.204  17.155  0.00  0.00    +0.000 C 
ATOM     12  C   UNL     1       4.367   3.170  19.480  0.00  0.00    +0.000 C 
ATOM     13  O   UNL     1       5.006   2.132  19.390  0.00  0.00    +0.000 OA
ATOM     14  N   UNL     1       3.314   3.390  20.358  0.00  0.00    +0.000 N 
ATOM     15  H   UNL     1       2.988   2.684  20.999  0.00  0.00    +0.000 HD
ENDROOT
BRANCH   1  20
ATOM     16  O   UNL     1       0.827  12.470  18.375  0.00  0.00    +0.000 OA
ATOM     17  C   UNL     1       1.121  11.332  18.743  0.00  0.00    +0.000 C 
ATOM     18  C   UNL     1       0.881  10.869  20.150  0.00  0.00    +0.000 C 
ATOM     19  C   UNL     1       0.793   9.366  20.269  0.00  0.00    +0.000 C 
ATOM     20  C   UNL     1       1.716   8.660  19.307  0.00  0.00    +0.000 C 
ATOM     21  N   UNL     1       2.143   9.191  18.205  0.00  0.00    +0.000 NA
ATOM     22  N   UNL     1       1.761  10.458  17.911  0.00  0.00    +0.000 N 
ATOM     23  H   UNL     1       2.000  10.797  16.983  0.00  0.00    +0.000 HD
ENDBRANCH   1  20
TORSDOF 1
ENDMDL
MODEL 8
REMARK VINA RESULT:      -7.4      3.872      6.307
REMARK  Name = 
REMARK  1 active torsions:
REMARK  status: ('A' for Active; 'I' for Inactive)
REMARK    1  A    between atoms: C_5  and  C_6
REMARK                            x       y       z     vdW  Elec       q    Type
REMARK                         _______ _______ _______ _____ _____    ______ ____
ROOT
ATOM      1  C   UNL     1       5.983   4.928  16.233  0.00  0.00    +0.000 A 
ATOM      2  C   UNL     1       6.799   5.626  17.150  0.00  0.00    +0.000 A 
ATOM      3  C   UNL     1       6.367   5.848  18.461  0.00  0.00    +0.000 A 
ATOM      4  C   UNL     1       5.131   5.354  18.812  0.00  0.00    +0.000 A 
ATOM      5  C   UNL     1       4.312   4.664  17.917  0.00  0.00    +0.000 A 
ATOM      6  C   UNL     1       4.722   4.452  16.611  0.00  0.00    +0.000 A 
ATOM      7  C   UNL     1       3.035   4.263  18.615  0.00  0.00    +0.000 C 
ATOM      8  C   UNL     1       2.832   2.743  18.679  0.00  0.00    +0.000 C 
ATOM      9  C   UNL     1       1.323   2.562  18.591  0.00  0.00    +0.000 C 
ATOM     10  C   UNL     1       0.890   3.653  17.628  0.00  0.00    +0.000 C 
ATOM     11  C   UNL     1       1.767   4.852  17.978  0.00  0.00    +0.000 C 
ATOM     12  C   UNL     1       3.263   4.841  20.037  0.00  0.00    +0.000 C 
ATOM     13  O   UNL     1       2.504   4.775  20.992  0.00  0.00    +0.000 OA
ATOM     14  N   UNL     1       4.509   5.454  20.044  0.00  0.00    +0.000 N 
ATOM     15  H   UNL     1       4.884   5.909  20.861  0.00  0.00    +0.000 HD
ENDROOT
BRANCH   1  20
ATOM     16  O   UNL     1       7.717   4.265  11.046  0.00  0.00    +0.000 OA
ATOM     17  C   UNL     1       7.244   4.392  12.175  0.00  0.00    +0.000 C 
ATOM     18  C   UNL     1       5.992   3.681  12.595  0.00  0.00    +0.000 C 
ATOM     19  C   UNL     1       5.874   3.525  14.092  0.00  0.00    +0.000 C 
ATOM     20  C   UNL     1       6.449   4.704  14.837  0.00  0.00    +0.000 C 
ATOM     21  N   UNL     1       7.354   5.491  14.344  0.00  0.00    +0.000 NA
ATOM     22  N   UNL     1       7.789   5.258  13.082  0.00  0.00    +0.000 N 
ATOM     23  H   UNL     1       8.589   5.804  12.773  0.00  0.00    +0.000 HD
ENDBRANCH   1  20
TORSDOF 1
ENDMDL
MODEL 9
REMARK VINA RESULT:      -7.4      2.455      4.164
REMARK  Name = 
REMARK  1 active torsions:
REMARK  status: ('A' for Active; 'I' for Inactive)
REMARK    1  A    between atoms: C_5  and  C_6
REMARK                            x       y       z     vdW  Elec       q    Type
REMARK                         _______ _______ _______ _____ _____    ______ ____
ROOT
ATOM      1  C   UNL     1       2.825   6.591  18.685  0.00  0.00    +0.000 A 
ATOM      2  C   UNL     1       2.294   5.438  18.068  0.00  0.00    +0.000 A 
ATOM      3  C   UNL     1       3.137   4.513  17.443  0.00  0.00    +0.000 A 
ATOM      4  C   UNL     1       4.488   4.773  17.467  0.00  0.00    +0.000 A 
ATOM      5  C   UNL     1       5.029   5.909  18.072  0.00  0.00    +0.000 A 
ATOM      6  C   UNL     1       4.203   6.840  18.678  0.00  0.00    +0.000 A 
ATOM      7  C   UNL     1       6.530   5.891  17.919  0.00  0.00    +0.000 C 
ATOM      8  C   UNL     1       7.274   5.842  19.260  0.00  0.00    +0.000 C 
ATOM      9  C   UNL     1       8.549   6.635  19.011  0.00  0.00    +0.000 C 
ATOM     10  C   UNL     1       8.098   7.751  18.086  0.00  0.00    +0.000 C 
ATOM     11  C   UNL     1       7.091   7.094  17.146  0.00  0.00    +0.000 C 
ATOM     12  C   UNL     1       6.746   4.572  17.130  0.00  0.00    +0.000 C 
ATOM     13  O   UNL     1       7.810   4.099  16.758  0.00  0.00    +0.000 OA
ATOM     14  N   UNL     1       5.498   4.002  16.918  0.00  0.00    +0.000 N 
ATOM     15  H   UNL     1       5.376   3.134  16.421  0.00  0.00    +0.000 HD
ENDROOT
BRANCH   1  20
ATOM     16  O   UNL     1      -0.442  10.352  21.038  0.00  0.00    +0.000 OA
ATOM     17  C   UNL     1       0.328   9.501  20.594  0.00  0.00    +0.000 C 
ATOM     18  C   UNL     1       0.946   8.455  21.476  0.00  0.00    +0.000 C 
ATOM     19  C   UNL     1       1.397   7.233  20.714  0.00  0.00    +0.000 C 
ATOM     20  C   UNL     1       1.918   7.573  19.340  0.00  0.00    +0.000 C 
ATOM     21  N   UNL     1       1.579   8.644  18.692  0.00  0.00    +0.000 NA
ATOM     22  N   UNL     1       0.731   9.516  19.288  0.00  0.00    +0.000 N 
ATOM     23  H   UNL     1       0.380  10.272  18.708  0.00  0.00    +0.000 HD
ENDBRANCH   1  20
TORSDOF 1
ENDMDL
