MODEL 1
REMARK VINA RESULT:      -6.5      0.000      0.000
REMARK  Name = 
REMARK  4 active torsions:
REMARK  status: ('A' for Active; 'I' for Inactive)
REMARK    1  A    between atoms: C_1  and  C_2
REMARK    2  A    between atoms: N_8  and  C_9
REMARK    3  A    between atoms: C_9  and  C_10
REMARK    4  A    between atoms: C_13  and  C_14
REMARK                            x       y       z     vdW  Elec       q    Type
REMARK                         _______ _______ _______ _____ _____    ______ ____
ROOT
ATOM      1  C   UNL     1       0.973  10.098  20.049  0.00  0.00    +0.000 C 
ATOM      2  C   UNL     1       1.142   8.660  20.462  0.00  0.00    +0.000 C 
ATOM      3  O   UNL     1       0.563   8.233  21.456  0.00  0.00    +0.000 OA
ATOM      4  N   UNL     1       1.994   7.967  19.634  0.00  0.00    +0.000 N 
ATOM      5  C   UNL     1       2.307   6.649  19.810  0.00  0.00    +0.000 A 
ATOM      6  N   UNL     1       1.607   5.808  20.624  0.00  0.00    +0.000 NA
ATOM      7  C   UNL     1       2.265   4.680  20.552  0.00  0.00    +0.000 A 
ATOM      8  N   UNL     1       3.331   4.838  19.726  0.00  0.00    +0.000 N 
ATOM      9  N   UNL     1       3.350   6.081  19.192  0.00  0.00    +0.000 NA
ATOM     10  H   UNL     1       2.553   8.439  18.941  0.00  0.00    +0.000 HD
ENDROOT
BRANCH   8  11
ATOM     11  C   UNL     1       4.418   3.896  19.517  0.00  0.00    +0.000 C 
BRANCH  11  12
ATOM     12  C   UNL     1       5.158   4.163  18.228  0.00  0.00    +0.000 A 
ATOM     13  C   UNL     1       6.458   4.692  18.253  0.00  0.00    +0.000 A 
ATOM     14  C   UNL     1       7.129   4.987  17.064  0.00  0.00    +0.000 A 
ATOM     15  C   UNL     1       6.517   4.738  15.833  0.00  0.00    +0.000 A 
ATOM     16  C   UNL     1       5.240   4.173  15.797  0.00  0.00    +0.000 A 
ATOM     17  C   UNL     1       4.566   3.883  16.988  0.00  0.00    +0.000 A 
BRANCH  15  18
ATOM     18  C   UNL     1       7.191   5.079  14.613  0.00  0.00    +0.000 C 
ATOM     19  N   UNL     1       7.743   5.348  13.632  0.00  0.00    +0.000 NA
ENDBRANCH  15  18
ENDBRANCH  11  12
ENDBRANCH   8  11
TORSDOF 3
ENDMDL
MODEL 2
REMARK VINA RESULT:      -6.3      3.378      7.317
REMARK  Name = 
REMARK  4 active torsions:
REMARK  status: ('A' for Active; 'I' for Inactive)
REMARK    1  A    between atoms: C_1  and  C_2
REMARK    2  A    between atoms: N_8  and  C_9
REMARK    3  A    between atoms: C_9  and  C_10
REMARK    4  A    between atoms: C_13  and  C_14
REMARK                            x       y       z     vdW  Elec       q    Type
REMARK                         _______ _______ _______ _____ _____    ______ ____
ROOT
ATOM      1  C   UNL     1       6.986   3.974  12.555  0.00  0.00    +0.000 C 
ATOM      2  C   UNL     1       6.934   4.820  13.799  0.00  0.00    +0.000 C 
ATOM      3  O   UNL     1       7.914   5.476  14.138  0.00  0.00    +0.000 OA
ATOM      4  N   UNL     1       5.727   4.731  14.452  0.00  0.00    +0.000 N 
ATOM      5  C   UNL     1       5.445   5.404  15.608  0.00  0.00    +0.000 A 
ATOM      6  N   UNL     1       6.193   6.444  16.078  0.00  0.00    +0.000 NA
ATOM      7  C   UNL     1       5.623   6.751  17.215  0.00  0.00    +0.000 A 
ATOM      8  N   UNL     1       4.571   5.920  17.425  0.00  0.00    +0.000 N 
ATOM      9  N   UNL     1       4.401   5.079  16.380  0.00  0.00    +0.000 NA
ATOM     10  H   UNL     1       5.040   4.041  14.194  0.00  0.00    +0.000 HD
ENDROOT
BRANCH   8  11
ATOM     11  C   UNL     1       3.788   5.797  18.644  0.00  0.00    +0.000 C 
BRANCH  11  12
ATOM     12  C   UNL     1       2.840   6.958  18.827  0.00  0.00    +0.000 A 
ATOM     13  C   UNL     1       2.590   7.844  17.767  0.00  0.00    +0.000 A 
ATOM     14  C   UNL     1       1.753   8.948  17.944  0.00  0.00    +0.000 A 
ATOM     15  C   UNL     1       1.138   9.170  19.178  0.00  0.00    +0.000 A 
ATOM     16  C   UNL     1       1.347   8.271  20.227  0.00  0.00    +0.000 A 
ATOM     17  C   UNL     1       2.190   7.169  20.052  0.00  0.00    +0.000 A 
BRANCH  15  18
ATOM     18  C   UNL     1       0.310  10.326  19.372  0.00  0.00    +0.000 C 
ATOM     19  N   UNL     1      -0.367  11.252  19.524  0.00  0.00    +0.000 NA
ENDBRANCH  15  18
ENDBRANCH  11  12
ENDBRANCH   8  11
TORSDOF 3
ENDMDL
MODEL 3
REMARK VINA RESULT:      -6.3      0.277      1.170
REMARK  Name = 
REMARK  4 active torsions:
REMARK  status: ('A' for Active; 'I' for Inactive)
REMARK    1  A    between atoms: C_1  and  C_2
REMARK    2  A    between atoms: N_8  and  C_9
REMARK    3  A    between atoms: C_9  and  C_10
REMARK    4  A    between atoms: C_13  and  C_14
REMARK                            x       y       z     vdW  Elec       q    Type
REMARK                         _______ _______ _______ _____ _____    ______ ____
ROOT
ATOM      1  C   UNL     1       0.855   9.898  20.144  0.00  0.00    +0.000 C 
ATOM      2  C   UNL     1       1.154   8.479  20.550  0.00  0.00    +0.000 C 
ATOM      3  O   UNL     1       0.693   8.028  21.594  0.00  0.00    +0.000 OA
ATOM      4  N   UNL     1       1.974   7.832  19.655  0.00  0.00    +0.000 N 
ATOM      5  C   UNL     1       2.388   6.540  19.812  0.00  0.00    +0.000 A 
ATOM      6  N   UNL     1       1.818   5.665  20.690  0.00  0.00    +0.000 NA
ATOM      7  C   UNL     1       2.541   4.582  20.568  0.00  0.00    +0.000 A 
ATOM      8  N   UNL     1       3.518   4.799  19.651  0.00  0.00    +0.000 N 
ATOM      9  N   UNL     1       3.408   6.033  19.109  0.00  0.00    +0.000 NA
ATOM     10  H   UNL     1       2.438   8.331  18.913  0.00  0.00    +0.000 HD
ENDROOT
BRANCH   8  11
ATOM     11  C   UNL     1       4.642   3.927  19.354  0.00  0.00    +0.000 C 
BRANCH  11  12
ATOM     12  C   UNL     1       5.272   4.250  18.019  0.00  0.00    +0.000 A 
ATOM     13  C   UNL     1       4.568   4.015  16.828  0.00  0.00    +0.000 A 
ATOM     14  C   UNL     1       5.162   4.265  15.589  0.00  0.00    +0.000 A 
ATOM     15  C   UNL     1       6.462   4.774  15.525  0.00  0.00    +0.000 A 
ATOM     16  C   UNL     1       7.156   5.051  16.706  0.00  0.00    +0.000 A 
ATOM     17  C   UNL     1       6.562   4.794  17.946  0.00  0.00    +0.000 A 
BRANCH  15  18
ATOM     18  C   UNL     1       7.087   4.993  14.253  0.00  0.00    +0.000 C 
ATOM     19  N   UNL     1       7.602   5.172  13.231  0.00  0.00    +0.000 NA
ENDBRANCH  15  18
ENDBRANCH  11  12
ENDBRANCH   8  11
TORSDOF 3
ENDMDL
MODEL 4
REMARK VINA RESULT:      -6.3      3.370      4.576
REMARK  Name = 
REMARK  4 active torsions:
REMARK  status: ('A' for Active; 'I' for Inactive)
REMARK    1  A    between atoms: C_1  and  C_2
REMARK    2  A    between atoms: N_8  and  C_9
REMARK    3  A    between atoms: C_9  and  C_10
REMARK    4  A    between atoms: C_13  and  C_14
REMARK                            x       y       z     vdW  Elec       q    Type
REMARK                         _______ _______ _______ _____ _____    ______ ____
ROOT
ATOM      1  C   UNL     1       1.273   2.508  21.942  0.00  0.00    +0.000 C 
ATOM      2  C   UNL     1       1.672   2.896  20.543  0.00  0.00    +0.000 C 
ATOM      3  O   UNL     1       0.895   2.717  19.610  0.00  0.00    +0.000 OA
ATOM      4  N   UNL     1       2.943   3.416  20.479  0.00  0.00    +0.000 N 
ATOM      5  C   UNL     1       3.527   3.835  19.317  0.00  0.00    +0.000 A 
ATOM      6  N   UNL     1       2.837   4.058  18.162  0.00  0.00    +0.000 NA
ATOM      7  C   UNL     1       3.765   4.379  17.297  0.00  0.00    +0.000 A 
ATOM      8  N   UNL     1       4.975   4.343  17.910  0.00  0.00    +0.000 N 
ATOM      9  N   UNL     1       4.845   4.049  19.224  0.00  0.00    +0.000 NA
ATOM     10  H   UNL     1       3.569   3.373  21.267  0.00  0.00    +0.000 HD
ENDROOT
BRANCH   8  11
ATOM     11  C   UNL     1       6.278   4.450  17.273  0.00  0.00    +0.000 C 
BRANCH  11  12
ATOM     12  C   UNL     1       6.968   5.750  17.610  0.00  0.00    +0.000 A 
ATOM     13  C   UNL     1       7.819   5.833  18.724  0.00  0.00    +0.000 A 
ATOM     14  C   UNL     1       8.421   7.045  19.070  0.00  0.00    +0.000 A 
ATOM     15  C   UNL     1       8.198   8.186  18.294  0.00  0.00    +0.000 A 
ATOM     16  C   UNL     1       7.387   8.103  17.160  0.00  0.00    +0.000 A 
ATOM     17  C   UNL     1       6.779   6.891  16.817  0.00  0.00    +0.000 A 
BRANCH  15  18
ATOM     18  C   UNL     1       8.785   9.439  18.673  0.00  0.00    +0.000 C 
ATOM     19  N   UNL     1       9.264  10.445  18.988  0.00  0.00    +0.000 NA
ENDBRANCH  15  18
ENDBRANCH  11  12
ENDBRANCH   8  11
TORSDOF 3
ENDMDL
MODEL 5
REMARK VINA RESULT:      -6.3      3.456      4.844
REMARK  Name = 
REMARK  4 active torsions:
REMARK  status: ('A' for Active; 'I' for Inactive)
REMARK    1  A    between atoms: C_1  and  C_2
REMARK    2  A    between atoms: N_8  and  C_9
REMARK    3  A    between atoms: C_9  and  C_10
REMARK    4  A    between atoms: C_13  and  C_14
REMARK                            x       y       z     vdW  Elec       q    Type
REMARK                         _______ _______ _______ _____ _____    ______ ____
ROOT
ATOM      1  C   UNL     1       1.120   2.693  21.296  0.00  0.00    +0.000 C 
ATOM      2  C   UNL     1       1.787   2.844  19.955  0.00  0.00    +0.000 C 
ATOM      3  O   UNL     1       1.278   2.347  18.956  0.00  0.00    +0.000 OA
ATOM      4  N   UNL     1       2.967   3.547  20.026  0.00  0.00    +0.000 N 
ATOM      5  C   UNL     1       3.754   3.807  18.940  0.00  0.00    +0.000 A 
ATOM      6  N   UNL     1       3.332   3.667  17.650  0.00  0.00    +0.000 NA
ATOM      7  C   UNL     1       4.392   3.953  16.939  0.00  0.00    +0.000 A 
ATOM      8  N   UNL     1       5.421   4.250  17.774  0.00  0.00    +0.000 N 
ATOM      9  N   UNL     1       5.022   4.217  19.066  0.00  0.00    +0.000 NA
ATOM     10  H   UNL     1       3.391   3.774  20.911  0.00  0.00    +0.000 HD
ENDROOT
BRANCH   8  11
ATOM     11  C   UNL     1       6.814   4.441  17.406  0.00  0.00    +0.000 C 
BRANCH  11  12
ATOM     12  C   UNL     1       7.303   5.830  17.740  0.00  0.00    +0.000 A 
ATOM     13  C   UNL     1       7.033   6.904  16.877  0.00  0.00    +0.000 A 
ATOM     14  C   UNL     1       7.524   8.181  17.156  0.00  0.00    +0.000 A 
ATOM     15  C   UNL     1       8.276   8.407  18.312  0.00  0.00    +0.000 A 
ATOM     16  C   UNL     1       8.515   7.353  19.198  0.00  0.00    +0.000 A 
ATOM     17  C   UNL     1       8.028   6.073  18.916  0.00  0.00    +0.000 A 
BRANCH  15  18
ATOM     18  C   UNL     1       8.814   9.710  18.577  0.00  0.00    +0.000 C 
ATOM     19  N   UNL     1       9.238  10.766  18.790  0.00  0.00    +0.000 NA
ENDBRANCH  15  18
ENDBRANCH  11  12
ENDBRANCH   8  11
TORSDOF 3
ENDMDL
MODEL 6
REMARK VINA RESULT:      -6.2      4.330      6.022
REMARK  Name = 
REMARK  4 active torsions:
REMARK  status: ('A' for Active; 'I' for Inactive)
REMARK    1  A    between atoms: C_1  and  C_2
REMARK    2  A    between atoms: N_8  and  C_9
REMARK    3  A    between atoms: C_9  and  C_10
REMARK    4  A    between atoms: C_13  and  C_14
REMARK                            x       y       z     vdW  Elec       q    Type
REMARK                         _______ _______ _______ _____ _____    ______ ____
ROOT
ATOM      1  C   UNL     1       9.128  12.058  18.108  0.00  0.00    +0.000 C 
ATOM      2  C   UNL     1       9.092  10.588  18.432  0.00  0.00    +0.000 C 
ATOM      3  O   UNL     1       9.878  10.119  19.249  0.00  0.00    +0.000 OA
ATOM      4  N   UNL     1       8.138   9.909  17.711  0.00  0.00    +0.000 N 
ATOM      5  C   UNL     1       7.921   8.565  17.830  0.00  0.00    +0.000 A 
ATOM      6  N   UNL     1       8.403   7.809  18.857  0.00  0.00    +0.000 NA
ATOM      7  C   UNL     1       8.025   6.593  18.558  0.00  0.00    +0.000 A 
ATOM      8  N   UNL     1       7.343   6.615  17.384  0.00  0.00    +0.000 N 
ATOM      9  N   UNL     1       7.214   7.880  16.922  0.00  0.00    +0.000 NA
ATOM     10  H   UNL     1       7.651  10.343  16.943  0.00  0.00    +0.000 HD
ENDROOT
BRANCH   8  11
ATOM     11  C   UNL     1       6.914   5.466  16.605  0.00  0.00    +0.000 C 
BRANCH  11  12
ATOM     12  C   UNL     1       5.551   4.971  17.029  0.00  0.00    +0.000 A 
ATOM     13  C   UNL     1       4.724   5.773  17.831  0.00  0.00    +0.000 A 
ATOM     14  C   UNL     1       3.483   5.302  18.268  0.00  0.00    +0.000 A 
ATOM     15  C   UNL     1       3.044   4.030  17.890  0.00  0.00    +0.000 A 
ATOM     16  C   UNL     1       3.842   3.241  17.058  0.00  0.00    +0.000 A 
ATOM     17  C   UNL     1       5.087   3.711  16.626  0.00  0.00    +0.000 A 
BRANCH  15  18
ATOM     18  C   UNL     1       1.788   3.531  18.372  0.00  0.00    +0.000 C 
ATOM     19  N   UNL     1       0.776   3.135  18.770  0.00  0.00    +0.000 NA
ENDBRANCH  15  18
ENDBRANCH  11  12
ENDBRANCH   8  11
TORSDOF 3
ENDMDL
MODEL 7
REMARK VINA RESULT:      -6.2      3.193      4.124
REMARK  Name = 
REMARK  4 active torsions:
REMARK  status: ('A' for Active; 'I' for Inactive)
REMARK    1  A    between atoms: C_1  and  C_2
REMARK    2  A    between atoms: N_8  and  C_9
REMARK    3  A    between atoms: C_9  and  C_10
REMARK    4  A    between atoms: C_13  and  C_14
REMARK                            x       y       z     vdW  Elec       q    Type
REMARK                         _______ _______ _______ _____ _____    ______ ____
ROOT
ATOM      1  C   UNL     1      -1.509  12.114  22.637  0.00  0.00    +0.000 C 
ATOM      2  C   UNL     1      -0.633  10.903  22.460  0.00  0.00    +0.000 C 
ATOM      3  O   UNL     1      -0.200  10.308  23.442  0.00  0.00    +0.000 OA
ATOM      4  N   UNL     1      -0.397  10.607  21.138  0.00  0.00    +0.000 N 
ATOM      5  C   UNL     1       0.373   9.556  20.728  0.00  0.00    +0.000 A 
ATOM      6  N   UNL     1       0.746   8.529  21.544  0.00  0.00    +0.000 NA
ATOM      7  C   UNL     1       1.512   7.787  20.786  0.00  0.00    +0.000 A 
ATOM      8  N   UNL     1       1.602   8.352  19.555  0.00  0.00    +0.000 N 
ATOM      9  N   UNL     1       0.835   9.463  19.474  0.00  0.00    +0.000 NA
ATOM     10  H   UNL     1      -0.656  11.245  20.402  0.00  0.00    +0.000 HD
ENDROOT
BRANCH   8  11
ATOM     11  C   UNL     1       2.494   7.956  18.478  0.00  0.00    +0.000 C 
BRANCH  11  12
ATOM     12  C   UNL     1       2.728   6.464  18.457  0.00  0.00    +0.000 A 
ATOM     13  C   UNL     1       3.924   5.926  18.958  0.00  0.00    +0.000 A 
ATOM     14  C   UNL     1       4.167   4.552  18.896  0.00  0.00    +0.000 A 
ATOM     15  C   UNL     1       3.208   3.694  18.351  0.00  0.00    +0.000 A 
ATOM     16  C   UNL     1       1.997   4.215  17.889  0.00  0.00    +0.000 A 
ATOM     17  C   UNL     1       1.757   5.591  17.944  0.00  0.00    +0.000 A 
BRANCH  15  18
ATOM     18  C   UNL     1       3.475   2.288  18.251  0.00  0.00    +0.000 C 
ATOM     19  N   UNL     1       3.694   1.153  18.182  0.00  0.00    +0.000 NA
ENDBRANCH  15  18
ENDBRANCH  11  12
ENDBRANCH   8  11
TORSDOF 3
ENDMDL
MODEL 8
REMARK VINA RESULT:      -6.1      3.904      7.097
REMARK  Name = 
REMARK  4 active torsions:
REMARK  status: ('A' for Active; 'I' for Inactive)
REMARK    1  A    between atoms: C_1  and  C_2
REMARK    2  A    between atoms: N_8  and  C_9
REMARK    3  A    between atoms: C_9  and  C_10
REMARK    4  A    between atoms: C_13  and  C_14
REMARK                            x       y       z     vdW  Elec       q    Type
REMARK                         _______ _______ _______ _____ _____    ______ ____
ROOT
ATOM      1  C   UNL     1       4.494   3.128  11.607  0.00  0.00    +0.000 C 
ATOM      2  C   UNL     1       5.519   3.577  12.613  0.00  0.00    +0.000 C 
ATOM      3  O   UNL     1       6.686   3.213  12.506  0.00  0.00    +0.000 OA
ATOM      4  N   UNL     1       4.983   4.371  13.600  0.00  0.00    +0.000 N 
ATOM      5  C   UNL     1       5.717   4.894  14.626  0.00  0.00    +0.000 A 
ATOM      6  N   UNL     1       7.080   4.939  14.634  0.00  0.00    +0.000 NA
ATOM      7  C   UNL     1       7.371   5.449  15.803  0.00  0.00    +0.000 A 
ATOM      8  N   UNL     1       6.221   5.698  16.479  0.00  0.00    +0.000 N 
ATOM      9  N   UNL     1       5.140   5.401  15.723  0.00  0.00    +0.000 NA
ATOM     10  H   UNL     1       3.987   4.482  13.702  0.00  0.00    +0.000 HD
ENDROOT
BRANCH   8  11
ATOM     11  C   UNL     1       6.098   6.089  17.874  0.00  0.00    +0.000 C 
BRANCH  11  12
ATOM     12  C   UNL     1       5.015   5.313  18.585  0.00  0.00    +0.000 A 
ATOM     13  C   UNL     1       3.802   5.934  18.923  0.00  0.00    +0.000 A 
ATOM     14  C   UNL     1       2.816   5.236  19.624  0.00  0.00    +0.000 A 
ATOM     15  C   UNL     1       3.021   3.900  19.979  0.00  0.00    +0.000 A 
ATOM     16  C   UNL     1       4.207   3.260  19.611  0.00  0.00    +0.000 A 
ATOM     17  C   UNL     1       5.197   3.961  18.915  0.00  0.00    +0.000 A 
BRANCH  15  18
ATOM     18  C   UNL     1       2.025   3.196  20.734  0.00  0.00    +0.000 C 
ATOM     19  N   UNL     1       1.213   2.637  21.341  0.00  0.00    +0.000 NA
ENDBRANCH  15  18
ENDBRANCH  11  12
ENDBRANCH   8  11
TORSDOF 3
ENDMDL
MODEL 9
REMARK VINA RESULT:      -6.1      7.404     10.797
REMARK  Name = 
REMARK  4 active torsions:
REMARK  status: ('A' for Active; 'I' for Inactive)
REMARK    1  A    between atoms: C_1  and  C_2
REMARK    2  A    between atoms: N_8  and  C_9
REMARK    3  A    between atoms: C_9  and  C_10
REMARK    4  A    between atoms: C_13  and  C_14
REMARK                            x       y       z     vdW  Elec       q    Type
REMARK                         _______ _______ _______ _____ _____    ______ ____
ROOT
ATOM      1  C   UNL     1      -7.693  13.496  24.373  0.00  0.00    +0.000 C 
ATOM      2  C   UNL     1      -7.502  12.391  23.369  0.00  0.00    +0.000 C 
ATOM      3  O   UNL     1      -7.524  11.219  23.732  0.00  0.00    +0.000 OA
ATOM      4  N   UNL     1      -7.293  12.863  22.094  0.00  0.00    +0.000 N 
ATOM      5  C   UNL     1      -7.089  12.050  21.015  0.00  0.00    +0.000 A 
ATOM      6  N   UNL     1      -7.355  10.712  21.016  0.00  0.00    +0.000 NA
ATOM      7  C   UNL     1      -6.966  10.313  19.832  0.00  0.00    +0.000 A 
ATOM      8  N   UNL     1      -6.476  11.375  19.143  0.00  0.00    +0.000 N 
ATOM      9  N   UNL     1      -6.593  12.515  19.862  0.00  0.00    +0.000 NA
ATOM     10  H   UNL     1      -7.126  13.840  21.916  0.00  0.00    +0.000 HD
ENDROOT
BRANCH   8  11
ATOM     11  C   UNL     1      -5.774  11.339  17.870  0.00  0.00    +0.000 C 
BRANCH  11  12
ATOM     12  C   UNL     1      -4.298  11.077  18.046  0.00  0.00    +0.000 A 
ATOM     13  C   UNL     1      -3.535  11.871  18.916  0.00  0.00    +0.000 A 
ATOM     14  C   UNL     1      -2.159  11.666  19.046  0.00  0.00    +0.000 A 
ATOM     15  C   UNL     1      -1.531  10.648  18.322  0.00  0.00    +0.000 A 
ATOM     16  C   UNL     1      -2.289   9.825  17.486  0.00  0.00    +0.000 A 
ATOM     17  C   UNL     1      -3.665  10.036  17.351  0.00  0.00    +0.000 A 
BRANCH  15  18
ATOM     18  C   UNL     1      -0.112  10.464  18.425  0.00  0.00    +0.000 C 
ATOM     19  N   UNL     1       1.031  10.305  18.515  0.00  0.00    +0.000 NA
ENDBRANCH  15  18
ENDBRANCH  11  12
ENDBRANCH   8  11
TORSDOF 3
ENDMDL
