MODEL 1
REMARK VINA RESULT:      -8.0      0.000      0.000
REMARK  Name = 
REMARK  12 active torsions:
REMARK  status: ('A' for Active; 'I' for Inactive)
REMARK    1  A    between atoms: C_1  and  C_2
REMARK    2  A    between atoms: C_2  and  N_3
REMARK    3  A    between atoms: N_3  and  C_4
REMARK    4  A    between atoms: C_4  and  C_5
REMARK    5  A    between atoms: N_8  and  C_9
REMARK    6  A    between atoms: N_8  and  C_10
REMARK    7  A    between atoms: C_10  and  C_11
REMARK    8  A    between atoms: C_11  and  O_12
REMARK    9  A    between atoms: C_11  and  C_13
REMARK   10  A    between atoms: C_17  and  O_18
REMARK   11  A    between atoms: O_18  and  C_19
REMARK   12  A    between atoms: C_19  and  C_20
REMARK                            x       y       z     vdW  Elec       q    Type
REMARK                         _______ _______ _______ _____ _____    ______ ____
ROOT
ATOM      1  C   UNL     1       4.162   5.525  17.330  0.00  0.00    +0.000 A 
ATOM      2  C   UNL     1       4.345   4.350  16.614  0.00  0.00    +0.000 A 
ATOM      3  C   UNL     1       5.597   4.032  16.158  0.00  0.00    +0.000 A 
ATOM      4  C   UNL     1       6.606   4.978  16.151  0.00  0.00    +0.000 A 
ATOM      5  C   UNL     1       6.428   6.185  16.806  0.00  0.00    +0.000 A 
ATOM      6  C   UNL     1       5.195   6.440  17.367  0.00  0.00    +0.000 A 
ENDROOT
BRANCH   1   7
ATOM      7  C   UNL     1       2.880   5.837  18.041  0.00  0.00    +0.000 C 
BRANCH   7   8
ATOM      8  O   UNL     1       2.168   4.667  18.428  0.00  0.00    +0.000 OA
ATOM      9  H   UNL     1       1.587   4.968  19.161  0.00  0.00    +0.000 HD
ENDBRANCH   7   8
BRANCH   7  10
ATOM     10  C   UNL     1       3.158   6.706  19.264  0.00  0.00    +0.000 C 
BRANCH  10  14
ATOM     11  N   UNL     1       0.653   9.584  19.586  0.00  0.00    +0.000 N 
ATOM     12  C   UNL     1       1.644   8.750  19.057  0.00  0.00    +0.000 C 
ATOM     13  O   UNL     1       2.199   9.109  18.011  0.00  0.00    +0.000 OA
ATOM     14  N   UNL     1       2.061   7.596  19.753  0.00  0.00    +0.000 N 
ATOM     15  C   UNL     1       1.493   7.080  20.974  0.00  0.00    +0.000 C 
BRANCH  11  17
ATOM     16  C   UNL     1      -1.021  10.901  18.215  0.00  0.00    +0.000 C 
ATOM     17  C   UNL     1       0.325  10.841  18.867  0.00  0.00    +0.000 C 
ENDBRANCH  11  17
BRANCH  11  18
ATOM     18  C   UNL     1      -0.071   9.282  20.795  0.00  0.00    +0.000 C 
ATOM     19  C   UNL     1      -0.178  10.254  21.890  0.00  0.00    +0.000 C 
ENDBRANCH  11  18
ENDBRANCH  10  14
ENDBRANCH   7  10
ENDBRANCH   1   7
BRANCH   5  20
ATOM     20  O   UNL     1       7.499   7.034  16.909  0.00  0.00    +0.000 OA
BRANCH  20  21
ATOM     21  C   UNL     1       7.309   8.330  17.554  0.00  0.00    +0.000 C 
BRANCH  21  22
ATOM     22  C   UNL     1       8.736   9.130  17.999  0.00  0.00    +0.000 A 
ATOM     23  C   UNL     1       8.596  10.361  18.282  0.00  0.00    +0.000 A 
ATOM     24  C   UNL     1       9.851  11.372  18.695  0.00  0.00    +0.000 A 
ATOM     25  C   UNL     1      10.006  12.075  19.851  0.00  0.00    +0.000 A 
ATOM     26  C   UNL     1      10.734  13.288  19.304  0.00  0.00    +0.000 A 
ATOM     27  C   UNL     1      10.912  14.257  20.402  0.00  0.00    +0.000 A 
ATOM     28  C   UNL     1      10.091  14.006  21.453  0.00  0.00    +0.000 A 
ATOM     29  C   UNL     1       9.252  12.468  21.425  0.00  0.00    +0.000 A 
ATOM     30  C   UNL     1       9.431  11.091  20.262  0.00  0.00    +0.000 A 
ATOM     31  N   UNL     1       9.130   9.519  19.356  0.00  0.00    +0.000 NA
ENDBRANCH  21  22
ENDBRANCH  20  21
ENDBRANCH   5  20
TORSDOF 9
ENDMDL
MODEL 2
REMARK VINA RESULT:      -7.9      1.462      2.358
REMARK  Name = 
REMARK  12 active torsions:
REMARK  status: ('A' for Active; 'I' for Inactive)
REMARK    1  A    between atoms: C_1  and  C_2
REMARK    2  A    between atoms: C_2  and  N_3
REMARK    3  A    between atoms: N_3  and  C_4
REMARK    4  A    between atoms: C_4  and  C_5
REMARK    5  A    between atoms: N_8  and  C_9
REMARK    6  A    between atoms: N_8  and  C_10
REMARK    7  A    between atoms: C_10  and  C_11
REMARK    8  A    between atoms: C_11  and  O_12
REMARK    9  A    between atoms: C_11  and  C_13
REMARK   10  A    between atoms: C_17  and  O_18
REMARK   11  A    between atoms: O_18  and  C_19
REMARK   12  A    between atoms: C_19  and  C_20
REMARK                            x       y       z     vdW  Elec       q    Type
REMARK                         _______ _______ _______ _____ _____    ______ ____
ROOT
ATOM      1  C   UNL     1       5.553   5.907  17.889  0.00  0.00    +0.000 A 
ATOM      2  C   UNL     1       6.163   5.141  18.873  0.00  0.00    +0.000 A 
ATOM      3  C   UNL     1       7.356   5.559  19.402  0.00  0.00    +0.000 A 
ATOM      4  C   UNL     1       8.089   6.557  18.786  0.00  0.00    +0.000 A 
ATOM      5  C   UNL     1       7.527   7.297  17.759  0.00  0.00    +0.000 A 
ATOM      6  C   UNL     1       6.271   6.939  17.318  0.00  0.00    +0.000 A 
ENDROOT
BRANCH   1   7
ATOM      7  C   UNL     1       4.156   5.636  17.416  0.00  0.00    +0.000 C 
BRANCH   7   8
ATOM      8  O   UNL     1       4.036   4.383  16.750  0.00  0.00    +0.000 OA
ATOM      9  H   UNL     1       3.377   4.548  16.040  0.00  0.00    +0.000 HD
ENDBRANCH   7   8
BRANCH   7  10
ATOM     10  C   UNL     1       3.185   5.698  18.590  0.00  0.00    +0.000 C 
BRANCH  10  14
ATOM     11  N   UNL     1       1.114   8.464  20.240  0.00  0.00    +0.000 N 
ATOM     12  C   UNL     1       1.781   7.249  20.052  0.00  0.00    +0.000 C 
ATOM     13  O   UNL     1       1.634   6.373  20.914  0.00  0.00    +0.000 OA
ATOM     14  N   UNL     1       2.508   7.002  18.869  0.00  0.00    +0.000 N 
ATOM     15  C   UNL     1       2.746   7.939  17.798  0.00  0.00    +0.000 C 
BRANCH  11  17
ATOM     16  C   UNL     1       0.901   9.385  22.591  0.00  0.00    +0.000 C 
ATOM     17  C   UNL     1       0.279   8.634  21.455  0.00  0.00    +0.000 C 
ENDBRANCH  11  17
BRANCH  11  18
ATOM     18  C   UNL     1       1.203   9.566  19.315  0.00  0.00    +0.000 C 
ATOM     19  C   UNL     1       0.025  10.367  18.960  0.00  0.00    +0.000 C 
ENDBRANCH  11  18
ENDBRANCH  10  14
ENDBRANCH   7  10
ENDBRANCH   1   7
BRANCH   5  20
ATOM     20  O   UNL     1       8.222   8.374  17.276  0.00  0.00    +0.000 OA
BRANCH  20  21
ATOM     21  C   UNL     1       7.982   9.689  17.865  0.00  0.00    +0.000 C 
BRANCH  21  22
ATOM     22  C   UNL     1       9.364  10.491  18.426  0.00  0.00    +0.000 A 
ATOM     23  C   UNL     1       9.206  11.728  18.672  0.00  0.00    +0.000 A 
ATOM     24  C   UNL     1      10.421  12.742  19.182  0.00  0.00    +0.000 A 
ATOM     25  C   UNL     1      10.472  13.466  20.336  0.00  0.00    +0.000 A 
ATOM     26  C   UNL     1      11.254  14.666  19.837  0.00  0.00    +0.000 A 
ATOM     27  C   UNL     1      11.335  15.654  20.929  0.00  0.00    +0.000 A 
ATOM     28  C   UNL     1      10.417  15.425  21.903  0.00  0.00    +0.000 A 
ATOM     29  C   UNL     1       9.577  13.890  21.824  0.00  0.00    +0.000 A 
ATOM     30  C   UNL     1       9.856  12.491  20.708  0.00  0.00    +0.000 A 
ATOM     31  N   UNL     1       9.633  10.904  19.806  0.00  0.00    +0.000 NA
ENDBRANCH  21  22
ENDBRANCH  20  21
ENDBRANCH   5  20
TORSDOF 9
ENDMDL
MODEL 3
REMARK VINA RESULT:      -7.9      3.854      5.000
REMARK  Name = 
REMARK  12 active torsions:
REMARK  status: ('A' for Active; 'I' for Inactive)
REMARK    1  A    between atoms: C_1  and  C_2
REMARK    2  A    between atoms: C_2  and  N_3
REMARK    3  A    between atoms: N_3  and  C_4
REMARK    4  A    between atoms: C_4  and  C_5
REMARK    5  A    between atoms: N_8  and  C_9
REMARK    6  A    between atoms: N_8  and  C_10
REMARK    7  A    between atoms: C_10  and  C_11
REMARK    8  A    between atoms: C_11  and  O_12
REMARK    9  A    between atoms: C_11  and  C_13
REMARK   10  A    between atoms: C_17  and  O_18
REMARK   11  A    between atoms: O_18  and  C_19
REMARK   12  A    between atoms: C_19  and  C_20
REMARK                            x       y       z     vdW  Elec       q    Type
REMARK                         _______ _______ _______ _____ _____    ______ ____
ROOT
ATOM      1  C   UNL     1       6.756   6.187  17.194  0.00  0.00    +0.000 A 
ATOM      2  C   UNL     1       7.417   5.494  18.198  0.00  0.00    +0.000 A 
ATOM      3  C   UNL     1       8.139   6.192  19.130  0.00  0.00    +0.000 A 
ATOM      4  C   UNL     1       8.449   7.524  18.928  0.00  0.00    +0.000 A 
ATOM      5  C   UNL     1       7.850   8.226  17.896  0.00  0.00    +0.000 A 
ATOM      6  C   UNL     1       7.028   7.532  17.034  0.00  0.00    +0.000 A 
ENDROOT
BRANCH   1   7
ATOM      7  C   UNL     1       5.780   5.522  16.271  0.00  0.00    +0.000 C 
BRANCH   7   8
ATOM      8  O   UNL     1       6.212   5.533  14.914  0.00  0.00    +0.000 OA
ATOM      9  H   UNL     1       7.186   5.651  14.971  0.00  0.00    +0.000 HD
ENDBRANCH   7   8
BRANCH   7  10
ATOM     10  C   UNL     1       5.523   4.089  16.725  0.00  0.00    +0.000 C 
BRANCH  10  14
ATOM     11  N   UNL     1       2.975   3.121  19.414  0.00  0.00    +0.000 N 
ATOM     12  C   UNL     1       4.193   3.439  18.804  0.00  0.00    +0.000 C 
ATOM     13  O   UNL     1       5.224   3.303  19.474  0.00  0.00    +0.000 OA
ATOM     14  N   UNL     1       4.243   3.802  17.441  0.00  0.00    +0.000 N 
ATOM     15  C   UNL     1       3.114   3.992  16.563  0.00  0.00    +0.000 C 
BRANCH  11  17
ATOM     16  C   UNL     1       2.220   3.467  21.808  0.00  0.00    +0.000 C 
ATOM     17  C   UNL     1       2.989   2.646  20.820  0.00  0.00    +0.000 C 
ENDBRANCH  11  17
BRANCH  11  18
ATOM     18  C   UNL     1       1.702   3.238  18.747  0.00  0.00    +0.000 C 
ATOM     19  C   UNL     1       0.680   2.190  18.853  0.00  0.00    +0.000 C 
ENDBRANCH  11  18
ENDBRANCH  10  14
ENDBRANCH   7  10
ENDBRANCH   1   7
BRANCH   5  20
ATOM     20  O   UNL     1       8.062   9.578  17.817  0.00  0.00    +0.000 OA
BRANCH  20  21
ATOM     21  C   UNL     1       9.248  10.142  18.458  0.00  0.00    +0.000 C 
BRANCH  21  22
ATOM     22  C   UNL     1       9.119  11.770  18.907  0.00  0.00    +0.000 A 
ATOM     23  C   UNL     1      10.206  12.427  18.868  0.00  0.00    +0.000 A 
ATOM     24  C   UNL     1      10.349  14.024  19.311  0.00  0.00    +0.000 A 
ATOM     25  C   UNL     1      10.770  15.066  18.541  0.00  0.00    +0.000 A 
ATOM     26  C   UNL     1      11.437  15.907  19.612  0.00  0.00    +0.000 A 
ATOM     27  C   UNL     1      12.073  17.069  18.961  0.00  0.00    +0.000 A 
ATOM     28  C   UNL     1      12.226  16.894  17.624  0.00  0.00    +0.000 A 
ATOM     29  C   UNL     1      11.388  15.523  16.926  0.00  0.00    +0.000 A 
ATOM     30  C   UNL     1      10.222  14.378  17.708  0.00  0.00    +0.000 A 
ATOM     31  N   UNL     1       9.132  12.927  18.006  0.00  0.00    +0.000 NA
ENDBRANCH  21  22
ENDBRANCH  20  21
ENDBRANCH   5  20
TORSDOF 9
ENDMDL
MODEL 4
REMARK VINA RESULT:      -7.9      3.462      8.158
REMARK  Name = 
REMARK  12 active torsions:
REMARK  status: ('A' for Active; 'I' for Inactive)
REMARK    1  A    between atoms: C_1  and  C_2
REMARK    2  A    between atoms: C_2  and  N_3
REMARK    3  A    between atoms: N_3  and  C_4
REMARK    4  A    between atoms: C_4  and  C_5
REMARK    5  A    between atoms: N_8  and  C_9
REMARK    6  A    between atoms: N_8  and  C_10
REMARK    7  A    between atoms: C_10  and  C_11
REMARK    8  A    between atoms: C_11  and  O_12
REMARK    9  A    between atoms: C_11  and  C_13
REMARK   10  A    between atoms: C_17  and  O_18
REMARK   11  A    between atoms: O_18  and  C_19
REMARK   12  A    between atoms: C_19  and  C_20
REMARK                            x       y       z     vdW  Elec       q    Type
REMARK                         _______ _______ _______ _____ _____    ______ ____
ROOT
ATOM      1  C   UNL     1       2.217   4.660  19.061  0.00  0.00    +0.000 A 
ATOM      2  C   UNL     1       1.864   4.725  20.402  0.00  0.00    +0.000 A 
ATOM      3  C   UNL     1       1.604   5.946  20.967  0.00  0.00    +0.000 A 
ATOM      4  C   UNL     1       1.956   7.113  20.316  0.00  0.00    +0.000 A 
ATOM      5  C   UNL     1       2.371   7.072  18.995  0.00  0.00    +0.000 A 
ATOM      6  C   UNL     1       2.512   5.836  18.401  0.00  0.00    +0.000 A 
ENDROOT
BRANCH   1   7
ATOM      7  C   UNL     1       2.307   3.360  18.320  0.00  0.00    +0.000 C 
BRANCH   7   8
ATOM      8  O   UNL     1       1.711   3.423  17.028  0.00  0.00    +0.000 OA
ATOM      9  H   UNL     1       0.748   3.497  17.209  0.00  0.00    +0.000 HD
ENDBRANCH   7   8
BRANCH   7  10
ATOM     10  C   UNL     1       3.764   2.926  18.200  0.00  0.00    +0.000 C 
BRANCH  10  14
ATOM     11  N   UNL     1       6.580   5.439  17.548  0.00  0.00    +0.000 N 
ATOM     12  C   UNL     1       5.751   4.529  18.213  0.00  0.00    +0.000 C 
ATOM     13  O   UNL     1       5.900   4.403  19.435  0.00  0.00    +0.000 OA
ATOM     14  N   UNL     1       4.718   3.859  17.525  0.00  0.00    +0.000 N 
ATOM     15  C   UNL     1       4.448   3.927  16.109  0.00  0.00    +0.000 C 
BRANCH  11  17
ATOM     16  C   UNL     1       7.858   7.597  17.902  0.00  0.00    +0.000 C 
ATOM     17  C   UNL     1       7.584   6.193  18.340  0.00  0.00    +0.000 C 
ENDBRANCH  11  17
BRANCH  11  18
ATOM     18  C   UNL     1       6.512   5.677  16.129  0.00  0.00    +0.000 C 
ATOM     19  C   UNL     1       7.349   4.928  15.183  0.00  0.00    +0.000 C 
ENDBRANCH  11  18
ENDBRANCH  10  14
ENDBRANCH   7  10
ENDBRANCH   1   7
BRANCH   5  20
ATOM     20  O   UNL     1       2.566   8.257  18.335  0.00  0.00    +0.000 OA
BRANCH  20  21
ATOM     21  C   UNL     1       1.417   8.918  17.721  0.00  0.00    +0.000 C 
BRANCH  21  22
ATOM     22  C   UNL     1       0.936  10.364  18.461  0.00  0.00    +0.000 A 
ATOM     23  C   UNL     1      -0.148  10.297  19.120  0.00  0.00    +0.000 A 
ATOM     24  C   UNL     1      -0.854  11.591  19.892  0.00  0.00    +0.000 A 
ATOM     25  C   UNL     1      -1.134  11.715  21.219  0.00  0.00    +0.000 A 
ATOM     26  C   UNL     1      -2.385  12.568  21.125  0.00  0.00    +0.000 A 
ATOM     27  C   UNL     1      -2.933  12.740  22.484  0.00  0.00    +0.000 A 
ATOM     28  C   UNL     1      -2.438  11.830  23.361  0.00  0.00    +0.000 A 
ATOM     29  C   UNL     1      -1.074  10.884  22.801  0.00  0.00    +0.000 A 
ATOM     30  C   UNL     1      -0.129  11.042  21.264  0.00  0.00    +0.000 A 
ATOM     31  N   UNL     1       1.038  10.690  19.887  0.00  0.00    +0.000 NA
ENDBRANCH  21  22
ENDBRANCH  20  21
ENDBRANCH   5  20
TORSDOF 9
ENDMDL
MODEL 5
REMARK VINA RESULT:      -7.9      2.989      4.504
REMARK  Name = 
REMARK  12 active torsions:
REMARK  status: ('A' for Active; 'I' for Inactive)
REMARK    1  A    between atoms: C_1  and  C_2
REMARK    2  A    between atoms: C_2  and  N_3
REMARK    3  A    between atoms: N_3  and  C_4
REMARK    4  A    between atoms: C_4  and  C_5
REMARK    5  A    between atoms: N_8  and  C_9
REMARK    6  A    between atoms: N_8  and  C_10
REMARK    7  A    between atoms: C_10  and  C_11
REMARK    8  A    between atoms: C_11  and  O_12
REMARK    9  A    between atoms: C_11  and  C_13
REMARK   10  A    between atoms: C_17  and  O_18
REMARK   11  A    between atoms: O_18  and  C_19
REMARK   12  A    between atoms: C_19  and  C_20
REMARK                            x       y       z     vdW  Elec       q    Type
REMARK                         _______ _______ _______ _____ _____    ______ ____
ROOT
ATOM      1  C   UNL     1       6.958   5.630  17.006  0.00  0.00    +0.000 A 
ATOM      2  C   UNL     1       7.538   5.012  18.106  0.00  0.00    +0.000 A 
ATOM      3  C   UNL     1       8.049   5.784  19.115  0.00  0.00    +0.000 A 
ATOM      4  C   UNL     1       8.251   7.140  18.932  0.00  0.00    +0.000 A 
ATOM      5  C   UNL     1       7.736   7.772  17.813  0.00  0.00    +0.000 A 
ATOM      6  C   UNL     1       7.115   6.994  16.860  0.00  0.00    +0.000 A 
ENDROOT
BRANCH   1   7
ATOM      7  C   UNL     1       6.191   4.865  15.970  0.00  0.00    +0.000 C 
BRANCH   7   8
ATOM      8  O   UNL     1       6.359   3.456  16.092  0.00  0.00    +0.000 OA
ATOM      9  H   UNL     1       5.577   3.163  16.609  0.00  0.00    +0.000 HD
ENDBRANCH   7   8
BRANCH   7  10
ATOM     10  C   UNL     1       4.711   5.222  16.045  0.00  0.00    +0.000 C 
BRANCH  10  14
ATOM     11  N   UNL     1       3.025   4.018  19.266  0.00  0.00    +0.000 N 
ATOM     12  C   UNL     1       3.695   3.993  18.038  0.00  0.00    +0.000 C 
ATOM     13  O   UNL     1       3.878   2.891  17.506  0.00  0.00    +0.000 OA
ATOM     14  N   UNL     1       4.052   5.193  17.387  0.00  0.00    +0.000 N 
ATOM     15  C   UNL     1       3.889   6.529  17.905  0.00  0.00    +0.000 C 
BRANCH  11  17
ATOM     16  C   UNL     1       3.016   2.460  21.263  0.00  0.00    +0.000 C 
ATOM     17  C   UNL     1       2.580   2.732  19.857  0.00  0.00    +0.000 C 
ENDBRANCH  11  17
BRANCH  11  18
ATOM     18  C   UNL     1       2.750   5.233  19.991  0.00  0.00    +0.000 C 
ATOM     19  C   UNL     1       1.439   5.483  20.602  0.00  0.00    +0.000 C 
ENDBRANCH  11  18
ENDBRANCH  10  14
ENDBRANCH   7  10
ENDBRANCH   1   7
BRANCH   5  20
ATOM     20  O   UNL     1       7.823   9.138  17.739  0.00  0.00    +0.000 OA
BRANCH  20  21
ATOM     21  C   UNL     1       9.058   9.789  18.169  0.00  0.00    +0.000 C 
BRANCH  21  22
ATOM     22  C   UNL     1       8.900  11.419  18.604  0.00  0.00    +0.000 A 
ATOM     23  C   UNL     1       9.996  12.043  18.759  0.00  0.00    +0.000 A 
ATOM     24  C   UNL     1      10.106  13.633  19.234  0.00  0.00    +0.000 A 
ATOM     25  C   UNL     1      10.683  14.665  18.557  0.00  0.00    +0.000 A 
ATOM     26  C   UNL     1      11.180  15.482  19.734  0.00  0.00    +0.000 A 
ATOM     27  C   UNL     1      11.951  16.627  19.213  0.00  0.00    +0.000 A 
ATOM     28  C   UNL     1      12.327  16.452  17.920  0.00  0.00    +0.000 A 
ATOM     29  C   UNL     1      11.583  15.109  17.077  0.00  0.00    +0.000 A 
ATOM     30  C   UNL     1      10.268  13.997  17.636  0.00  0.00    +0.000 A 
ATOM     31  N   UNL     1       9.101  12.578  17.729  0.00  0.00    +0.000 NA
ENDBRANCH  21  22
ENDBRANCH  20  21
ENDBRANCH   5  20
TORSDOF 9
ENDMDL
MODEL 6
REMARK VINA RESULT:      -7.8      5.203      7.257
REMARK  Name = 
REMARK  12 active torsions:
REMARK  status: ('A' for Active; 'I' for Inactive)
REMARK    1  A    between atoms: C_1  and  C_2
REMARK    2  A    between atoms: C_2  and  N_3
REMARK    3  A    between atoms: N_3  and  C_4
REMARK    4  A    between atoms: C_4  and  C_5
REMARK    5  A    between atoms: N_8  and  C_9
REMARK    6  A    between atoms: N_8  and  C_10
REMARK    7  A    between atoms: C_10  and  C_11
REMARK    8  A    between atoms: C_11  and  O_12
REMARK    9  A    between atoms: C_11  and  C_13
REMARK   10  A    between atoms: C_17  and  O_18
REMARK   11  A    between atoms: O_18  and  C_19
REMARK   12  A    between atoms: C_19  and  C_20
REMARK                            x       y       z     vdW  Elec       q    Type
REMARK                         _______ _______ _______ _____ _____    ______ ____
ROOT
ATOM      1  C   UNL     1       1.280   9.202  19.882  0.00  0.00    +0.000 A 
ATOM      2  C   UNL     1       1.518   9.744  18.626  0.00  0.00    +0.000 A 
ATOM      3  C   UNL     1       2.052   8.950  17.645  0.00  0.00    +0.000 A 
ATOM      4  C   UNL     1       2.610   7.724  17.957  0.00  0.00    +0.000 A 
ATOM      5  C   UNL     1       2.440   7.187  19.221  0.00  0.00    +0.000 A 
ATOM      6  C   UNL     1       1.792   7.952  20.167  0.00  0.00    +0.000 A 
ENDROOT
BRANCH   1   7
ATOM      7  C   UNL     1       0.507   9.936  20.936  0.00  0.00    +0.000 C 
BRANCH   7   8
ATOM      8  O   UNL     1       1.186   9.972  22.188  0.00  0.00    +0.000 OA
ATOM      9  H   UNL     1       2.134  10.061  21.948  0.00  0.00    +0.000 HD
ENDBRANCH   7   8
BRANCH   7  10
ATOM     10  C   UNL     1       0.201  11.355  20.469  0.00  0.00    +0.000 C 
BRANCH  10  14
ATOM     11  N   UNL     1      -3.406  12.112  19.430  0.00  0.00    +0.000 N 
ATOM     12  C   UNL     1      -2.097  11.621  19.389  0.00  0.00    +0.000 C 
ATOM     13  O   UNL     1      -1.707  11.108  18.333  0.00  0.00    +0.000 OA
ATOM     14  N   UNL     1      -1.225  11.803  20.485  0.00  0.00    +0.000 N 
ATOM     15  C   UNL     1      -1.563  12.385  21.760  0.00  0.00    +0.000 C 
BRANCH  11  17
ATOM     16  C   UNL     1      -5.296  10.919  18.238  0.00  0.00    +0.000 C 
ATOM     17  C   UNL     1      -4.248  11.987  18.213  0.00  0.00    +0.000 C 
ENDBRANCH  11  17
BRANCH  11  18
ATOM     18  C   UNL     1      -3.983  12.730  20.597  0.00  0.00    +0.000 C 
ATOM     19  C   UNL     1      -4.785  13.955  20.501  0.00  0.00    +0.000 C 
ENDBRANCH  11  18
ENDBRANCH  10  14
ENDBRANCH   7  10
ENDBRANCH   1   7
BRANCH   5  20
ATOM     20  O   UNL     1       2.875   5.907  19.449  0.00  0.00    +0.000 OA
BRANCH  20  21
ATOM     21  C   UNL     1       4.307   5.628  19.381  0.00  0.00    +0.000 C 
BRANCH  21  22
ATOM     22  C   UNL     1       4.762   4.479  18.222  0.00  0.00    +0.000 A 
ATOM     23  C   UNL     1       4.780   4.901  17.023  0.00  0.00    +0.000 A 
ATOM     24  C   UNL     1       5.143   3.955  15.704  0.00  0.00    +0.000 A 
ATOM     25  C   UNL     1       6.150   4.133  14.805  0.00  0.00    +0.000 A 
ATOM     26  C   UNL     1       5.473   3.577  13.567  0.00  0.00    +0.000 A 
ATOM     27  C   UNL     1       6.375   3.774  12.416  0.00  0.00    +0.000 A 
ATOM     28  C   UNL     1       7.343   4.692  12.668  0.00  0.00    +0.000 A 
ATOM     29  C   UNL     1       7.510   5.196  14.337  0.00  0.00    +0.000 A 
ATOM     30  C   UNL     1       6.669   4.562  15.811  0.00  0.00    +0.000 A 
ATOM     31  N   UNL     1       6.056   4.396  17.538  0.00  0.00    +0.000 NA
ENDBRANCH  21  22
ENDBRANCH  20  21
ENDBRANCH   5  20
TORSDOF 9
ENDMDL
MODEL 7
REMARK VINA RESULT:      -7.8      1.034      1.646
REMARK  Name = 
REMARK  12 active torsions:
REMARK  status: ('A' for Active; 'I' for Inactive)
REMARK    1  A    between atoms: C_1  and  C_2
REMARK    2  A    between atoms: C_2  and  N_3
REMARK    3  A    between atoms: N_3  and  C_4
REMARK    4  A    between atoms: C_4  and  C_5
REMARK    5  A    between atoms: N_8  and  C_9
REMARK    6  A    between atoms: N_8  and  C_10
REMARK    7  A    between atoms: C_10  and  C_11
REMARK    8  A    between atoms: C_11  and  O_12
REMARK    9  A    between atoms: C_11  and  C_13
REMARK   10  A    between atoms: C_17  and  O_18
REMARK   11  A    between atoms: O_18  and  C_19
REMARK   12  A    between atoms: C_19  and  C_20
REMARK                            x       y       z     vdW  Elec       q    Type
REMARK                         _______ _______ _______ _____ _____    ______ ____
ROOT
ATOM      1  C   UNL     1       4.521   5.758  17.304  0.00  0.00    +0.000 A 
ATOM      2  C   UNL     1       4.831   4.955  16.215  0.00  0.00    +0.000 A 
ATOM      3  C   UNL     1       6.141   4.810  15.842  0.00  0.00    +0.000 A 
ATOM      4  C   UNL     1       7.114   5.658  16.341  0.00  0.00    +0.000 A 
ATOM      5  C   UNL     1       6.816   6.514  17.387  0.00  0.00    +0.000 A 
ATOM      6  C   UNL     1       5.513   6.560  17.834  0.00  0.00    +0.000 A 
ENDROOT
BRANCH   1   7
ATOM      7  C   UNL     1       3.148   5.799  17.903  0.00  0.00    +0.000 C 
BRANCH   7   8
ATOM      8  O   UNL     1       2.683   4.512  18.297  0.00  0.00    +0.000 OA
ATOM      9  H   UNL     1       2.584   4.577  19.272  0.00  0.00    +0.000 HD
ENDBRANCH   7   8
BRANCH   7  10
ATOM     10  C   UNL     1       3.126   6.748  19.097  0.00  0.00    +0.000 C 
BRANCH  10  14
ATOM     11  N   UNL     1       0.528   9.399  20.038  0.00  0.00    +0.000 N 
ATOM     12  C   UNL     1       1.432   8.339  20.154  0.00  0.00    +0.000 C 
ATOM     13  O   UNL     1       1.474   7.734  21.233  0.00  0.00    +0.000 OA
ATOM     14  N   UNL     1       2.193   7.915  19.043  0.00  0.00    +0.000 N 
ATOM     15  C   UNL     1       2.228   8.537  17.742  0.00  0.00    +0.000 C 
BRANCH  11  17
ATOM     16  C   UNL     1      -0.133  11.102  21.793  0.00  0.00    +0.000 C 
ATOM     17  C   UNL     1      -0.322   9.738  21.207  0.00  0.00    +0.000 C 
ENDBRANCH  11  17
BRANCH  11  18
ATOM     18  C   UNL     1       0.382  10.186  18.839  0.00  0.00    +0.000 C 
ATOM     19  C   UNL     1      -0.929  10.400  18.214  0.00  0.00    +0.000 C 
ENDBRANCH  11  18
ENDBRANCH  10  14
ENDBRANCH   7  10
ENDBRANCH   1   7
BRANCH   5  20
ATOM     20  O   UNL     1       7.839   7.228  17.956  0.00  0.00    +0.000 OA
BRANCH  20  21
ATOM     21  C   UNL     1       7.859   8.679  17.793  0.00  0.00    +0.000 C 
BRANCH  21  22
ATOM     22  C   UNL     1       9.183   9.465  18.500  0.00  0.00    +0.000 A 
ATOM     23  C   UNL     1       9.177  10.732  18.394  0.00  0.00    +0.000 A 
ATOM     24  C   UNL     1      10.387  11.723  18.958  0.00  0.00    +0.000 A 
ATOM     25  C   UNL     1      10.282  12.725  19.876  0.00  0.00    +0.000 A 
ATOM     26  C   UNL     1      11.346  13.661  19.338  0.00  0.00    +0.000 A 
ATOM     27  C   UNL     1      11.328  14.897  20.144  0.00  0.00    +0.000 A 
ATOM     28  C   UNL     1      10.182  15.032  20.858  0.00  0.00    +0.000 A 
ATOM     29  C   UNL     1       9.143  13.624  20.921  0.00  0.00    +0.000 A 
ATOM     30  C   UNL     1       9.444  11.953  20.288  0.00  0.00    +0.000 A 
ATOM     31  N   UNL     1       9.181  10.210  19.763  0.00  0.00    +0.000 NA
ENDBRANCH  21  22
ENDBRANCH  20  21
ENDBRANCH   5  20
TORSDOF 9
ENDMDL
MODEL 8
REMARK VINA RESULT:      -7.8      2.947      4.179
REMARK  Name = 
REMARK  12 active torsions:
REMARK  status: ('A' for Active; 'I' for Inactive)
REMARK    1  A    between atoms: C_1  and  C_2
REMARK    2  A    between atoms: C_2  and  N_3
REMARK    3  A    between atoms: N_3  and  C_4
REMARK    4  A    between atoms: C_4  and  C_5
REMARK    5  A    between atoms: N_8  and  C_9
REMARK    6  A    between atoms: N_8  and  C_10
REMARK    7  A    between atoms: C_10  and  C_11
REMARK    8  A    between atoms: C_11  and  O_12
REMARK    9  A    between atoms: C_11  and  C_13
REMARK   10  A    between atoms: C_17  and  O_18
REMARK   11  A    between atoms: O_18  and  C_19
REMARK   12  A    between atoms: C_19  and  C_20
REMARK                            x       y       z     vdW  Elec       q    Type
REMARK                         _______ _______ _______ _____ _____    ______ ____
ROOT
ATOM      1  C   UNL     1       6.128   6.124  17.353  0.00  0.00    +0.000 A 
ATOM      2  C   UNL     1       6.838   5.331  18.244  0.00  0.00    +0.000 A 
ATOM      3  C   UNL     1       7.822   5.900  19.009  0.00  0.00    +0.000 A 
ATOM      4  C   UNL     1       8.305   7.161  18.712  0.00  0.00    +0.000 A 
ATOM      5  C   UNL     1       7.652   7.952  17.782  0.00  0.00    +0.000 A 
ATOM      6  C   UNL     1       6.584   7.403  17.104  0.00  0.00    +0.000 A 
ENDROOT
BRANCH   1   7
ATOM      7  C   UNL     1       4.904   5.630  16.642  0.00  0.00    +0.000 C 
BRANCH   7   8
ATOM      8  O   UNL     1       4.778   4.213  16.688  0.00  0.00    +0.000 OA
ATOM      9  H   UNL     1       4.468   4.026  17.601  0.00  0.00    +0.000 HD
ENDBRANCH   7   8
BRANCH   7  10
ATOM     10  C   UNL     1       3.658   6.284  17.230  0.00  0.00    +0.000 C 
BRANCH  10  14
ATOM     11  N   UNL     1       1.496   3.902  19.307  0.00  0.00    +0.000 N 
ATOM     12  C   UNL     1       2.153   4.471  18.211  0.00  0.00    +0.000 C 
ATOM     13  O   UNL     1       1.907   4.008  17.090  0.00  0.00    +0.000 OA
ATOM     14  N   UNL     1       2.985   5.599  18.376  0.00  0.00    +0.000 N 
ATOM     15  C   UNL     1       3.343   6.224  19.626  0.00  0.00    +0.000 C 
BRANCH  11  17
ATOM     16  C   UNL     1       1.161   1.429  18.869  0.00  0.00    +0.000 C 
ATOM     17  C   UNL     1       0.552   2.782  19.065  0.00  0.00    +0.000 C 
ENDBRANCH  11  17
BRANCH  11  18
ATOM     18  C   UNL     1       1.695   4.345  20.665  0.00  0.00    +0.000 C 
ATOM     19  C   UNL     1       2.095   3.412  21.726  0.00  0.00    +0.000 C 
ENDBRANCH  11  18
ENDBRANCH  10  14
ENDBRANCH   7  10
ENDBRANCH   1   7
BRANCH   5  20
ATOM     20  O   UNL     1       8.066   9.249  17.623  0.00  0.00    +0.000 OA
BRANCH  20  21
ATOM     21  C   UNL     1       8.822   9.882  18.701  0.00  0.00    +0.000 C 
BRANCH  21  22
ATOM     22  C   UNL     1      10.034  10.954  18.197  0.00  0.00    +0.000 A 
ATOM     23  C   UNL     1       9.642  12.142  17.971  0.00  0.00    +0.000 A 
ATOM     24  C   UNL     1      10.628  13.362  17.419  0.00  0.00    +0.000 A 
ATOM     25  C   UNL     1      10.897  14.552  18.025  0.00  0.00    +0.000 A 
ATOM     26  C   UNL     1      11.076  15.418  16.792  0.00  0.00    +0.000 A 
ATOM     27  C   UNL     1      11.276  16.813  17.230  0.00  0.00    +0.000 A 
ATOM     28  C   UNL     1      10.884  17.014  18.514  0.00  0.00    +0.000 A 
ATOM     29  C   UNL     1      10.534  15.573  19.447  0.00  0.00    +0.000 A 
ATOM     30  C   UNL     1      10.758  13.835  18.990  0.00  0.00    +0.000 A 
ATOM     31  N   UNL     1      10.666  11.998  19.009  0.00  0.00    +0.000 NA
ENDBRANCH  21  22
ENDBRANCH  20  21
ENDBRANCH   5  20
TORSDOF 9
ENDMDL
MODEL 9
REMARK VINA RESULT:      -7.7      1.396      1.988
REMARK  Name = 
REMARK  12 active torsions:
REMARK  status: ('A' for Active; 'I' for Inactive)
REMARK    1  A    between atoms: C_1  and  C_2
REMARK    2  A    between atoms: C_2  and  N_3
REMARK    3  A    between atoms: N_3  and  C_4
REMARK    4  A    between atoms: C_4  and  C_5
REMARK    5  A    between atoms: N_8  and  C_9
REMARK    6  A    between atoms: N_8  and  C_10
REMARK    7  A    between atoms: C_10  and  C_11
REMARK    8  A    between atoms: C_11  and  O_12
REMARK    9  A    between atoms: C_11  and  C_13
REMARK   10  A    between atoms: C_17  and  O_18
REMARK   11  A    between atoms: O_18  and  C_19
REMARK   12  A    between atoms: C_19  and  C_20
REMARK                            x       y       z     vdW  Elec       q    Type
REMARK                         _______ _______ _______ _____ _____    ______ ____
ROOT
ATOM      1  C   UNL     1       4.582   5.529  17.060  0.00  0.00    +0.000 A 
ATOM      2  C   UNL     1       4.950   4.603  16.094  0.00  0.00    +0.000 A 
ATOM      3  C   UNL     1       6.279   4.424  15.811  0.00  0.00    +0.000 A 
ATOM      4  C   UNL     1       7.223   5.331  16.257  0.00  0.00    +0.000 A 
ATOM      5  C   UNL     1       6.869   6.305  17.176  0.00  0.00    +0.000 A 
ATOM      6  C   UNL     1       5.543   6.394  17.543  0.00  0.00    +0.000 A 
ENDROOT
BRANCH   1   7
ATOM      7  C   UNL     1       3.178   5.631  17.577  0.00  0.00    +0.000 C 
BRANCH   7   8
ATOM      8  O   UNL     1       2.519   4.370  17.629  0.00  0.00    +0.000 OA
ATOM      9  H   UNL     1       2.381   4.129  16.686  0.00  0.00    +0.000 HD
ENDBRANCH   7   8
BRANCH   7  10
ATOM     10  C   UNL     1       3.174   6.278  18.957  0.00  0.00    +0.000 C 
BRANCH  10  14
ATOM     11  N   UNL     1       0.719   8.829  20.416  0.00  0.00    +0.000 N 
ATOM     12  C   UNL     1       1.539   7.701  20.305  0.00  0.00    +0.000 C 
ATOM     13  O   UNL     1       1.475   6.854  21.204  0.00  0.00    +0.000 OA
ATOM     14  N   UNL     1       2.330   7.497  19.155  0.00  0.00    +0.000 N 
ATOM     15  C   UNL     1       2.484   8.409  18.047  0.00  0.00    +0.000 C 
BRANCH  11  17
ATOM     16  C   UNL     1       0.460   9.446  22.860  0.00  0.00    +0.000 C 
ATOM     17  C   UNL     1      -0.171   8.945  21.598  0.00  0.00    +0.000 C 
ENDBRANCH  11  17
BRANCH  11  18
ATOM     18  C   UNL     1       0.699   9.891  19.441  0.00  0.00    +0.000 C 
ATOM     19  C   UNL     1      -0.002  11.155  19.697  0.00  0.00    +0.000 C 
ENDBRANCH  11  18
ENDBRANCH  10  14
ENDBRANCH   7  10
ENDBRANCH   1   7
BRANCH   5  20
ATOM     20  O   UNL     1       7.859   7.088  17.709  0.00  0.00    +0.000 OA
BRANCH  20  21
ATOM     21  C   UNL     1       7.670   8.536  17.739  0.00  0.00    +0.000 C 
BRANCH  21  22
ATOM     22  C   UNL     1       8.879   9.403  18.551  0.00  0.00    +0.000 A 
ATOM     23  C   UNL     1       9.318  10.422  17.930  0.00  0.00    +0.000 A 
ATOM     24  C   UNL     1      10.538  11.403  18.493  0.00  0.00    +0.000 A 
ATOM     25  C   UNL     1      10.477  12.739  18.754  0.00  0.00    +0.000 A 
ATOM     26  C   UNL     1      11.901  13.122  18.399  0.00  0.00    +0.000 A 
ATOM     27  C   UNL     1      12.029  14.588  18.512  0.00  0.00    +0.000 A 
ATOM     28  C   UNL     1      10.825  15.213  18.520  0.00  0.00    +0.000 A 
ATOM     29  C   UNL     1       9.422  14.182  18.708  0.00  0.00    +0.000 A 
ATOM     30  C   UNL     1       9.349  12.402  19.039  0.00  0.00    +0.000 A 
ATOM     31  N   UNL     1       8.717  10.687  19.240  0.00  0.00    +0.000 NA
ENDBRANCH  21  22
ENDBRANCH  20  21
ENDBRANCH   5  20
TORSDOF 9
ENDMDL
