MODEL 1
REMARK VINA RESULT:      -6.0      0.000      0.000
REMARK  Name = 
REMARK  5 active torsions:
REMARK  status: ('A' for Active; 'I' for Inactive)
REMARK    1  A    between atoms: C_1  and  S_2
REMARK    2  A    between atoms: S_2  and  C_3
REMARK    3  A    between atoms: C_8  and  O_9
REMARK    4  A    between atoms: O_9  and  C_10
REMARK    5  A    between atoms: C_10  and  C_12
REMARK                            x       y       z     vdW  Elec       q    Type
REMARK                         _______ _______ _______ _____ _____    ______ ____
ROOT
ATOM      1  C   UNL     1       3.549   3.973  19.846  0.00  0.00    +0.000 A 
ATOM      2  C   UNL     1       2.340   4.138  20.537  0.00  0.00    +0.000 A 
ATOM      3  C   UNL     1       1.689   5.374  20.548  0.00  0.00    +0.000 A 
ATOM      4  C   UNL     1       2.240   6.459  19.869  0.00  0.00    +0.000 A 
ATOM      5  C   UNL     1       3.447   6.315  19.188  0.00  0.00    +0.000 A 
ATOM      6  C   UNL     1       4.109   5.085  19.196  0.00  0.00    +0.000 A 
ENDROOT
BRANCH   1   8
ATOM      7  C   UNL     1       3.474   1.632  18.398  0.00  0.00    +0.000 C 
ATOM      8  S   UNL     1       4.287   2.344  19.853  0.00  0.00    +0.000 S 
ENDBRANCH   1   8
BRANCH   6   9
ATOM      9  O   UNL     1       5.313   4.909  18.475  0.00  0.00    +0.000 OA
BRANCH   9  10
ATOM     10  C   UNL     1       6.517   5.482  18.908  0.00  0.00    +0.000 C 
ATOM     11  O   UNL     1       7.044   5.287  20.000  0.00  0.00    +0.000 OA
BRANCH  10  12
ATOM     12  C   UNL     1       7.047   6.412  17.824  0.00  0.00    +0.000 C 
ATOM     13  F   UNL     1       8.126   7.151  18.215  0.00  0.00    +0.000 F 
ATOM     14  F   UNL     1       7.449   5.725  16.717  0.00  0.00    +0.000 F 
ATOM     15  F   UNL     1       6.111   7.306  17.397  0.00  0.00    +0.000 F 
ENDBRANCH  10  12
ENDBRANCH   9  10
ENDBRANCH   6   9
TORSDOF 4
ENDMDL
MODEL 2
REMARK VINA RESULT:      -5.9      4.237      5.643
REMARK  Name = 
REMARK  5 active torsions:
REMARK  status: ('A' for Active; 'I' for Inactive)
REMARK    1  A    between atoms: C_1  and  S_2
REMARK    2  A    between atoms: S_2  and  C_3
REMARK    3  A    between atoms: C_8  and  O_9
REMARK    4  A    between atoms: O_9  and  C_10
REMARK    5  A    between atoms: C_10  and  C_12
REMARK                            x       y       z     vdW  Elec       q    Type
REMARK                         _______ _______ _______ _____ _____    ______ ____
ROOT
ATOM      1  C   UNL     1       3.572   6.012  17.810  0.00  0.00    +0.000 A 
ATOM      2  C   UNL     1       4.601   6.646  17.099  0.00  0.00    +0.000 A 
ATOM      3  C   UNL     1       5.418   5.918  16.230  0.00  0.00    +0.000 A 
ATOM      4  C   UNL     1       5.217   4.550  16.065  0.00  0.00    +0.000 A 
ATOM      5  C   UNL     1       4.207   3.903  16.774  0.00  0.00    +0.000 A 
ATOM      6  C   UNL     1       3.405   4.626  17.659  0.00  0.00    +0.000 A 
ENDROOT
BRANCH   1   8
ATOM      7  C   UNL     1       2.349   8.480  17.792  0.00  0.00    +0.000 C 
ATOM      8  S   UNL     1       2.551   7.034  18.866  0.00  0.00    +0.000 S 
ENDBRANCH   1   8
BRANCH   6   9
ATOM      9  O   UNL     1       2.348   3.995  18.355  0.00  0.00    +0.000 OA
BRANCH   9  10
ATOM     10  C   UNL     1       2.534   3.452  19.633  0.00  0.00    +0.000 C 
ATOM     11  O   UNL     1       3.609   3.086  20.101  0.00  0.00    +0.000 OA
BRANCH  10  12
ATOM     12  C   UNL     1       1.185   3.353  20.336  0.00  0.00    +0.000 C 
ATOM     13  F   UNL     1       0.630   4.564  20.632  0.00  0.00    +0.000 F 
ATOM     14  F   UNL     1       0.262   2.698  19.574  0.00  0.00    +0.000 F 
ATOM     15  F   UNL     1       1.256   2.672  21.515  0.00  0.00    +0.000 F 
ENDBRANCH  10  12
ENDBRANCH   9  10
ENDBRANCH   6   9
TORSDOF 4
ENDMDL
MODEL 3
REMARK VINA RESULT:      -5.9      3.932      5.512
REMARK  Name = 
REMARK  5 active torsions:
REMARK  status: ('A' for Active; 'I' for Inactive)
REMARK    1  A    between atoms: C_1  and  S_2
REMARK    2  A    between atoms: S_2  and  C_3
REMARK    3  A    between atoms: C_8  and  O_9
REMARK    4  A    between atoms: O_9  and  C_10
REMARK    5  A    between atoms: C_10  and  C_12
REMARK                            x       y       z     vdW  Elec       q    Type
REMARK                         _______ _______ _______ _____ _____    ______ ____
ROOT
ATOM      1  C   UNL     1       3.922   5.949  17.717  0.00  0.00    +0.000 A 
ATOM      2  C   UNL     1       4.484   6.729  16.696  0.00  0.00    +0.000 A 
ATOM      3  C   UNL     1       5.284   6.144  15.711  0.00  0.00    +0.000 A 
ATOM      4  C   UNL     1       5.531   4.774  15.737  0.00  0.00    +0.000 A 
ATOM      5  C   UNL     1       4.991   3.986  16.752  0.00  0.00    +0.000 A 
ATOM      6  C   UNL     1       4.210   4.575  17.749  0.00  0.00    +0.000 A 
ENDROOT
BRANCH   1   8
ATOM      7  C   UNL     1       2.436   8.256  17.953  0.00  0.00    +0.000 C 
ATOM      8  S   UNL     1       2.878   6.780  18.908  0.00  0.00    +0.000 S 
ENDBRANCH   1   8
BRANCH   6   9
ATOM      9  O   UNL     1       3.618   3.786  18.762  0.00  0.00    +0.000 OA
BRANCH   9  10
ATOM     10  C   UNL     1       2.717   2.757  18.457  0.00  0.00    +0.000 C 
ATOM     11  O   UNL     1       3.027   1.617  18.120  0.00  0.00    +0.000 OA
BRANCH  10  12
ATOM     12  C   UNL     1       1.293   3.287  18.573  0.00  0.00    +0.000 C 
ATOM     13  F   UNL     1       1.054   3.970  19.730  0.00  0.00    +0.000 F 
ATOM     14  F   UNL     1       0.989   4.152  17.563  0.00  0.00    +0.000 F 
ATOM     15  F   UNL     1       0.358   2.296  18.519  0.00  0.00    +0.000 F 
ENDBRANCH  10  12
ENDBRANCH   9  10
ENDBRANCH   6   9
TORSDOF 4
ENDMDL
MODEL 4
REMARK VINA RESULT:      -5.9      4.235      5.725
REMARK  Name = 
REMARK  5 active torsions:
REMARK  status: ('A' for Active; 'I' for Inactive)
REMARK    1  A    between atoms: C_1  and  S_2
REMARK    2  A    between atoms: S_2  and  C_3
REMARK    3  A    between atoms: C_8  and  O_9
REMARK    4  A    between atoms: O_9  and  C_10
REMARK    5  A    between atoms: C_10  and  C_12
REMARK                            x       y       z     vdW  Elec       q    Type
REMARK                         _______ _______ _______ _____ _____    ______ ____
ROOT
ATOM      1  C   UNL     1       3.141   5.878  18.133  0.00  0.00    +0.000 A 
ATOM      2  C   UNL     1       4.379   6.125  17.522  0.00  0.00    +0.000 A 
ATOM      3  C   UNL     1       5.010   5.132  16.766  0.00  0.00    +0.000 A 
ATOM      4  C   UNL     1       4.411   3.885  16.615  0.00  0.00    +0.000 A 
ATOM      5  C   UNL     1       3.187   3.620  17.225  0.00  0.00    +0.000 A 
ATOM      6  C   UNL     1       2.567   4.604  17.999  0.00  0.00    +0.000 A 
ENDROOT
BRANCH   1   8
ATOM      7  C   UNL     1       2.385   8.500  17.758  0.00  0.00    +0.000 C 
ATOM      8  S   UNL     1       2.390   7.222  19.044  0.00  0.00    +0.000 S 
ENDBRANCH   1   8
BRANCH   6   9
ATOM      9  O   UNL     1       1.305   4.367  18.590  0.00  0.00    +0.000 OA
BRANCH   9  10
ATOM     10  C   UNL     1       1.035   3.185  19.293  0.00  0.00    +0.000 C 
ATOM     11  O   UNL     1       0.402   2.227  18.856  0.00  0.00    +0.000 OA
BRANCH  10  12
ATOM     12  C   UNL     1       1.618   3.292  20.697  0.00  0.00    +0.000 C 
ATOM     13  F   UNL     1       2.900   2.838  20.795  0.00  0.00    +0.000 F 
ATOM     14  F   UNL     1       1.647   4.583  21.137  0.00  0.00    +0.000 F 
ATOM     15  F   UNL     1       0.897   2.593  21.619  0.00  0.00    +0.000 F 
ENDBRANCH  10  12
ENDBRANCH   9  10
ENDBRANCH   6   9
TORSDOF 4
ENDMDL
MODEL 5
REMARK VINA RESULT:      -5.9      3.863      5.372
REMARK  Name = 
REMARK  5 active torsions:
REMARK  status: ('A' for Active; 'I' for Inactive)
REMARK    1  A    between atoms: C_1  and  S_2
REMARK    2  A    between atoms: S_2  and  C_3
REMARK    3  A    between atoms: C_8  and  O_9
REMARK    4  A    between atoms: O_9  and  C_10
REMARK    5  A    between atoms: C_10  and  C_12
REMARK                            x       y       z     vdW  Elec       q    Type
REMARK                         _______ _______ _______ _____ _____    ______ ____
ROOT
ATOM      1  C   UNL     1       5.981   4.460  16.570  0.00  0.00    +0.000 A 
ATOM      2  C   UNL     1       7.219   4.919  17.042  0.00  0.00    +0.000 A 
ATOM      3  C   UNL     1       7.367   5.328  18.370  0.00  0.00    +0.000 A 
ATOM      4  C   UNL     1       6.280   5.284  19.239  0.00  0.00    +0.000 A 
ATOM      5  C   UNL     1       5.040   4.842  18.783  0.00  0.00    +0.000 A 
ATOM      6  C   UNL     1       4.887   4.454  17.450  0.00  0.00    +0.000 A 
ENDROOT
BRANCH   1   8
ATOM      7  C   UNL     1       7.190   4.965  14.148  0.00  0.00    +0.000 C 
ATOM      8  S   UNL     1       5.898   3.917  14.868  0.00  0.00    +0.000 S 
ENDBRANCH   1   8
BRANCH   6   9
ATOM      9  O   UNL     1       3.646   3.963  16.980  0.00  0.00    +0.000 OA
BRANCH   9  10
ATOM     10  C   UNL     1       2.927   2.992  17.689  0.00  0.00    +0.000 C 
ATOM     11  O   UNL     1       3.277   1.826  17.854  0.00  0.00    +0.000 OA
BRANCH  10  12
ATOM     12  C   UNL     1       1.623   3.602  18.191  0.00  0.00    +0.000 C 
ATOM     13  F   UNL     1       1.094   4.536  17.349  0.00  0.00    +0.000 F 
ATOM     14  F   UNL     1       0.652   2.659  18.356  0.00  0.00    +0.000 F 
ATOM     15  F   UNL     1       1.763   4.218  19.399  0.00  0.00    +0.000 F 
ENDBRANCH  10  12
ENDBRANCH   9  10
ENDBRANCH   6   9
TORSDOF 4
ENDMDL
MODEL 6
REMARK VINA RESULT:      -5.8      2.695      3.180
REMARK  Name = 
REMARK  5 active torsions:
REMARK  status: ('A' for Active; 'I' for Inactive)
REMARK    1  A    between atoms: C_1  and  S_2
REMARK    2  A    between atoms: S_2  and  C_3
REMARK    3  A    between atoms: C_8  and  O_9
REMARK    4  A    between atoms: O_9  and  C_10
REMARK    5  A    between atoms: C_10  and  C_12
REMARK                            x       y       z     vdW  Elec       q    Type
REMARK                         _______ _______ _______ _____ _____    ______ ____
ROOT
ATOM      1  C   UNL     1       3.267   4.211  17.803  0.00  0.00    +0.000 A 
ATOM      2  C   UNL     1       2.359   5.091  18.409  0.00  0.00    +0.000 A 
ATOM      3  C   UNL     1       2.559   6.473  18.346  0.00  0.00    +0.000 A 
ATOM      4  C   UNL     1       3.667   6.988  17.678  0.00  0.00    +0.000 A 
ATOM      5  C   UNL     1       4.585   6.126  17.081  0.00  0.00    +0.000 A 
ATOM      6  C   UNL     1       4.397   4.745  17.164  0.00  0.00    +0.000 A 
ENDROOT
BRANCH   1   8
ATOM      7  C   UNL     1       1.246   2.529  18.625  0.00  0.00    +0.000 C 
ATOM      8  S   UNL     1       2.906   2.461  17.900  0.00  0.00    +0.000 S 
ENDBRANCH   1   8
BRANCH   6   9
ATOM      9  O   UNL     1       5.295   3.856  16.528  0.00  0.00    +0.000 OA
BRANCH   9  10
ATOM     10  C   UNL     1       6.544   4.287  16.059  0.00  0.00    +0.000 C 
ATOM     11  O   UNL     1       7.526   4.517  16.760  0.00  0.00    +0.000 OA
BRANCH  10  12
ATOM     12  C   UNL     1       6.478   4.459  14.546  0.00  0.00    +0.000 C 
ATOM     13  F   UNL     1       6.467   3.280  13.859  0.00  0.00    +0.000 F 
ATOM     14  F   UNL     1       5.351   5.124  14.160  0.00  0.00    +0.000 F 
ATOM     15  F   UNL     1       7.529   5.175  14.054  0.00  0.00    +0.000 F 
ENDBRANCH  10  12
ENDBRANCH   9  10
ENDBRANCH   6   9
TORSDOF 4
ENDMDL
MODEL 7
REMARK VINA RESULT:      -5.8      1.866      3.051
REMARK  Name = 
REMARK  5 active torsions:
REMARK  status: ('A' for Active; 'I' for Inactive)
REMARK    1  A    between atoms: C_1  and  S_2
REMARK    2  A    between atoms: S_2  and  C_3
REMARK    3  A    between atoms: C_8  and  O_9
REMARK    4  A    between atoms: O_9  and  C_10
REMARK    5  A    between atoms: C_10  and  C_12
REMARK                            x       y       z     vdW  Elec       q    Type
REMARK                         _______ _______ _______ _____ _____    ______ ____
ROOT
ATOM      1  C   UNL     1       2.716   5.049  18.669  0.00  0.00    +0.000 A 
ATOM      2  C   UNL     1       1.603   4.202  18.763  0.00  0.00    +0.000 A 
ATOM      3  C   UNL     1       1.621   2.934  18.175  0.00  0.00    +0.000 A 
ATOM      4  C   UNL     1       2.751   2.501  17.487  0.00  0.00    +0.000 A 
ATOM      5  C   UNL     1       3.862   3.335  17.374  0.00  0.00    +0.000 A 
ATOM      6  C   UNL     1       3.835   4.610  17.942  0.00  0.00    +0.000 A 
ENDROOT
BRANCH   1   8
ATOM      7  C   UNL     1       2.392   7.712  18.048  0.00  0.00    +0.000 C 
ATOM      8  S   UNL     1       2.616   6.635  19.489  0.00  0.00    +0.000 S 
ENDBRANCH   1   8
BRANCH   6   9
ATOM      9  O   UNL     1       4.968   5.454  17.874  0.00  0.00    +0.000 OA
BRANCH   9  10
ATOM     10  C   UNL     1       6.111   5.210  18.648  0.00  0.00    +0.000 C 
ATOM     11  O   UNL     1       6.112   4.899  19.836  0.00  0.00    +0.000 OA
BRANCH  10  12
ATOM     12  C   UNL     1       7.352   5.428  17.791  0.00  0.00    +0.000 C 
ATOM     13  F   UNL     1       7.074   5.797  16.507  0.00  0.00    +0.000 F 
ATOM     14  F   UNL     1       8.150   6.413  18.295  0.00  0.00    +0.000 F 
ATOM     15  F   UNL     1       8.132   4.314  17.704  0.00  0.00    +0.000 F 
ENDBRANCH  10  12
ENDBRANCH   9  10
ENDBRANCH   6   9
TORSDOF 4
ENDMDL
MODEL 8
REMARK VINA RESULT:      -5.8      2.544      2.955
REMARK  Name = 
REMARK  5 active torsions:
REMARK  status: ('A' for Active; 'I' for Inactive)
REMARK    1  A    between atoms: C_1  and  S_2
REMARK    2  A    between atoms: S_2  and  C_3
REMARK    3  A    between atoms: C_8  and  O_9
REMARK    4  A    between atoms: O_9  and  C_10
REMARK    5  A    between atoms: C_10  and  C_12
REMARK                            x       y       z     vdW  Elec       q    Type
REMARK                         _______ _______ _______ _____ _____    ______ ____
ROOT
ATOM      1  C   UNL     1       3.846   4.743  18.223  0.00  0.00    +0.000 A 
ATOM      2  C   UNL     1       2.603   5.323  18.514  0.00  0.00    +0.000 A 
ATOM      3  C   UNL     1       2.363   6.671  18.232  0.00  0.00    +0.000 A 
ATOM      4  C   UNL     1       3.363   7.452  17.659  0.00  0.00    +0.000 A 
ATOM      5  C   UNL     1       4.608   6.895  17.375  0.00  0.00    +0.000 A 
ATOM      6  C   UNL     1       4.855   5.554  17.676  0.00  0.00    +0.000 A 
ENDROOT
BRANCH   1   8
ATOM      7  C   UNL     1       2.565   2.349  17.762  0.00  0.00    +0.000 C 
ATOM      8  S   UNL     1       4.047   3.002  18.578  0.00  0.00    +0.000 S 
ENDBRANCH   1   8
BRANCH   6   9
ATOM      9  O   UNL     1       6.098   4.960  17.356  0.00  0.00    +0.000 OA
BRANCH   9  10
ATOM     10  C   UNL     1       6.734   5.207  16.132  0.00  0.00    +0.000 C 
ATOM     11  O   UNL     1       7.590   6.065  15.937  0.00  0.00    +0.000 OA
BRANCH  10  12
ATOM     12  C   UNL     1       6.169   4.266  15.075  0.00  0.00    +0.000 C 
ATOM     13  F   UNL     1       7.023   4.030  14.037  0.00  0.00    +0.000 F 
ATOM     14  F   UNL     1       5.867   3.041  15.594  0.00  0.00    +0.000 F 
ATOM     15  F   UNL     1       5.017   4.736  14.517  0.00  0.00    +0.000 F 
ENDBRANCH  10  12
ENDBRANCH   9  10
ENDBRANCH   6   9
TORSDOF 4
ENDMDL
MODEL 9
REMARK VINA RESULT:      -5.8      3.881      5.328
REMARK  Name = 
REMARK  5 active torsions:
REMARK  status: ('A' for Active; 'I' for Inactive)
REMARK    1  A    between atoms: C_1  and  S_2
REMARK    2  A    between atoms: S_2  and  C_3
REMARK    3  A    between atoms: C_8  and  O_9
REMARK    4  A    between atoms: O_9  and  C_10
REMARK    5  A    between atoms: C_10  and  C_12
REMARK                            x       y       z     vdW  Elec       q    Type
REMARK                         _______ _______ _______ _____ _____    ______ ____
ROOT
ATOM      1  C   UNL     1       5.919   4.699  16.712  0.00  0.00    +0.000 A 
ATOM      2  C   UNL     1       7.250   4.946  17.076  0.00  0.00    +0.000 A 
ATOM      3  C   UNL     1       7.577   5.291  18.390  0.00  0.00    +0.000 A 
ATOM      4  C   UNL     1       6.576   5.392  19.353  0.00  0.00    +0.000 A 
ATOM      5  C   UNL     1       5.247   5.160  19.006  0.00  0.00    +0.000 A 
ATOM      6  C   UNL     1       4.918   4.838  17.687  0.00  0.00    +0.000 A 
ENDROOT
BRANCH   1   8
ATOM      7  C   UNL     1       7.136   4.806  14.243  0.00  0.00    +0.000 C 
ATOM      8  S   UNL     1       5.603   4.222  15.017  0.00  0.00    +0.000 S 
ENDBRANCH   1   8
BRANCH   6   9
ATOM      9  O   UNL     1       3.580   4.559  17.325  0.00  0.00    +0.000 OA
BRANCH   9  10
ATOM     10  C   UNL     1       2.906   3.435  17.822  0.00  0.00    +0.000 C 
ATOM     11  O   UNL     1       3.380   2.306  17.918  0.00  0.00    +0.000 OA
BRANCH  10  12
ATOM     12  C   UNL     1       1.481   3.829  18.191  0.00  0.00    +0.000 C 
ATOM     13  F   UNL     1       1.386   4.497  19.377  0.00  0.00    +0.000 F 
ATOM     14  F   UNL     1       0.924   4.651  17.257  0.00  0.00    +0.000 F 
ATOM     15  F   UNL     1       0.649   2.754  18.295  0.00  0.00    +0.000 F 
ENDBRANCH  10  12
ENDBRANCH   9  10
ENDBRANCH   6   9
TORSDOF 4
ENDMDL
