MODEL 1
REMARK VINA RESULT:      -7.7      0.000      0.000
REMARK  Name = 
REMARK  7 active torsions:
REMARK  status: ('A' for Active; 'I' for Inactive)
REMARK    1  A    between atoms: C_1  and  O_2
REMARK    2  A    between atoms: O_2  and  C_3
REMARK    3  A    between atoms: C_6  and  C_7
REMARK    4  A    between atoms: C_9  and  C_10
REMARK    5  A    between atoms: C_14  and  C_15
REMARK    6  A    between atoms: C_20  and  O_21
REMARK    7  A    between atoms: O_21  and  C_22
REMARK                            x       y       z     vdW  Elec       q    Type
REMARK                         _______ _______ _______ _____ _____    ______ ____
ROOT
ATOM      1  C   UNL     1       2.601   7.645  18.376  0.00  0.00    +0.000 A 
ATOM      2  N   UNL     1       2.122   7.796  19.590  0.00  0.00    +0.000 NA
ATOM      3  C   UNL     1       1.344   8.929  19.470  0.00  0.00    +0.000 A 
ATOM      4  N   UNL     1       1.336   9.453  18.233  0.00  0.00    +0.000 NA
ATOM      5  O   UNL     1       2.169   8.607  17.510  0.00  0.00    +0.000 OA
ENDROOT
BRANCH   3   6
ATOM      6  C   UNL     1       0.630   9.519  20.597  0.00  0.00    +0.000 A 
ATOM      7  C   UNL     1       0.648   8.900  21.856  0.00  0.00    +0.000 A 
ATOM      8  C   UNL     1      -0.057   9.448  22.928  0.00  0.00    +0.000 A 
ATOM      9  C   UNL     1      -0.794  10.617  22.751  0.00  0.00    +0.000 A 
ATOM     10  C   UNL     1      -0.827  11.254  21.506  0.00  0.00    +0.000 A 
ATOM     11  C   UNL     1      -1.628  12.506  21.304  0.00  0.00    +0.000 C 
ATOM     12  C   UNL     1      -0.109  10.703  20.436  0.00  0.00    +0.000 A 
ENDBRANCH   3   6
BRANCH   1  16
ATOM     13  C   UNL     1       5.307   4.812  16.649  0.00  0.00    +0.000 A 
ATOM     14  C   UNL     1       4.065   4.393  17.149  0.00  0.00    +0.000 A 
ATOM     15  C   UNL     1       3.179   5.307  17.722  0.00  0.00    +0.000 A 
ATOM     16  C   UNL     1       3.529   6.655  17.843  0.00  0.00    +0.000 A 
ATOM     17  C   UNL     1       4.803   7.050  17.416  0.00  0.00    +0.000 A 
ATOM     18  C   UNL     1       5.704   6.144  16.831  0.00  0.00    +0.000 A 
BRANCH  13  20
ATOM     19  C   UNL     1       6.095   3.965  14.586  0.00  0.00    +0.000 C 
ATOM     20  O   UNL     1       6.138   3.930  16.013  0.00  0.00    +0.000 OA
ENDBRANCH  13  20
BRANCH  18  21
ATOM     21  O   UNL     1       6.885   6.745  16.484  0.00  0.00    +0.000 OA
ATOM     22  C   UNL     1       7.609   7.464  17.470  0.00  0.00    +0.000 C 
ENDBRANCH  18  21
ENDBRANCH   1  16
TORSDOF 4
ENDMDL
MODEL 2
REMARK VINA RESULT:      -7.6      0.962      2.104
REMARK  Name = 
REMARK  7 active torsions:
REMARK  status: ('A' for Active; 'I' for Inactive)
REMARK    1  A    between atoms: C_1  and  O_2
REMARK    2  A    between atoms: O_2  and  C_3
REMARK    3  A    between atoms: C_6  and  C_7
REMARK    4  A    between atoms: C_9  and  C_10
REMARK    5  A    between atoms: C_14  and  C_15
REMARK    6  A    between atoms: C_20  and  O_21
REMARK    7  A    between atoms: O_21  and  C_22
REMARK                            x       y       z     vdW  Elec       q    Type
REMARK                         _______ _______ _______ _____ _____    ______ ____
ROOT
ATOM      1  C   UNL     1       2.561   7.743  18.234  0.00  0.00    +0.000 A 
ATOM      2  N   UNL     1       2.080   7.804  19.455  0.00  0.00    +0.000 NA
ATOM      3  C   UNL     1       1.394   9.001  19.450  0.00  0.00    +0.000 A 
ATOM      4  N   UNL     1       1.443   9.650  18.274  0.00  0.00    +0.000 NA
ATOM      5  O   UNL     1       2.218   8.821  17.471  0.00  0.00    +0.000 OA
ENDROOT
BRANCH   3   6
ATOM      6  C   UNL     1       0.713   9.525  20.629  0.00  0.00    +0.000 A 
ATOM      7  C   UNL     1       0.854   8.893  21.873  0.00  0.00    +0.000 A 
ATOM      8  C   UNL     1       0.181   9.376  22.996  0.00  0.00    +0.000 A 
ATOM      9  C   UNL     1      -0.646  10.493  22.886  0.00  0.00    +0.000 A 
ATOM     10  C   UNL     1      -0.802  11.141  21.656  0.00  0.00    +0.000 A 
ATOM     11  C   UNL     1      -1.699  12.336  21.525  0.00  0.00    +0.000 C 
ATOM     12  C   UNL     1      -0.115  10.655  20.535  0.00  0.00    +0.000 A 
ENDBRANCH   3   6
BRANCH   1  16
ATOM     13  C   UNL     1       5.154   4.782  16.546  0.00  0.00    +0.000 A 
ATOM     14  C   UNL     1       5.269   6.127  16.164  0.00  0.00    +0.000 A 
ATOM     15  C   UNL     1       4.423   7.100  16.701  0.00  0.00    +0.000 A 
ATOM     16  C   UNL     1       3.417   6.744  17.605  0.00  0.00    +0.000 A 
ATOM     17  C   UNL     1       3.256   5.388  17.918  0.00  0.00    +0.000 A 
ATOM     18  C   UNL     1       4.103   4.399  17.392  0.00  0.00    +0.000 A 
BRANCH  13  20
ATOM     19  C   UNL     1       6.356   3.937  14.693  0.00  0.00    +0.000 C 
ATOM     20  O   UNL     1       6.037   3.846  16.082  0.00  0.00    +0.000 OA
ENDBRANCH  13  20
BRANCH  18  21
ATOM     21  O   UNL     1       3.769   3.147  17.836  0.00  0.00    +0.000 OA
ATOM     22  C   UNL     1       2.452   2.667  17.618  0.00  0.00    +0.000 C 
ENDBRANCH  18  21
ENDBRANCH   1  16
TORSDOF 4
ENDMDL
MODEL 3
REMARK VINA RESULT:      -7.4      1.305      1.943
REMARK  Name = 
REMARK  7 active torsions:
REMARK  status: ('A' for Active; 'I' for Inactive)
REMARK    1  A    between atoms: C_1  and  O_2
REMARK    2  A    between atoms: O_2  and  C_3
REMARK    3  A    between atoms: C_6  and  C_7
REMARK    4  A    between atoms: C_9  and  C_10
REMARK    5  A    between atoms: C_14  and  C_15
REMARK    6  A    between atoms: C_20  and  O_21
REMARK    7  A    between atoms: O_21  and  C_22
REMARK                            x       y       z     vdW  Elec       q    Type
REMARK                         _______ _______ _______ _____ _____    ______ ____
ROOT
ATOM      1  C   UNL     1       3.227   6.473  18.832  0.00  0.00    +0.000 A 
ATOM      2  N   UNL     1       2.684   7.666  18.738  0.00  0.00    +0.000 NA
ATOM      3  C   UNL     1       1.865   7.714  19.846  0.00  0.00    +0.000 A 
ATOM      4  N   UNL     1       1.904   6.602  20.599  0.00  0.00    +0.000 NA
ATOM      5  O   UNL     1       2.801   5.779  19.927  0.00  0.00    +0.000 OA
ENDROOT
BRANCH   3   6
ATOM      6  C   UNL     1       1.009   8.857  20.145  0.00  0.00    +0.000 A 
ATOM      7  C   UNL     1       0.731   9.817  19.161  0.00  0.00    +0.000 A 
ATOM      8  C   UNL     1      -0.064  10.925  19.453  0.00  0.00    +0.000 A 
ATOM      9  C   UNL     1      -0.585  11.090  20.736  0.00  0.00    +0.000 A 
ATOM     10  C   UNL     1      -0.323  10.146  21.734  0.00  0.00    +0.000 A 
ATOM     11  C   UNL     1      -0.870  10.321  23.120  0.00  0.00    +0.000 C 
ATOM     12  C   UNL     1       0.469   9.030  21.430  0.00  0.00    +0.000 A 
ENDBRANCH   3   6
BRANCH   1  16
ATOM     13  C   UNL     1       5.929   4.580  16.102  0.00  0.00    +0.000 A 
ATOM     14  C   UNL     1       4.734   3.945  16.474  0.00  0.00    +0.000 A 
ATOM     15  C   UNL     1       3.850   4.549  17.370  0.00  0.00    +0.000 A 
ATOM     16  C   UNL     1       4.158   5.786  17.945  0.00  0.00    +0.000 A 
ATOM     17  C   UNL     1       5.389   6.375  17.632  0.00  0.00    +0.000 A 
ATOM     18  C   UNL     1       6.287   5.783  16.727  0.00  0.00    +0.000 A 
BRANCH  13  20
ATOM     19  C   UNL     1       6.615   4.548  13.839  0.00  0.00    +0.000 C 
ATOM     20  O   UNL     1       6.752   4.025  15.161  0.00  0.00    +0.000 OA
ENDBRANCH  13  20
BRANCH  18  21
ATOM     21  O   UNL     1       7.422   6.532  16.565  0.00  0.00    +0.000 OA
ATOM     22  C   UNL     1       7.711   7.559  17.501  0.00  0.00    +0.000 C 
ENDBRANCH  18  21
ENDBRANCH   1  16
TORSDOF 4
ENDMDL
MODEL 4
REMARK VINA RESULT:      -7.4      1.407      1.732
REMARK  Name = 
REMARK  7 active torsions:
REMARK  status: ('A' for Active; 'I' for Inactive)
REMARK    1  A    between atoms: C_1  and  O_2
REMARK    2  A    between atoms: O_2  and  C_3
REMARK    3  A    between atoms: C_6  and  C_7
REMARK    4  A    between atoms: C_9  and  C_10
REMARK    5  A    between atoms: C_14  and  C_15
REMARK    6  A    between atoms: C_20  and  O_21
REMARK    7  A    between atoms: O_21  and  C_22
REMARK                            x       y       z     vdW  Elec       q    Type
REMARK                         _______ _______ _______ _____ _____    ______ ____
ROOT
ATOM      1  C   UNL     1       3.279   6.236  18.899  0.00  0.00    +0.000 A 
ATOM      2  N   UNL     1       2.854   7.476  18.989  0.00  0.00    +0.000 NA
ATOM      3  C   UNL     1       1.958   7.413  20.036  0.00  0.00    +0.000 A 
ATOM      4  N   UNL     1       1.839   6.189  20.576  0.00  0.00    +0.000 NA
ATOM      5  O   UNL     1       2.709   5.409  19.823  0.00  0.00    +0.000 OA
ENDROOT
BRANCH   3   6
ATOM      6  C   UNL     1       1.186   8.567  20.483  0.00  0.00    +0.000 A 
ATOM      7  C   UNL     1       0.901   8.750  21.845  0.00  0.00    +0.000 A 
ATOM      8  C   UNL     1       0.139   9.838  22.272  0.00  0.00    +0.000 A 
ATOM      9  C   UNL     1      -0.353  10.751  21.342  0.00  0.00    +0.000 A 
ATOM     10  C   UNL     1      -0.082  10.591  19.979  0.00  0.00    +0.000 A 
ATOM     11  C   UNL     1      -0.618  11.563  18.970  0.00  0.00    +0.000 C 
ATOM     12  C   UNL     1       0.692   9.501  19.558  0.00  0.00    +0.000 A 
ENDBRANCH   3   6
BRANCH   1  16
ATOM     13  C   UNL     1       5.977   4.563  16.025  0.00  0.00    +0.000 A 
ATOM     14  C   UNL     1       4.826   3.860  16.411  0.00  0.00    +0.000 A 
ATOM     15  C   UNL     1       3.944   4.393  17.354  0.00  0.00    +0.000 A 
ATOM     16  C   UNL     1       4.212   5.623  17.961  0.00  0.00    +0.000 A 
ATOM     17  C   UNL     1       5.405   6.279  17.631  0.00  0.00    +0.000 A 
ATOM     18  C   UNL     1       6.299   5.761  16.679  0.00  0.00    +0.000 A 
BRANCH  13  20
ATOM     19  C   UNL     1       6.206   3.987  13.743  0.00  0.00    +0.000 C 
ATOM     20  O   UNL     1       6.795   4.079  15.041  0.00  0.00    +0.000 OA
ENDBRANCH  13  20
BRANCH  18  21
ATOM     21  O   UNL     1       7.392   6.567  16.509  0.00  0.00    +0.000 OA
ATOM     22  C   UNL     1       7.684   7.551  17.489  0.00  0.00    +0.000 C 
ENDBRANCH  18  21
ENDBRANCH   1  16
TORSDOF 4
ENDMDL
MODEL 5
REMARK VINA RESULT:      -7.3      1.771      2.402
REMARK  Name = 
REMARK  7 active torsions:
REMARK  status: ('A' for Active; 'I' for Inactive)
REMARK    1  A    between atoms: C_1  and  O_2
REMARK    2  A    between atoms: O_2  and  C_3
REMARK    3  A    between atoms: C_6  and  C_7
REMARK    4  A    between atoms: C_9  and  C_10
REMARK    5  A    between atoms: C_14  and  C_15
REMARK    6  A    between atoms: C_20  and  O_21
REMARK    7  A    between atoms: O_21  and  C_22
REMARK                            x       y       z     vdW  Elec       q    Type
REMARK                         _______ _______ _______ _____ _____    ______ ____
ROOT
ATOM      1  C   UNL     1       2.652   7.492  18.365  0.00  0.00    +0.000 A 
ATOM      2  N   UNL     1       1.933   8.418  17.771  0.00  0.00    +0.000 NA
ATOM      3  C   UNL     1       1.229   8.973  18.819  0.00  0.00    +0.000 A 
ATOM      4  N   UNL     1       1.505   8.420  20.012  0.00  0.00    +0.000 NA
ATOM      5  O   UNL     1       2.442   7.439  19.712  0.00  0.00    +0.000 OA
ENDROOT
BRANCH   3   6
ATOM      6  C   UNL     1       0.248  10.037  18.634  0.00  0.00    +0.000 A 
ATOM      7  C   UNL     1       0.338  11.226  19.373  0.00  0.00    +0.000 A 
ATOM      8  C   UNL     1      -0.615  12.233  19.218  0.00  0.00    +0.000 A 
ATOM      9  C   UNL     1      -1.673  12.060  18.328  0.00  0.00    +0.000 A 
ATOM     10  C   UNL     1      -1.784  10.883  17.579  0.00  0.00    +0.000 A 
ATOM     11  C   UNL     1      -2.926  10.683  16.627  0.00  0.00    +0.000 C 
ATOM     12  C   UNL     1      -0.818   9.880  17.733  0.00  0.00    +0.000 A 
ENDBRANCH   3   6
BRANCH   1  16
ATOM     13  C   UNL     1       5.366   4.707  16.572  0.00  0.00    +0.000 A 
ATOM     14  C   UNL     1       4.115   4.278  17.041  0.00  0.00    +0.000 A 
ATOM     15  C   UNL     1       3.226   5.176  17.635  0.00  0.00    +0.000 A 
ATOM     16  C   UNL     1       3.582   6.517  17.809  0.00  0.00    +0.000 A 
ATOM     17  C   UNL     1       4.864   6.919  17.413  0.00  0.00    +0.000 A 
ATOM     18  C   UNL     1       5.767   6.030  16.807  0.00  0.00    +0.000 A 
BRANCH  13  20
ATOM     19  C   UNL     1       6.178   3.932  14.491  0.00  0.00    +0.000 C 
ATOM     20  O   UNL     1       6.200   3.843  15.916  0.00  0.00    +0.000 OA
ENDBRANCH  13  20
BRANCH  18  21
ATOM     21  O   UNL     1       6.955   6.636  16.497  0.00  0.00    +0.000 OA
ATOM     22  C   UNL     1       7.589   7.450  17.471  0.00  0.00    +0.000 C 
ENDBRANCH  18  21
ENDBRANCH   1  16
TORSDOF 4
ENDMDL
MODEL 6
REMARK VINA RESULT:      -7.3      2.954      8.868
REMARK  Name = 
REMARK  7 active torsions:
REMARK  status: ('A' for Active; 'I' for Inactive)
REMARK    1  A    between atoms: C_1  and  O_2
REMARK    2  A    between atoms: O_2  and  C_3
REMARK    3  A    between atoms: C_6  and  C_7
REMARK    4  A    between atoms: C_9  and  C_10
REMARK    5  A    between atoms: C_14  and  C_15
REMARK    6  A    between atoms: C_20  and  O_21
REMARK    7  A    between atoms: O_21  and  C_22
REMARK                            x       y       z     vdW  Elec       q    Type
REMARK                         _______ _______ _______ _____ _____    ______ ____
ROOT
ATOM      1  C   UNL     1       4.781   5.406  17.464  0.00  0.00    +0.000 A 
ATOM      2  N   UNL     1       4.746   5.349  16.152  0.00  0.00    +0.000 NA
ATOM      3  C   UNL     1       5.960   4.773  15.842  0.00  0.00    +0.000 A 
ATOM      4  N   UNL     1       6.711   4.478  16.916  0.00  0.00    +0.000 NA
ATOM      5  O   UNL     1       5.935   4.901  17.989  0.00  0.00    +0.000 OA
ENDROOT
BRANCH   3   6
ATOM      6  C   UNL     1       6.396   4.542  14.469  0.00  0.00    +0.000 A 
ATOM      7  C   UNL     1       7.438   5.299  13.915  0.00  0.00    +0.000 A 
ATOM      8  C   UNL     1       7.838   5.100  12.593  0.00  0.00    +0.000 A 
ATOM      9  C   UNL     1       7.194   4.144  11.808  0.00  0.00    +0.000 A 
ATOM     10  C   UNL     1       6.152   3.376  12.338  0.00  0.00    +0.000 A 
ATOM     11  C   UNL     1       5.447   2.354  11.497  0.00  0.00    +0.000 C 
ATOM     12  C   UNL     1       5.763   3.576  13.669  0.00  0.00    +0.000 A 
ENDBRANCH   3   6
BRANCH   1  16
ATOM     13  C   UNL     1       1.826   6.888  20.187  0.00  0.00    +0.000 A 
ATOM     14  C   UNL     1       2.298   7.698  19.143  0.00  0.00    +0.000 A 
ATOM     15  C   UNL     1       3.268   7.227  18.254  0.00  0.00    +0.000 A 
ATOM     16  C   UNL     1       3.816   5.951  18.412  0.00  0.00    +0.000 A 
ATOM     17  C   UNL     1       3.399   5.181  19.505  0.00  0.00    +0.000 A 
ATOM     18  C   UNL     1       2.419   5.636  20.404  0.00  0.00    +0.000 A 
BRANCH  13  20
ATOM     19  C   UNL     1       0.991   8.624  21.558  0.00  0.00    +0.000 C 
ATOM     20  O   UNL     1       0.817   7.320  21.004  0.00  0.00    +0.000 OA
ENDBRANCH  13  20
BRANCH  18  21
ATOM     21  O   UNL     1       2.161   4.722  21.390  0.00  0.00    +0.000 OA
ATOM     22  C   UNL     1       2.552   3.371  21.198  0.00  0.00    +0.000 C 
ENDBRANCH  18  21
ENDBRANCH   1  16
TORSDOF 4
ENDMDL
MODEL 7
REMARK VINA RESULT:      -7.3      2.363      8.293
REMARK  Name = 
REMARK  7 active torsions:
REMARK  status: ('A' for Active; 'I' for Inactive)
REMARK    1  A    between atoms: C_1  and  O_2
REMARK    2  A    between atoms: O_2  and  C_3
REMARK    3  A    between atoms: C_6  and  C_7
REMARK    4  A    between atoms: C_9  and  C_10
REMARK    5  A    between atoms: C_14  and  C_15
REMARK    6  A    between atoms: C_20  and  O_21
REMARK    7  A    between atoms: O_21  and  C_22
REMARK                            x       y       z     vdW  Elec       q    Type
REMARK                         _______ _______ _______ _____ _____    ______ ____
ROOT
ATOM      1  C   UNL     1       1.509   8.873  19.462  0.00  0.00    +0.000 A 
ATOM      2  N   UNL     1       2.000   7.655  19.493  0.00  0.00    +0.000 NA
ATOM      3  C   UNL     1       2.566   7.525  18.243  0.00  0.00    +0.000 A 
ATOM      4  N   UNL     1       2.439   8.619  17.473  0.00  0.00    +0.000 NA
ATOM      5  O   UNL     1       1.736   9.509  18.276  0.00  0.00    +0.000 OA
ENDROOT
BRANCH   3   6
ATOM      6  C   UNL     1       3.210   6.296  17.792  0.00  0.00    +0.000 A 
ATOM      7  C   UNL     1       4.465   6.336  17.166  0.00  0.00    +0.000 A 
ATOM      8  C   UNL     1       5.070   5.165  16.709  0.00  0.00    +0.000 A 
ATOM      9  C   UNL     1       4.423   3.941  16.867  0.00  0.00    +0.000 A 
ATOM     10  C   UNL     1       3.172   3.874  17.489  0.00  0.00    +0.000 A 
ATOM     11  C   UNL     1       2.464   2.562  17.652  0.00  0.00    +0.000 C 
ATOM     12  C   UNL     1       2.575   5.054  17.953  0.00  0.00    +0.000 A 
ENDBRANCH   3   6
BRANCH   1  16
ATOM     13  C   UNL     1      -0.591  11.139  22.428  0.00  0.00    +0.000 A 
ATOM     14  C   UNL     1      -0.285   9.788  22.652  0.00  0.00    +0.000 A 
ATOM     15  C   UNL     1       0.392   9.038  21.688  0.00  0.00    +0.000 A 
ATOM     16  C   UNL     1       0.745   9.610  20.462  0.00  0.00    +0.000 A 
ATOM     17  C   UNL     1       0.363  10.935  20.214  0.00  0.00    +0.000 A 
ATOM     18  C   UNL     1      -0.312  11.705  21.176  0.00  0.00    +0.000 A 
BRANCH  13  20
ATOM     19  C   UNL     1      -2.603  11.981  23.341  0.00  0.00    +0.000 C 
ATOM     20  O   UNL     1      -1.179  11.894  23.406  0.00  0.00    +0.000 OA
ENDBRANCH  13  20
BRANCH  18  21
ATOM     21  O   UNL     1      -0.580  12.970  20.725  0.00  0.00    +0.000 OA
ATOM     22  C   UNL     1      -0.658  13.202  19.327  0.00  0.00    +0.000 C 
ENDBRANCH  18  21
ENDBRANCH   1  16
TORSDOF 4
ENDMDL
MODEL 8
REMARK VINA RESULT:      -7.3      3.494      8.798
REMARK  Name = 
REMARK  7 active torsions:
REMARK  status: ('A' for Active; 'I' for Inactive)
REMARK    1  A    between atoms: C_1  and  O_2
REMARK    2  A    between atoms: O_2  and  C_3
REMARK    3  A    between atoms: C_6  and  C_7
REMARK    4  A    between atoms: C_9  and  C_10
REMARK    5  A    between atoms: C_14  and  C_15
REMARK    6  A    between atoms: C_20  and  O_21
REMARK    7  A    between atoms: O_21  and  C_22
REMARK                            x       y       z     vdW  Elec       q    Type
REMARK                         _______ _______ _______ _____ _____    ______ ____
ROOT
ATOM      1  C   UNL     1       4.790   4.682  17.389  0.00  0.00    +0.000 A 
ATOM      2  N   UNL     1       5.141   3.980  16.335  0.00  0.00    +0.000 NA
ATOM      3  C   UNL     1       5.752   4.922  15.534  0.00  0.00    +0.000 A 
ATOM      4  N   UNL     1       5.785   6.153  16.072  0.00  0.00    +0.000 NA
ATOM      5  O   UNL     1       5.146   5.996  17.296  0.00  0.00    +0.000 OA
ENDROOT
BRANCH   3   6
ATOM      6  C   UNL     1       6.278   4.610  14.210  0.00  0.00    +0.000 A 
ATOM      7  C   UNL     1       7.320   5.371  13.658  0.00  0.00    +0.000 A 
ATOM      8  C   UNL     1       7.805   5.092  12.381  0.00  0.00    +0.000 A 
ATOM      9  C   UNL     1       7.250   4.052  11.637  0.00  0.00    +0.000 A 
ATOM     10  C   UNL     1       6.211   3.278  12.165  0.00  0.00    +0.000 A 
ATOM     11  C   UNL     1       5.600   2.164  11.367  0.00  0.00    +0.000 C 
ATOM     12  C   UNL     1       5.736   3.558  13.453  0.00  0.00    +0.000 A 
ENDBRANCH   3   6
BRANCH   1  16
ATOM     13  C   UNL     1       2.752   3.633  21.006  0.00  0.00    +0.000 A 
ATOM     14  C   UNL     1       3.569   2.697  20.355  0.00  0.00    +0.000 A 
ATOM     15  C   UNL     1       4.231   3.026  19.170  0.00  0.00    +0.000 A 
ATOM     16  C   UNL     1       4.062   4.286  18.588  0.00  0.00    +0.000 A 
ATOM     17  C   UNL     1       3.180   5.186  19.201  0.00  0.00    +0.000 A 
ATOM     18  C   UNL     1       2.512   4.873  20.397  0.00  0.00    +0.000 A 
BRANCH  13  20
ATOM     19  C   UNL     1       1.084   2.414  22.156  0.00  0.00    +0.000 C 
ATOM     20  O   UNL     1       2.172   3.337  22.209  0.00  0.00    +0.000 OA
ENDBRANCH  13  20
BRANCH  18  21
ATOM     21  O   UNL     1       1.708   5.898  20.819  0.00  0.00    +0.000 OA
ATOM     22  C   UNL     1       1.873   7.186  20.246  0.00  0.00    +0.000 C 
ENDBRANCH  18  21
ENDBRANCH   1  16
TORSDOF 4
ENDMDL
MODEL 9
REMARK VINA RESULT:      -7.2      1.475      2.736
REMARK  Name = 
REMARK  7 active torsions:
REMARK  status: ('A' for Active; 'I' for Inactive)
REMARK    1  A    between atoms: C_1  and  O_2
REMARK    2  A    between atoms: O_2  and  C_3
REMARK    3  A    between atoms: C_6  and  C_7
REMARK    4  A    between atoms: C_9  and  C_10
REMARK    5  A    between atoms: C_14  and  C_15
REMARK    6  A    between atoms: C_20  and  O_21
REMARK    7  A    between atoms: O_21  and  C_22
REMARK                            x       y       z     vdW  Elec       q    Type
REMARK                         _______ _______ _______ _____ _____    ______ ____
ROOT
ATOM      1  C   UNL     1       2.689   6.912  18.886  0.00  0.00    +0.000 A 
ATOM      2  N   UNL     1       2.179   8.112  18.721  0.00  0.00    +0.000 NA
ATOM      3  C   UNL     1       1.486   8.311  19.897  0.00  0.00    +0.000 A 
ATOM      4  N   UNL     1       1.569   7.282  20.756  0.00  0.00    +0.000 NA
ATOM      5  O   UNL     1       2.360   6.356  20.088  0.00  0.00    +0.000 OA
ENDROOT
BRANCH   3   6
ATOM      6  C   UNL     1       0.706   9.516  20.158  0.00  0.00    +0.000 A 
ATOM      7  C   UNL     1       0.574  10.508  19.175  0.00  0.00    +0.000 A 
ATOM      8  C   UNL     1      -0.148  11.673  19.433  0.00  0.00    +0.000 A 
ATOM      9  C   UNL     1      -0.740  11.864  20.681  0.00  0.00    +0.000 A 
ATOM     10  C   UNL     1      -0.623  10.889  21.677  0.00  0.00    +0.000 A 
ATOM     11  C   UNL     1      -1.247  11.091  23.026  0.00  0.00    +0.000 C 
ATOM     12  C   UNL     1       0.096   9.717  21.407  0.00  0.00    +0.000 A 
ENDBRANCH   3   6
BRANCH   1  16
ATOM     13  C   UNL     1       5.148   4.456  16.385  0.00  0.00    +0.000 A 
ATOM     14  C   UNL     1       5.222   5.854  16.300  0.00  0.00    +0.000 A 
ATOM     15  C   UNL     1       4.418   6.665  17.104  0.00  0.00    +0.000 A 
ATOM     16  C   UNL     1       3.494   6.096  17.986  0.00  0.00    +0.000 A 
ATOM     17  C   UNL     1       3.369   4.701  18.006  0.00  0.00    +0.000 A 
ATOM     18  C   UNL     1       4.175   3.871  17.209  0.00  0.00    +0.000 A 
BRANCH  13  20
ATOM     19  C   UNL     1       6.106   3.996  14.272  0.00  0.00    +0.000 C 
ATOM     20  O   UNL     1       5.995   3.665  15.657  0.00  0.00    +0.000 OA
ENDBRANCH  13  20
BRANCH  18  21
ATOM     21  O   UNL     1       3.887   2.545  17.392  0.00  0.00    +0.000 OA
ATOM     22  C   UNL     1       3.460   2.102  18.671  0.00  0.00    +0.000 C 
ENDBRANCH  18  21
ENDBRANCH   1  16
TORSDOF 4
ENDMDL
