MODEL 1
REMARK VINA RESULT:      -9.1      0.000      0.000
REMARK  Name = 
REMARK  12 active torsions:
REMARK  status: ('A' for Active; 'I' for Inactive)
REMARK    1  A    between atoms: C_1  and  C_2
REMARK    2  A    between atoms: C_5  and  C_6
REMARK    3  A    between atoms: C_6  and  N_7
REMARK    4  A    between atoms: C_6  and  C_27
REMARK    5  A    between atoms: N_7  and  C_8
REMARK    6  A    between atoms: C_9  and  N_10
REMARK    7  A    between atoms: N_10  and  C_11
REMARK    8  A    between atoms: C_15  and  C_16
REMARK    9  A    between atoms: N_18  and  C_19
REMARK   10  A    between atoms: N_18  and  C_20
REMARK   11  A    between atoms: C_21  and  O_22
REMARK   12  A    between atoms: C_27  and  C_28
REMARK                            x       y       z     vdW  Elec       q    Type
REMARK                         _______ _______ _______ _____ _____    ______ ____
ROOT
ATOM      1  C   UNL     1       4.137   3.848  19.333  0.00  0.00    +0.000 C 
ATOM      2  C   UNL     1       3.015   4.489  19.796  0.00  0.00    +0.000 C 
ATOM      3  C   UNL     1       2.157   3.311  19.506  0.00  0.00    +0.000 C 
ATOM      4  O   UNL     1       1.011   2.961  19.595  0.00  0.00    +0.000 OA
ATOM      5  C   UNL     1       3.361   2.643  18.932  0.00  0.00    +0.000 C 
ATOM      6  O   UNL     1       3.540   1.598  18.393  0.00  0.00    +0.000 OA
ENDROOT
BRANCH   1   7
ATOM      7  N   UNL     1       5.429   4.051  19.186  0.00  0.00    +0.000 N 
ATOM      8  H   UNL     1       6.123   3.329  19.400  0.00  0.00    +0.000 HD
BRANCH   7   9
ATOM      9  C   UNL     1       5.973   5.103  18.300  0.00  0.00    +0.000 C 
BRANCH   9  14
ATOM     10  C   UNL     1       7.591   5.132  13.709  0.00  0.00    +0.000 C 
ATOM     11  C   UNL     1       6.601   4.801  14.755  0.00  0.00    +0.000 A 
ATOM     12  C   UNL     1       5.370   4.184  14.730  0.00  0.00    +0.000 A 
ATOM     13  C   UNL     1       4.910   4.164  16.066  0.00  0.00    +0.000 A 
ATOM     14  C   UNL     1       5.886   4.765  16.835  0.00  0.00    +0.000 A 
ATOM     15  O   UNL     1       6.918   5.165  16.030  0.00  0.00    +0.000 OA
ENDBRANCH   9  14
BRANCH   9  16
ATOM     16  C   UNL     1       7.397   5.470  18.792  0.00  0.00    +0.000 C 
ATOM     17  C   UNL     1       7.841   6.866  18.384  0.00  0.00    +0.000 C 
ATOM     18  F   UNL     1       8.310   4.556  18.356  0.00  0.00    +0.000 F 
ENDBRANCH   9  16
ENDBRANCH   7   9
ENDBRANCH   1   7
BRANCH   2  19
ATOM     19  N   UNL     1       2.716   5.660  20.328  0.00  0.00    +0.000 N 
ATOM     20  H   UNL     1       2.263   5.741  21.239  0.00  0.00    +0.000 HD
BRANCH  19  21
ATOM     21  C   UNL     1       2.478   6.843  19.578  0.00  0.00    +0.000 A 
ATOM     22  C   UNL     1       2.959   6.971  18.272  0.00  0.00    +0.000 A 
ATOM     23  C   UNL     1       2.675   8.109  17.528  0.00  0.00    +0.000 A 
ATOM     24  C   UNL     1       1.814   9.076  18.053  0.00  0.00    +0.000 A 
ATOM     25  C   UNL     1       1.340   8.999  19.381  0.00  0.00    +0.000 A 
ATOM     26  C   UNL     1       1.845   7.959  20.159  0.00  0.00    +0.000 A 
BRANCH  25  27
ATOM     27  C   UNL     1       0.419  10.086  19.857  0.00  0.00    +0.000 C 
ATOM     28  O   UNL     1       0.731  10.607  20.933  0.00  0.00    +0.000 OA
ATOM     29  N   UNL     1      -0.717  10.536  19.154  0.00  0.00    +0.000 N 
ATOM     30  C   UNL     1      -1.273  10.079  17.879  0.00  0.00    +0.000 C 
ATOM     31  C   UNL     1      -1.497  11.610  19.763  0.00  0.00    +0.000 C 
ENDBRANCH  25  27
BRANCH  26  32
ATOM     32  O   UNL     1       1.930   8.063  21.529  0.00  0.00    +0.000 OA
ATOM     33  H   UNL     1       1.776   7.163  21.880  0.00  0.00    +0.000 HD
ENDBRANCH  26  32
ENDBRANCH  19  21
ENDBRANCH   2  19
TORSDOF 8
ENDMDL
MODEL 2
REMARK VINA RESULT:      -9.1      0.985      1.094
REMARK  Name = 
REMARK  12 active torsions:
REMARK  status: ('A' for Active; 'I' for Inactive)
REMARK    1  A    between atoms: C_1  and  C_2
REMARK    2  A    between atoms: C_5  and  C_6
REMARK    3  A    between atoms: C_6  and  N_7
REMARK    4  A    between atoms: C_6  and  C_27
REMARK    5  A    between atoms: N_7  and  C_8
REMARK    6  A    between atoms: C_9  and  N_10
REMARK    7  A    between atoms: N_10  and  C_11
REMARK    8  A    between atoms: C_15  and  C_16
REMARK    9  A    between atoms: N_18  and  C_19
REMARK   10  A    between atoms: N_18  and  C_20
REMARK   11  A    between atoms: C_21  and  O_22
REMARK   12  A    between atoms: C_27  and  C_28
REMARK                            x       y       z     vdW  Elec       q    Type
REMARK                         _______ _______ _______ _____ _____    ______ ____
ROOT
ATOM      1  C   UNL     1       4.429   3.980  18.831  0.00  0.00    +0.000 C 
ATOM      2  C   UNL     1       3.366   4.609  19.429  0.00  0.00    +0.000 C 
ATOM      3  C   UNL     1       2.464   3.460  19.155  0.00  0.00    +0.000 C 
ATOM      4  O   UNL     1       1.325   3.120  19.329  0.00  0.00    +0.000 OA
ATOM      5  C   UNL     1       3.599   2.810  18.437  0.00  0.00    +0.000 C 
ATOM      6  O   UNL     1       3.709   1.795  17.827  0.00  0.00    +0.000 OA
ENDROOT
BRANCH   1   7
ATOM      7  N   UNL     1       5.706   4.174  18.577  0.00  0.00    +0.000 N 
ATOM      8  H   UNL     1       6.408   3.441  18.715  0.00  0.00    +0.000 HD
BRANCH   7   9
ATOM      9  C   UNL     1       6.183   5.241  17.670  0.00  0.00    +0.000 C 
BRANCH   9  14
ATOM     10  C   UNL     1       7.973   5.327  13.144  0.00  0.00    +0.000 C 
ATOM     11  C   UNL     1       7.000   4.894  14.167  0.00  0.00    +0.000 A 
ATOM     12  C   UNL     1       5.877   4.098  14.127  0.00  0.00    +0.000 A 
ATOM     13  C   UNL     1       5.369   4.062  15.445  0.00  0.00    +0.000 A 
ATOM     14  C   UNL     1       6.210   4.835  16.220  0.00  0.00    +0.000 A 
ATOM     15  O   UNL     1       7.204   5.353  15.435  0.00  0.00    +0.000 OA
ENDBRANCH   9  14
BRANCH   9  16
ATOM     16  C   UNL     1       7.534   5.777  18.213  0.00  0.00    +0.000 C 
ATOM     17  C   UNL     1       7.695   5.610  19.716  0.00  0.00    +0.000 C 
ATOM     18  F   UNL     1       7.703   7.088  17.879  0.00  0.00    +0.000 F 
ENDBRANCH   9  16
ENDBRANCH   7   9
ENDBRANCH   1   7
BRANCH   2  19
ATOM     19  N   UNL     1       3.138   5.752  20.050  0.00  0.00    +0.000 N 
ATOM     20  H   UNL     1       2.892   5.790  21.040  0.00  0.00    +0.000 HD
BRANCH  19  21
ATOM     21  C   UNL     1       2.689   6.937  19.407  0.00  0.00    +0.000 A 
ATOM     22  C   UNL     1       3.075   7.230  18.096  0.00  0.00    +0.000 A 
ATOM     23  C   UNL     1       2.588   8.363  17.459  0.00  0.00    +0.000 A 
ATOM     24  C   UNL     1       1.623   9.148  18.094  0.00  0.00    +0.000 A 
ATOM     25  C   UNL     1       1.237   8.905  19.430  0.00  0.00    +0.000 A 
ATOM     26  C   UNL     1       1.930   7.898  20.101  0.00  0.00    +0.000 A 
BRANCH  25  27
ATOM     27  C   UNL     1       0.193   9.803  20.029  0.00  0.00    +0.000 C 
ATOM     28  O   UNL     1      -0.684   9.228  20.683  0.00  0.00    +0.000 OA
ATOM     29  N   UNL     1       0.181  11.207  19.907  0.00  0.00    +0.000 N 
ATOM     30  C   UNL     1       1.101  12.095  19.196  0.00  0.00    +0.000 C 
ATOM     31  C   UNL     1      -0.910  11.924  20.563  0.00  0.00    +0.000 C 
ENDBRANCH  25  27
BRANCH  26  32
ATOM     32  O   UNL     1       2.072   7.914  21.471  0.00  0.00    +0.000 OA
ATOM     33  H   UNL     1       1.456   7.238  21.816  0.00  0.00    +0.000 HD
ENDBRANCH  26  32
ENDBRANCH  19  21
ENDBRANCH   2  19
TORSDOF 8
ENDMDL
MODEL 3
REMARK VINA RESULT:      -9.0      1.067      1.326
REMARK  Name = 
REMARK  12 active torsions:
REMARK  status: ('A' for Active; 'I' for Inactive)
REMARK    1  A    between atoms: C_1  and  C_2
REMARK    2  A    between atoms: C_5  and  C_6
REMARK    3  A    between atoms: C_6  and  N_7
REMARK    4  A    between atoms: C_6  and  C_27
REMARK    5  A    between atoms: N_7  and  C_8
REMARK    6  A    between atoms: C_9  and  N_10
REMARK    7  A    between atoms: N_10  and  C_11
REMARK    8  A    between atoms: C_15  and  C_16
REMARK    9  A    between atoms: N_18  and  C_19
REMARK   10  A    between atoms: N_18  and  C_20
REMARK   11  A    between atoms: C_21  and  O_22
REMARK   12  A    between atoms: C_27  and  C_28
REMARK                            x       y       z     vdW  Elec       q    Type
REMARK                         _______ _______ _______ _____ _____    ______ ____
ROOT
ATOM      1  C   UNL     1       4.107   4.221  19.423  0.00  0.00    +0.000 C 
ATOM      2  C   UNL     1       2.989   4.871  19.885  0.00  0.00    +0.000 C 
ATOM      3  C   UNL     1       2.110   3.730  19.520  0.00  0.00    +0.000 C 
ATOM      4  O   UNL     1       0.954   3.406  19.564  0.00  0.00    +0.000 OA
ATOM      5  C   UNL     1       3.312   3.055  18.949  0.00  0.00    +0.000 C 
ATOM      6  O   UNL     1       3.479   2.031  18.369  0.00  0.00    +0.000 OA
ENDROOT
BRANCH   1   7
ATOM      7  N   UNL     1       5.407   4.396  19.319  0.00  0.00    +0.000 N 
ATOM      8  H   UNL     1       6.071   3.620  19.401  0.00  0.00    +0.000 HD
BRANCH   7   9
ATOM      9  C   UNL     1       6.000   5.568  18.639  0.00  0.00    +0.000 C 
BRANCH   9  14
ATOM     10  C   UNL     1       6.147   3.741  14.130  0.00  0.00    +0.000 C 
ATOM     11  C   UNL     1       5.826   4.795  15.114  0.00  0.00    +0.000 A 
ATOM     12  C   UNL     1       5.283   6.056  15.006  0.00  0.00    +0.000 A 
ATOM     13  C   UNL     1       5.228   6.577  16.318  0.00  0.00    +0.000 A 
ATOM     14  C   UNL     1       5.736   5.606  17.157  0.00  0.00    +0.000 A 
ATOM     15  O   UNL     1       6.113   4.517  16.418  0.00  0.00    +0.000 OA
ENDBRANCH   9  14
BRANCH   9  16
ATOM     16  C   UNL     1       7.500   5.653  19.027  0.00  0.00    +0.000 C 
ATOM     17  C   UNL     1       8.158   6.964  18.627  0.00  0.00    +0.000 C 
ATOM     18  F   UNL     1       8.197   4.611  18.493  0.00  0.00    +0.000 F 
ENDBRANCH   9  16
ENDBRANCH   7   9
ENDBRANCH   1   7
BRANCH   2  19
ATOM     19  N   UNL     1       2.706   6.025  20.460  0.00  0.00    +0.000 N 
ATOM     20  H   UNL     1       2.377   6.082  21.425  0.00  0.00    +0.000 HD
BRANCH  19  21
ATOM     21  C   UNL     1       2.309   7.194  19.758  0.00  0.00    +0.000 A 
ATOM     22  C   UNL     1       2.657   7.375  18.416  0.00  0.00    +0.000 A 
ATOM     23  C   UNL     1       2.219   8.497  17.723  0.00  0.00    +0.000 A 
ATOM     24  C   UNL     1       1.336   9.385  18.341  0.00  0.00    +0.000 A 
ATOM     25  C   UNL     1       0.993   9.255  19.705  0.00  0.00    +0.000 A 
ATOM     26  C   UNL     1       1.646   8.248  20.415  0.00  0.00    +0.000 A 
BRANCH  25  27
ATOM     27  C   UNL     1       0.036  10.259  20.282  0.00  0.00    +0.000 C 
ATOM     28  O   UNL     1      -1.107   9.839  20.488  0.00  0.00    +0.000 OA
ATOM     29  N   UNL     1       0.374  11.588  20.609  0.00  0.00    +0.000 N 
ATOM     30  C   UNL     1       1.646  12.297  20.460  0.00  0.00    +0.000 C 
ATOM     31  C   UNL     1      -0.683  12.426  21.170  0.00  0.00    +0.000 C 
ENDBRANCH  25  27
BRANCH  26  32
ATOM     32  O   UNL     1       1.848   8.343  21.773  0.00  0.00    +0.000 OA
ATOM     33  H   UNL     1       1.994   7.429  22.090  0.00  0.00    +0.000 HD
ENDBRANCH  26  32
ENDBRANCH  19  21
ENDBRANCH   2  19
TORSDOF 8
ENDMDL
MODEL 4
REMARK VINA RESULT:      -8.9      1.582      2.592
REMARK  Name = 
REMARK  12 active torsions:
REMARK  status: ('A' for Active; 'I' for Inactive)
REMARK    1  A    between atoms: C_1  and  C_2
REMARK    2  A    between atoms: C_5  and  C_6
REMARK    3  A    between atoms: C_6  and  N_7
REMARK    4  A    between atoms: C_6  and  C_27
REMARK    5  A    between atoms: N_7  and  C_8
REMARK    6  A    between atoms: C_9  and  N_10
REMARK    7  A    between atoms: N_10  and  C_11
REMARK    8  A    between atoms: C_15  and  C_16
REMARK    9  A    between atoms: N_18  and  C_19
REMARK   10  A    between atoms: N_18  and  C_20
REMARK   11  A    between atoms: C_21  and  O_22
REMARK   12  A    between atoms: C_27  and  C_28
REMARK                            x       y       z     vdW  Elec       q    Type
REMARK                         _______ _______ _______ _____ _____    ______ ____
ROOT
ATOM      1  C   UNL     1       2.931   4.931  18.125  0.00  0.00    +0.000 C 
ATOM      2  C   UNL     1       2.366   5.379  19.293  0.00  0.00    +0.000 C 
ATOM      3  C   UNL     1       1.602   4.117  19.470  0.00  0.00    +0.000 C 
ATOM      4  O   UNL     1       0.828   3.607  20.234  0.00  0.00    +0.000 OA
ATOM      5  C   UNL     1       2.156   3.661  18.162  0.00  0.00    +0.000 C 
ATOM      6  O   UNL     1       1.991   2.690  17.495  0.00  0.00    +0.000 OA
ENDROOT
BRANCH   1   7
ATOM      7  N   UNL     1       3.784   5.319  17.201  0.00  0.00    +0.000 N 
ATOM      8  H   UNL     1       3.725   6.241  16.756  0.00  0.00    +0.000 HD
BRANCH   7   9
ATOM      9  C   UNL     1       5.122   4.709  17.046  0.00  0.00    +0.000 C 
BRANCH   9  14
ATOM     10  C   UNL     1       8.028   8.559  17.702  0.00  0.00    +0.000 C 
ATOM     11  C   UNL     1       7.552   7.197  18.023  0.00  0.00    +0.000 A 
ATOM     12  C   UNL     1       7.950   6.249  18.939  0.00  0.00    +0.000 A 
ATOM     13  C   UNL     1       7.095   5.139  18.756  0.00  0.00    +0.000 A 
ATOM     14  C   UNL     1       6.218   5.470  17.742  0.00  0.00    +0.000 A 
ATOM     15  O   UNL     1       6.505   6.728  17.286  0.00  0.00    +0.000 OA
ENDBRANCH   9  14
BRANCH   9  16
ATOM     16  C   UNL     1       5.373   4.456  15.536  0.00  0.00    +0.000 C 
ATOM     17  C   UNL     1       6.797   4.024  15.221  0.00  0.00    +0.000 C 
ATOM     18  F   UNL     1       5.058   5.560  14.802  0.00  0.00    +0.000 F 
ENDBRANCH   9  16
ENDBRANCH   7   9
ENDBRANCH   1   7
BRANCH   2  19
ATOM     19  N   UNL     1       2.429   6.459  20.050  0.00  0.00    +0.000 N 
ATOM     20  H   UNL     1       2.387   6.409  21.069  0.00  0.00    +0.000 HD
BRANCH  19  21
ATOM     21  C   UNL     1       2.040   7.758  19.627  0.00  0.00    +0.000 A 
ATOM     22  C   UNL     1       2.282   8.187  18.319  0.00  0.00    +0.000 A 
ATOM     23  C   UNL     1       1.850   9.438  17.899  0.00  0.00    +0.000 A 
ATOM     24  C   UNL     1       1.074  10.220  18.758  0.00  0.00    +0.000 A 
ATOM     25  C   UNL     1       0.842   9.837  20.097  0.00  0.00    +0.000 A 
ATOM     26  C   UNL     1       1.495   8.687  20.534  0.00  0.00    +0.000 A 
BRANCH  25  27
ATOM     27  C   UNL     1      -0.005  10.744  20.945  0.00  0.00    +0.000 C 
ATOM     28  O   UNL     1       0.407  10.924  22.096  0.00  0.00    +0.000 OA
ATOM     29  N   UNL     1      -1.176  11.390  20.501  0.00  0.00    +0.000 N 
ATOM     30  C   UNL     1      -1.844  11.332  19.200  0.00  0.00    +0.000 C 
ATOM     31  C   UNL     1      -1.871  12.244  21.461  0.00  0.00    +0.000 C 
ENDBRANCH  25  27
BRANCH  26  32
ATOM     32  O   UNL     1       1.817   8.503  21.860  0.00  0.00    +0.000 OA
ATOM     33  H   UNL     1       2.778   8.323  21.885  0.00  0.00    +0.000 HD
ENDBRANCH  26  32
ENDBRANCH  19  21
ENDBRANCH   2  19
TORSDOF 8
ENDMDL
MODEL 5
REMARK VINA RESULT:      -8.9      1.452      1.656
REMARK  Name = 
REMARK  12 active torsions:
REMARK  status: ('A' for Active; 'I' for Inactive)
REMARK    1  A    between atoms: C_1  and  C_2
REMARK    2  A    between atoms: C_5  and  C_6
REMARK    3  A    between atoms: C_6  and  N_7
REMARK    4  A    between atoms: C_6  and  C_27
REMARK    5  A    between atoms: N_7  and  C_8
REMARK    6  A    between atoms: C_9  and  N_10
REMARK    7  A    between atoms: N_10  and  C_11
REMARK    8  A    between atoms: C_15  and  C_16
REMARK    9  A    between atoms: N_18  and  C_19
REMARK   10  A    between atoms: N_18  and  C_20
REMARK   11  A    between atoms: C_21  and  O_22
REMARK   12  A    between atoms: C_27  and  C_28
REMARK                            x       y       z     vdW  Elec       q    Type
REMARK                         _______ _______ _______ _____ _____    ______ ____
ROOT
ATOM      1  C   UNL     1       4.432   3.220  19.369  0.00  0.00    +0.000 C 
ATOM      2  C   UNL     1       3.130   3.605  19.570  0.00  0.00    +0.000 C 
ATOM      3  C   UNL     1       3.048   2.848  20.846  0.00  0.00    +0.000 C 
ATOM      4  O   UNL     1       2.268   2.612  21.729  0.00  0.00    +0.000 OA
ATOM      5  C   UNL     1       4.436   2.368  20.589  0.00  0.00    +0.000 C 
ATOM      6  O   UNL     1       5.162   1.616  21.157  0.00  0.00    +0.000 OA
ENDROOT
BRANCH   1   7
ATOM      7  N   UNL     1       5.416   3.391  18.511  0.00  0.00    +0.000 N 
ATOM      8  H   UNL     1       5.701   2.658  17.854  0.00  0.00    +0.000 HD
BRANCH   7   9
ATOM      9  C   UNL     1       5.881   4.730  18.090  0.00  0.00    +0.000 C 
BRANCH   9  14
ATOM     10  C   UNL     1       5.980   3.522  13.376  0.00  0.00    +0.000 C 
ATOM     11  C   UNL     1       5.762   4.469  14.489  0.00  0.00    +0.000 A 
ATOM     12  C   UNL     1       5.400   5.796  14.543  0.00  0.00    +0.000 A 
ATOM     13  C   UNL     1       5.357   6.140  15.913  0.00  0.00    +0.000 A 
ATOM     14  C   UNL     1       5.691   5.003  16.622  0.00  0.00    +0.000 A 
ATOM     15  O   UNL     1       5.949   3.981  15.749  0.00  0.00    +0.000 OA
ENDBRANCH   9  14
BRANCH   9  16
ATOM     16  C   UNL     1       7.334   4.926  18.598  0.00  0.00    +0.000 C 
ATOM     17  C   UNL     1       7.768   6.383  18.650  0.00  0.00    +0.000 C 
ATOM     18  F   UNL     1       8.212   4.215  17.837  0.00  0.00    +0.000 F 
ENDBRANCH   9  16
ENDBRANCH   7   9
ENDBRANCH   1   7
BRANCH   2  19
ATOM     19  N   UNL     1       2.236   4.360  18.958  0.00  0.00    +0.000 N 
ATOM     20  H   UNL     1       1.679   4.012  18.176  0.00  0.00    +0.000 HD
BRANCH  19  21
ATOM     21  C   UNL     1       2.284   5.779  18.907  0.00  0.00    +0.000 A 
ATOM     22  C   UNL     1       2.728   6.438  17.758  0.00  0.00    +0.000 A 
ATOM     23  C   UNL     1       2.721   7.826  17.699  0.00  0.00    +0.000 A 
ATOM     24  C   UNL     1       2.164   8.556  18.751  0.00  0.00    +0.000 A 
ATOM     25  C   UNL     1       1.741   7.926  19.943  0.00  0.00    +0.000 A 
ATOM     26  C   UNL     1       1.988   6.558  20.042  0.00  0.00    +0.000 A 
BRANCH  25  27
ATOM     27  C   UNL     1       1.156   8.794  21.020  0.00  0.00    +0.000 C 
ATOM     28  O   UNL     1       1.683   8.681  22.132  0.00  0.00    +0.000 OA
ATOM     29  N   UNL     1       0.100   9.708  20.825  0.00  0.00    +0.000 N 
ATOM     30  C   UNL     1      -0.666  10.012  19.616  0.00  0.00    +0.000 C 
ATOM     31  C   UNL     1      -0.340  10.477  21.986  0.00  0.00    +0.000 C 
ENDBRANCH  25  27
BRANCH  26  32
ATOM     32  O   UNL     1       2.153   5.944  21.263  0.00  0.00    +0.000 OA
ATOM     33  H   UNL     1       3.118   5.889  21.411  0.00  0.00    +0.000 HD
ENDBRANCH  26  32
ENDBRANCH  19  21
ENDBRANCH   2  19
TORSDOF 8
ENDMDL
MODEL 6
REMARK VINA RESULT:      -8.7      1.358      1.523
REMARK  Name = 
REMARK  12 active torsions:
REMARK  status: ('A' for Active; 'I' for Inactive)
REMARK    1  A    between atoms: C_1  and  C_2
REMARK    2  A    between atoms: C_5  and  C_6
REMARK    3  A    between atoms: C_6  and  N_7
REMARK    4  A    between atoms: C_6  and  C_27
REMARK    5  A    between atoms: N_7  and  C_8
REMARK    6  A    between atoms: C_9  and  N_10
REMARK    7  A    between atoms: N_10  and  C_11
REMARK    8  A    between atoms: C_15  and  C_16
REMARK    9  A    between atoms: N_18  and  C_19
REMARK   10  A    between atoms: N_18  and  C_20
REMARK   11  A    between atoms: C_21  and  O_22
REMARK   12  A    between atoms: C_27  and  C_28
REMARK                            x       y       z     vdW  Elec       q    Type
REMARK                         _______ _______ _______ _____ _____    ______ ____
ROOT
ATOM      1  C   UNL     1       4.294   3.300  18.616  0.00  0.00    +0.000 C 
ATOM      2  C   UNL     1       3.134   3.896  19.043  0.00  0.00    +0.000 C 
ATOM      3  C   UNL     1       3.235   3.256  20.380  0.00  0.00    +0.000 C 
ATOM      4  O   UNL     1       2.645   3.208  21.426  0.00  0.00    +0.000 OA
ATOM      5  C   UNL     1       4.453   2.549  19.890  0.00  0.00    +0.000 C 
ATOM      6  O   UNL     1       5.178   1.737  20.370  0.00  0.00    +0.000 OA
ENDROOT
BRANCH   1   7
ATOM      7  N   UNL     1       5.077   3.254  17.559  0.00  0.00    +0.000 N 
ATOM      8  H   UNL     1       4.998   2.515  16.853  0.00  0.00    +0.000 HD
BRANCH   7   9
ATOM      9  C   UNL     1       5.792   4.442  17.046  0.00  0.00    +0.000 C 
BRANCH   9  14
ATOM     10  C   UNL     1       8.293   5.740  13.076  0.00  0.00    +0.000 C 
ATOM     11  C   UNL     1       7.267   4.949  13.787  0.00  0.00    +0.000 A 
ATOM     12  C   UNL     1       6.360   3.996  13.381  0.00  0.00    +0.000 A 
ATOM     13  C   UNL     1       5.646   3.610  14.537  0.00  0.00    +0.000 A 
ATOM     14  C   UNL     1       6.158   4.346  15.588  0.00  0.00    +0.000 A 
ATOM     15  O   UNL     1       7.145   5.174  15.126  0.00  0.00    +0.000 OA
ENDBRANCH   9  14
BRANCH   9  16
ATOM     16  C   UNL     1       6.986   4.741  17.990  0.00  0.00    +0.000 C 
ATOM     17  C   UNL     1       7.230   6.226  18.211  0.00  0.00    +0.000 C 
ATOM     18  F   UNL     1       8.127   4.155  17.528  0.00  0.00    +0.000 F 
ENDBRANCH   9  16
ENDBRANCH   7   9
ENDBRANCH   1   7
BRANCH   2  19
ATOM     19  N   UNL     1       2.236   4.734  18.556  0.00  0.00    +0.000 N 
ATOM     20  H   UNL     1       1.623   4.478  17.781  0.00  0.00    +0.000 HD
BRANCH  19  21
ATOM     21  C   UNL     1       2.338   6.149  18.629  0.00  0.00    +0.000 A 
ATOM     22  C   UNL     1       2.949   6.876  17.603  0.00  0.00    +0.000 A 
ATOM     23  C   UNL     1       2.996   8.263  17.658  0.00  0.00    +0.000 A 
ATOM     24  C   UNL     1       2.332   8.932  18.688  0.00  0.00    +0.000 A 
ATOM     25  C   UNL     1       1.737   8.232  19.760  0.00  0.00    +0.000 A 
ATOM     26  C   UNL     1       1.923   6.850  19.777  0.00  0.00    +0.000 A 
BRANCH  25  27
ATOM     27  C   UNL     1       1.046   9.038  20.823  0.00  0.00    +0.000 C 
ATOM     28  O   UNL     1       1.505   8.911  21.962  0.00  0.00    +0.000 OA
ATOM     29  N   UNL     1      -0.035   9.912  20.587  0.00  0.00    +0.000 N 
ATOM     30  C   UNL     1      -0.735  10.222  19.339  0.00  0.00    +0.000 C 
ATOM     31  C   UNL     1      -0.581  10.623  21.739  0.00  0.00    +0.000 C 
ENDBRANCH  25  27
BRANCH  26  32
ATOM     32  O   UNL     1       1.908   6.137  20.954  0.00  0.00    +0.000 OA
ATOM     33  H   UNL     1       2.610   6.524  21.515  0.00  0.00    +0.000 HD
ENDBRANCH  26  32
ENDBRANCH  19  21
ENDBRANCH   2  19
TORSDOF 8
ENDMDL
MODEL 7
REMARK VINA RESULT:      -8.6      1.911      3.099
REMARK  Name = 
REMARK  12 active torsions:
REMARK  status: ('A' for Active; 'I' for Inactive)
REMARK    1  A    between atoms: C_1  and  C_2
REMARK    2  A    between atoms: C_5  and  C_6
REMARK    3  A    between atoms: C_6  and  N_7
REMARK    4  A    between atoms: C_6  and  C_27
REMARK    5  A    between atoms: N_7  and  C_8
REMARK    6  A    between atoms: C_9  and  N_10
REMARK    7  A    between atoms: N_10  and  C_11
REMARK    8  A    between atoms: C_15  and  C_16
REMARK    9  A    between atoms: N_18  and  C_19
REMARK   10  A    between atoms: N_18  and  C_20
REMARK   11  A    between atoms: C_21  and  O_22
REMARK   12  A    between atoms: C_27  and  C_28
REMARK                            x       y       z     vdW  Elec       q    Type
REMARK                         _______ _______ _______ _____ _____    ______ ____
ROOT
ATOM      1  C   UNL     1       2.905   5.422  18.127  0.00  0.00    +0.000 C 
ATOM      2  C   UNL     1       2.441   5.890  19.332  0.00  0.00    +0.000 C 
ATOM      3  C   UNL     1       1.587   4.690  19.529  0.00  0.00    +0.000 C 
ATOM      4  O   UNL     1       0.815   4.228  20.326  0.00  0.00    +0.000 OA
ATOM      5  C   UNL     1       2.032   4.218  18.186  0.00  0.00    +0.000 C 
ATOM      6  O   UNL     1       1.754   3.277  17.513  0.00  0.00    +0.000 OA
ENDROOT
BRANCH   1   7
ATOM      7  N   UNL     1       3.736   5.759  17.164  0.00  0.00    +0.000 N 
ATOM      8  H   UNL     1       3.714   6.683  16.722  0.00  0.00    +0.000 HD
BRANCH   7   9
ATOM      9  C   UNL     1       5.026   5.068  16.948  0.00  0.00    +0.000 C 
BRANCH   9  14
ATOM     10  C   UNL     1       8.109   8.727  17.843  0.00  0.00    +0.000 C 
ATOM     11  C   UNL     1       7.597   7.356  18.046  0.00  0.00    +0.000 A 
ATOM     12  C   UNL     1       8.004   6.302  18.834  0.00  0.00    +0.000 A 
ATOM     13  C   UNL     1       7.099   5.247  18.583  0.00  0.00    +0.000 A 
ATOM     14  C   UNL     1       6.185   5.714  17.659  0.00  0.00    +0.000 A 
ATOM     15  O   UNL     1       6.497   7.003  17.322  0.00  0.00    +0.000 OA
ENDBRANCH   9  14
BRANCH   9  16
ATOM     16  C   UNL     1       5.231   4.880  15.422  0.00  0.00    +0.000 C 
ATOM     17  C   UNL     1       6.554   4.222  15.063  0.00  0.00    +0.000 C 
ATOM     18  F   UNL     1       5.123   6.072  14.769  0.00  0.00    +0.000 F 
ENDBRANCH   9  16
ENDBRANCH   7   9
ENDBRANCH   1   7
BRANCH   2  19
ATOM     19  N   UNL     1       2.632   6.945  20.102  0.00  0.00    +0.000 N 
ATOM     20  H   UNL     1       3.370   6.974  20.807  0.00  0.00    +0.000 HD
BRANCH  19  21
ATOM     21  C   UNL     1       1.621   7.884  20.440  0.00  0.00    +0.000 A 
ATOM     22  C   UNL     1       0.729   7.629  21.486  0.00  0.00    +0.000 A 
ATOM     23  C   UNL     1      -0.222   8.576  21.844  0.00  0.00    +0.000 A 
ATOM     24  C   UNL     1      -0.209   9.829  21.228  0.00  0.00    +0.000 A 
ATOM     25  C   UNL     1       0.651  10.109  20.143  0.00  0.00    +0.000 A 
ATOM     26  C   UNL     1       1.419   9.046  19.671  0.00  0.00    +0.000 A 
BRANCH  25  27
ATOM     27  C   UNL     1       0.592  11.486  19.544  0.00  0.00    +0.000 C 
ATOM     28  O   UNL     1       1.552  12.216  19.809  0.00  0.00    +0.000 OA
ATOM     29  N   UNL     1      -0.446  11.951  18.711  0.00  0.00    +0.000 N 
ATOM     30  C   UNL     1      -1.664  11.275  18.264  0.00  0.00    +0.000 C 
ATOM     31  C   UNL     1      -0.336  13.318  18.210  0.00  0.00    +0.000 C 
ENDBRANCH  25  27
BRANCH  26  32
ATOM     32  O   UNL     1       1.847   8.994  18.364  0.00  0.00    +0.000 OA
ATOM     33  H   UNL     1       1.480   9.787  17.926  0.00  0.00    +0.000 HD
ENDBRANCH  26  32
ENDBRANCH  19  21
ENDBRANCH   2  19
TORSDOF 8
ENDMDL
MODEL 8
REMARK VINA RESULT:      -8.6      1.528      1.877
REMARK  Name = 
REMARK  12 active torsions:
REMARK  status: ('A' for Active; 'I' for Inactive)
REMARK    1  A    between atoms: C_1  and  C_2
REMARK    2  A    between atoms: C_5  and  C_6
REMARK    3  A    between atoms: C_6  and  N_7
REMARK    4  A    between atoms: C_6  and  C_27
REMARK    5  A    between atoms: N_7  and  C_8
REMARK    6  A    between atoms: C_9  and  N_10
REMARK    7  A    between atoms: N_10  and  C_11
REMARK    8  A    between atoms: C_15  and  C_16
REMARK    9  A    between atoms: N_18  and  C_19
REMARK   10  A    between atoms: N_18  and  C_20
REMARK   11  A    between atoms: C_21  and  O_22
REMARK   12  A    between atoms: C_27  and  C_28
REMARK                            x       y       z     vdW  Elec       q    Type
REMARK                         _______ _______ _______ _____ _____    ______ ____
ROOT
ATOM      1  C   UNL     1       4.364   4.706  18.573  0.00  0.00    +0.000 C 
ATOM      2  C   UNL     1       3.258   5.519  18.519  0.00  0.00    +0.000 C 
ATOM      3  C   UNL     1       2.354   4.403  18.899  0.00  0.00    +0.000 C 
ATOM      4  O   UNL     1       1.188   4.189  19.100  0.00  0.00    +0.000 OA
ATOM      5  C   UNL     1       3.544   3.504  18.883  0.00  0.00    +0.000 C 
ATOM      6  O   UNL     1       3.690   2.335  19.047  0.00  0.00    +0.000 OA
ENDROOT
BRANCH   1   7
ATOM      7  N   UNL     1       5.669   4.764  18.417  0.00  0.00    +0.000 N 
ATOM      8  H   UNL     1       6.290   4.008  18.723  0.00  0.00    +0.000 HD
BRANCH   7   9
ATOM      9  C   UNL     1       6.312   5.644  17.418  0.00  0.00    +0.000 C 
BRANCH   9  14
ATOM     10  C   UNL     1       8.048   5.367  12.879  0.00  0.00    +0.000 C 
ATOM     11  C   UNL     1       7.181   4.918  13.987  0.00  0.00    +0.000 A 
ATOM     12  C   UNL     1       6.239   3.920  14.105  0.00  0.00    +0.000 A 
ATOM     13  C   UNL     1       5.748   3.993  15.428  0.00  0.00    +0.000 A 
ATOM     14  C   UNL     1       6.420   5.029  16.048  0.00  0.00    +0.000 A 
ATOM     15  O   UNL     1       7.290   5.602  15.161  0.00  0.00    +0.000 OA
ENDBRANCH   9  14
BRANCH   9  16
ATOM     16  C   UNL     1       7.658   6.148  18.003  0.00  0.00    +0.000 C 
ATOM     17  C   UNL     1       7.879   5.746  19.454  0.00  0.00    +0.000 C 
ATOM     18  F   UNL     1       7.760   7.502  17.886  0.00  0.00    +0.000 F 
ENDBRANCH   9  16
ENDBRANCH   7   9
ENDBRANCH   1   7
BRANCH   2  19
ATOM     19  N   UNL     1       2.999   6.790  18.270  0.00  0.00    +0.000 N 
ATOM     20  H   UNL     1       3.619   7.366  17.699  0.00  0.00    +0.000 HD
BRANCH  19  21
ATOM     21  C   UNL     1       2.218   7.627  19.110  0.00  0.00    +0.000 A 
ATOM     22  C   UNL     1       1.882   7.227  20.406  0.00  0.00    +0.000 A 
ATOM     23  C   UNL     1       1.163   8.076  21.238  0.00  0.00    +0.000 A 
ATOM     24  C   UNL     1       0.875   9.374  20.812  0.00  0.00    +0.000 A 
ATOM     25  C   UNL     1       1.165   9.800  19.497  0.00  0.00    +0.000 A 
ATOM     26  C   UNL     1       1.673   8.834  18.630  0.00  0.00    +0.000 A 
BRANCH  25  27
ATOM     27  C   UNL     1       0.818  11.215  19.130  0.00  0.00    +0.000 C 
ATOM     28  O   UNL     1       1.731  12.035  19.274  0.00  0.00    +0.000 OA
ATOM     29  N   UNL     1      -0.434  11.627  18.629  0.00  0.00    +0.000 N 
ATOM     30  C   UNL     1      -1.646  10.846  18.376  0.00  0.00    +0.000 C 
ATOM     31  C   UNL     1      -0.594  13.045  18.317  0.00  0.00    +0.000 C 
ENDBRANCH  25  27
BRANCH  26  32
ATOM     32  O   UNL     1       1.485   8.920  17.269  0.00  0.00    +0.000 OA
ATOM     33  H   UNL     1       1.611   8.015  16.920  0.00  0.00    +0.000 HD
ENDBRANCH  26  32
ENDBRANCH  19  21
ENDBRANCH   2  19
TORSDOF 8
ENDMDL
MODEL 9
REMARK VINA RESULT:      -8.5      0.979      1.116
REMARK  Name = 
REMARK  12 active torsions:
REMARK  status: ('A' for Active; 'I' for Inactive)
REMARK    1  A    between atoms: C_1  and  C_2
REMARK    2  A    between atoms: C_5  and  C_6
REMARK    3  A    between atoms: C_6  and  N_7
REMARK    4  A    between atoms: C_6  and  C_27
REMARK    5  A    between atoms: N_7  and  C_8
REMARK    6  A    between atoms: C_9  and  N_10
REMARK    7  A    between atoms: N_10  and  C_11
REMARK    8  A    between atoms: C_15  and  C_16
REMARK    9  A    between atoms: N_18  and  C_19
REMARK   10  A    between atoms: N_18  and  C_20
REMARK   11  A    between atoms: C_21  and  O_22
REMARK   12  A    between atoms: C_27  and  C_28
REMARK                            x       y       z     vdW  Elec       q    Type
REMARK                         _______ _______ _______ _____ _____    ______ ____
ROOT
ATOM      1  C   UNL     1       3.705   4.154  19.245  0.00  0.00    +0.000 C 
ATOM      2  C   UNL     1       2.676   4.850  19.829  0.00  0.00    +0.000 C 
ATOM      3  C   UNL     1       1.714   3.748  19.571  0.00  0.00    +0.000 C 
ATOM      4  O   UNL     1       0.557   3.473  19.748  0.00  0.00    +0.000 OA
ATOM      5  C   UNL     1       2.813   3.024  18.869  0.00  0.00    +0.000 C 
ATOM      6  O   UNL     1       2.869   1.995  18.276  0.00  0.00    +0.000 OA
ENDROOT
BRANCH   1   7
ATOM      7  N   UNL     1       4.991   4.275  18.992  0.00  0.00    +0.000 N 
ATOM      8  H   UNL     1       5.604   3.461  18.881  0.00  0.00    +0.000 HD
BRANCH   7   9
ATOM      9  C   UNL     1       5.574   5.498  18.401  0.00  0.00    +0.000 C 
BRANCH   9  14
ATOM     10  C   UNL     1       5.991   3.701  13.896  0.00  0.00    +0.000 C 
ATOM     11  C   UNL     1       5.660   4.767  14.864  0.00  0.00    +0.000 A 
ATOM     12  C   UNL     1       5.221   6.065  14.726  0.00  0.00    +0.000 A 
ATOM     13  C   UNL     1       5.086   6.579  16.035  0.00  0.00    +0.000 A 
ATOM     14  C   UNL     1       5.447   5.567  16.902  0.00  0.00    +0.000 A 
ATOM     15  O   UNL     1       5.809   4.460  16.183  0.00  0.00    +0.000 OA
ENDBRANCH   9  14
BRANCH   9  16
ATOM     16  C   UNL     1       7.024   5.655  18.930  0.00  0.00    +0.000 C 
ATOM     17  C   UNL     1       8.015   4.700  18.282  0.00  0.00    +0.000 C 
ATOM     18  F   UNL     1       7.064   5.503  20.284  0.00  0.00    +0.000 F 
ENDBRANCH   9  16
ENDBRANCH   7   9
ENDBRANCH   1   7
BRANCH   2  19
ATOM     19  N   UNL     1       2.510   6.014  20.430  0.00  0.00    +0.000 N 
ATOM     20  H   UNL     1       2.191   6.083  21.397  0.00  0.00    +0.000 HD
BRANCH  19  21
ATOM     21  C   UNL     1       2.227   7.231  19.754  0.00  0.00    +0.000 A 
ATOM     22  C   UNL     1       2.588   7.406  18.415  0.00  0.00    +0.000 A 
ATOM     23  C   UNL     1       2.260   8.579  17.747  0.00  0.00    +0.000 A 
ATOM     24  C   UNL     1       1.470   9.536  18.387  0.00  0.00    +0.000 A 
ATOM     25  C   UNL     1       1.118   9.411  19.749  0.00  0.00    +0.000 A 
ATOM     26  C   UNL     1       1.672   8.331  20.435  0.00  0.00    +0.000 A 
BRANCH  25  27
ATOM     27  C   UNL     1       0.266  10.492  20.352  0.00  0.00    +0.000 C 
ATOM     28  O   UNL     1       0.739  11.037  21.354  0.00  0.00    +0.000 OA
ATOM     29  N   UNL     1      -0.977  10.910  19.836  0.00  0.00    +0.000 N 
ATOM     30  C   UNL     1      -1.724  10.421  18.676  0.00  0.00    +0.000 C 
ATOM     31  C   UNL     1      -1.668  11.983  20.547  0.00  0.00    +0.000 C 
ENDBRANCH  25  27
BRANCH  26  32
ATOM     32  O   UNL     1       1.885   8.376  21.795  0.00  0.00    +0.000 OA
ATOM     33  H   UNL     1       2.855   8.402  21.917  0.00  0.00    +0.000 HD
ENDBRANCH  26  32
ENDBRANCH  19  21
ENDBRANCH   2  19
TORSDOF 8
ENDMDL
