MODEL 1
REMARK VINA RESULT:      -8.4      0.000      0.000
REMARK  Name = 
REMARK  5 active torsions:
REMARK  status: ('A' for Active; 'I' for Inactive)
REMARK    1  A    between atoms: C_1  and  C_2
REMARK    2  A    between atoms: C_2  and  C_3
REMARK    3  A    between atoms: C_2  and  C_4
REMARK    4  A    between atoms: N_14  and  C_15
REMARK    5  A    between atoms: C_15  and  C_16
REMARK                            x       y       z     vdW  Elec       q    Type
REMARK                         _______ _______ _______ _____ _____    ______ ____
ROOT
ATOM      1  C   UNL     1       3.217   3.829  18.519  0.00  0.00    +0.000 C 
ATOM      2  N   UNL     1       3.778   3.359  17.256  0.00  0.00    +0.000 N 
ATOM      3  C   UNL     1       4.909   3.951  16.721  0.00  0.00    +0.000 A 
ATOM      4  C   UNL     1       5.411   3.550  15.480  0.00  0.00    +0.000 A 
ATOM      5  C   UNL     1       6.571   4.135  14.956  0.00  0.00    +0.000 A 
ATOM      6  C   UNL     1       7.256   5.112  15.676  0.00  0.00    +0.000 A 
ATOM      7  C   UNL     1       6.803   5.479  16.940  0.00  0.00    +0.000 A 
ATOM      8  C   UNL     1       5.649   4.877  17.450  0.00  0.00    +0.000 A 
ATOM      9  C   UNL     1       5.116   5.253  18.763  0.00  0.00    +0.000 C 
ATOM     10  O   UNL     1       5.865   5.661  19.643  0.00  0.00    +0.000 OA
ATOM     11  N   UNL     1       3.725   5.159  18.867  0.00  0.00    +0.000 N 
ATOM     12  H   UNL     1       3.126   2.996  16.571  0.00  0.00    +0.000 HD
ENDROOT
BRANCH   1  14
ATOM     13  C   UNL     1       1.013   4.257  17.255  0.00  0.00    +0.000 C 
ATOM     14  C   UNL     1       1.670   3.670  18.508  0.00  0.00    +0.000 C 
ATOM     15  C   UNL     1       1.260   2.200  18.685  0.00  0.00    +0.000 C 
ENDBRANCH   1  14
BRANCH  11  16
ATOM     16  C   UNL     1       3.123   5.824  20.027  0.00  0.00    +0.000 C 
BRANCH  16  17
ATOM     17  C   UNL     1       2.410   7.169  19.782  0.00  0.00    +0.000 C 
ATOM     18  O   UNL     1       2.392   7.693  18.673  0.00  0.00    +0.000 OA
ATOM     19  N   UNL     1       1.855   7.659  20.949  0.00  0.00    +0.000 N 
ATOM     20  C   UNL     1       1.106   8.794  21.009  0.00  0.00    +0.000 A 
ATOM     21  N   UNL     1       0.566   9.493  20.034  0.00  0.00    +0.000 NA
ATOM     22  C   UNL     1      -0.133  10.503  20.616  0.00  0.00    +0.000 A 
ATOM     23  C   UNL     1      -0.154  10.539  21.981  0.00  0.00    +0.000 A 
ATOM     24  S   UNL     1       0.774   9.312  22.631  0.00  0.00    +0.000 S 
ATOM     25  C   UNL     1      -1.012  11.601  22.538  0.00  0.00    +0.000 C 
ATOM     26  C   UNL     1      -1.812  12.019  21.256  0.00  0.00    +0.000 C 
ATOM     27  C   UNL     1      -0.970  11.560  20.018  0.00  0.00    +0.000 C 
ATOM     28  H   UNL     1       2.287   7.374  21.822  0.00  0.00    +0.000 HD
ENDBRANCH  16  17
ENDBRANCH  11  16
TORSDOF 3
ENDMDL
MODEL 2
REMARK VINA RESULT:      -8.2      1.835      4.038
REMARK  Name = 
REMARK  5 active torsions:
REMARK  status: ('A' for Active; 'I' for Inactive)
REMARK    1  A    between atoms: C_1  and  C_2
REMARK    2  A    between atoms: C_2  and  C_3
REMARK    3  A    between atoms: C_2  and  C_4
REMARK    4  A    between atoms: N_14  and  C_15
REMARK    5  A    between atoms: C_15  and  C_16
REMARK                            x       y       z     vdW  Elec       q    Type
REMARK                         _______ _______ _______ _____ _____    ______ ____
ROOT
ATOM      1  C   UNL     1       4.590   5.124  18.118  0.00  0.00    +0.000 C 
ATOM      2  N   UNL     1       4.651   4.083  19.140  0.00  0.00    +0.000 N 
ATOM      3  C   UNL     1       3.511   3.699  19.826  0.00  0.00    +0.000 A 
ATOM      4  C   UNL     1       3.575   2.752  20.851  0.00  0.00    +0.000 A 
ATOM      5  C   UNL     1       2.416   2.348  21.524  0.00  0.00    +0.000 A 
ATOM      6  C   UNL     1       1.174   2.870  21.166  0.00  0.00    +0.000 A 
ATOM      7  C   UNL     1       1.086   3.770  20.108  0.00  0.00    +0.000 A 
ATOM      8  C   UNL     1       2.253   4.153  19.442  0.00  0.00    +0.000 A 
ATOM      9  C   UNL     1       2.214   5.120  18.342  0.00  0.00    +0.000 C 
ATOM     10  O   UNL     1       1.214   5.223  17.640  0.00  0.00    +0.000 OA
ATOM     11  N   UNL     1       3.361   5.914  18.233  0.00  0.00    +0.000 N 
ATOM     12  H   UNL     1       5.510   4.011  19.671  0.00  0.00    +0.000 HD
ENDROOT
BRANCH   1  14
ATOM     13  C   UNL     1       6.871   5.551  19.238  0.00  0.00    +0.000 C 
ATOM     14  C   UNL     1       5.920   5.930  18.098  0.00  0.00    +0.000 C 
ATOM     15  C   UNL     1       6.632   5.796  16.745  0.00  0.00    +0.000 C 
ENDBRANCH   1  14
BRANCH  11  16
ATOM     16  C   UNL     1       3.241   7.098  17.375  0.00  0.00    +0.000 C 
BRANCH  16  17
ATOM     17  C   UNL     1       2.516   8.326  17.960  0.00  0.00    +0.000 C 
ATOM     18  O   UNL     1       2.393   9.364  17.319  0.00  0.00    +0.000 OA
ATOM     19  N   UNL     1       2.081   8.080  19.249  0.00  0.00    +0.000 N 
ATOM     20  C   UNL     1       1.349   8.966  19.979  0.00  0.00    +0.000 A 
ATOM     21  N   UNL     1       0.720  10.054  19.589  0.00  0.00    +0.000 NA
ATOM     22  C   UNL     1       0.088  10.555  20.683  0.00  0.00    +0.000 A 
ATOM     23  C   UNL     1       0.201   9.847  21.845  0.00  0.00    +0.000 A 
ATOM     24  S   UNL     1       1.180   8.509  21.643  0.00  0.00    +0.000 S 
ATOM     25  C   UNL     1      -0.593  10.398  22.959  0.00  0.00    +0.000 C 
ATOM     26  C   UNL     1      -1.512  11.403  22.183  0.00  0.00    +0.000 C 
ATOM     27  C   UNL     1      -0.797  11.726  20.828  0.00  0.00    +0.000 C 
ATOM     28  H   UNL     1       2.594   7.390  19.787  0.00  0.00    +0.000 HD
ENDBRANCH  16  17
ENDBRANCH  11  16
TORSDOF 3
ENDMDL
MODEL 3
REMARK VINA RESULT:      -7.4      1.624      2.140
REMARK  Name = 
REMARK  5 active torsions:
REMARK  status: ('A' for Active; 'I' for Inactive)
REMARK    1  A    between atoms: C_1  and  C_2
REMARK    2  A    between atoms: C_2  and  C_3
REMARK    3  A    between atoms: C_2  and  C_4
REMARK    4  A    between atoms: N_14  and  C_15
REMARK    5  A    between atoms: C_15  and  C_16
REMARK                            x       y       z     vdW  Elec       q    Type
REMARK                         _______ _______ _______ _____ _____    ______ ____
ROOT
ATOM      1  C   UNL     1       3.620   3.072  18.021  0.00  0.00    +0.000 C 
ATOM      2  N   UNL     1       4.159   3.140  16.665  0.00  0.00    +0.000 N 
ATOM      3  C   UNL     1       5.207   3.993  16.364  0.00  0.00    +0.000 A 
ATOM      4  C   UNL     1       5.682   4.112  15.056  0.00  0.00    +0.000 A 
ATOM      5  C   UNL     1       6.759   4.957  14.761  0.00  0.00    +0.000 A 
ATOM      6  C   UNL     1       7.389   5.678  15.775  0.00  0.00    +0.000 A 
ATOM      7  C   UNL     1       6.966   5.525  17.092  0.00  0.00    +0.000 A 
ATOM      8  C   UNL     1       5.896   4.668  17.367  0.00  0.00    +0.000 A 
ATOM      9  C   UNL     1       5.395   4.498  18.734  0.00  0.00    +0.000 C 
ATOM     10  O   UNL     1       6.146   4.639  19.693  0.00  0.00    +0.000 OA
ATOM     11  N   UNL     1       4.024   4.235  18.815  0.00  0.00    +0.000 N 
ATOM     12  H   UNL     1       3.510   2.981  15.905  0.00  0.00    +0.000 HD
ENDROOT
BRANCH   1  14
ATOM     13  C   UNL     1       1.554   2.183  19.279  0.00  0.00    +0.000 C 
ATOM     14  C   UNL     1       2.093   2.774  17.973  0.00  0.00    +0.000 C 
ATOM     15  C   UNL     1       1.294   4.027  17.586  0.00  0.00    +0.000 C 
ENDBRANCH   1  14
BRANCH  11  16
ATOM     16  C   UNL     1       3.421   4.381  20.145  0.00  0.00    +0.000 C 
BRANCH  16  17
ATOM     17  C   UNL     1       2.449   5.558  20.356  0.00  0.00    +0.000 C 
ATOM     18  O   UNL     1       1.575   5.522  21.216  0.00  0.00    +0.000 OA
ATOM     19  N   UNL     1       2.697   6.578  19.456  0.00  0.00    +0.000 N 
ATOM     20  C   UNL     1       2.035   7.767  19.463  0.00  0.00    +0.000 A 
ATOM     21  N   UNL     1       1.256   8.286  20.387  0.00  0.00    +0.000 NA
ATOM     22  C   UNL     1       0.886   9.517  19.944  0.00  0.00    +0.000 A 
ATOM     23  C   UNL     1       1.403   9.927  18.748  0.00  0.00    +0.000 A 
ATOM     24  S   UNL     1       2.358   8.740  18.064  0.00  0.00    +0.000 S 
ATOM     25  C   UNL     1       1.037  11.308  18.382  0.00  0.00    +0.000 C 
ATOM     26  C   UNL     1       0.469  11.823  19.750  0.00  0.00    +0.000 C 
ATOM     27  C   UNL     1       0.062  10.560  20.582  0.00  0.00    +0.000 C 
ATOM     28  H   UNL     1       3.125   6.321  18.573  0.00  0.00    +0.000 HD
ENDBRANCH  16  17
ENDBRANCH  11  16
TORSDOF 3
ENDMDL
MODEL 4
REMARK VINA RESULT:      -7.4      1.122      1.306
REMARK  Name = 
REMARK  5 active torsions:
REMARK  status: ('A' for Active; 'I' for Inactive)
REMARK    1  A    between atoms: C_1  and  C_2
REMARK    2  A    between atoms: C_2  and  C_3
REMARK    3  A    between atoms: C_2  and  C_4
REMARK    4  A    between atoms: N_14  and  C_15
REMARK    5  A    between atoms: C_15  and  C_16
REMARK                            x       y       z     vdW  Elec       q    Type
REMARK                         _______ _______ _______ _____ _____    ______ ____
ROOT
ATOM      1  C   UNL     1       3.881   3.927  18.626  0.00  0.00    +0.000 C 
ATOM      2  N   UNL     1       4.372   3.200  17.459  0.00  0.00    +0.000 N 
ATOM      3  C   UNL     1       5.105   3.848  16.481  0.00  0.00    +0.000 A 
ATOM      4  C   UNL     1       5.521   3.174  15.330  0.00  0.00    +0.000 A 
ATOM      5  C   UNL     1       6.284   3.827  14.355  0.00  0.00    +0.000 A 
ATOM      6  C   UNL     1       6.662   5.158  14.528  0.00  0.00    +0.000 A 
ATOM      7  C   UNL     1       6.307   5.826  15.697  0.00  0.00    +0.000 A 
ATOM      8  C   UNL     1       5.553   5.153  16.663  0.00  0.00    +0.000 A 
ATOM      9  C   UNL     1       5.129   5.824  17.895  0.00  0.00    +0.000 C 
ATOM     10  O   UNL     1       5.800   6.735  18.368  0.00  0.00    +0.000 OA
ATOM     11  N   UNL     1       3.906   5.375  18.403  0.00  0.00    +0.000 N 
ATOM     12  H   UNL     1       3.803   2.432  17.124  0.00  0.00    +0.000 HD
ENDROOT
BRANCH   1  14
ATOM     13  C   UNL     1       1.953   2.294  18.119  0.00  0.00    +0.000 C 
ATOM     14  C   UNL     1       2.521   3.332  19.092  0.00  0.00    +0.000 C 
ATOM     15  C   UNL     1       2.628   2.736  20.503  0.00  0.00    +0.000 C 
ENDBRANCH   1  14
BRANCH  11  16
ATOM     16  C   UNL     1       3.288   6.223  19.428  0.00  0.00    +0.000 C 
BRANCH  16  17
ATOM     17  C   UNL     1       2.492   7.451  18.945  0.00  0.00    +0.000 C 
ATOM     18  O   UNL     1       2.473   7.781  17.765  0.00  0.00    +0.000 OA
ATOM     19  N   UNL     1       1.866   8.086  20.003  0.00  0.00    +0.000 N 
ATOM     20  C   UNL     1       1.039   9.156  19.856  0.00  0.00    +0.000 A 
ATOM     21  N   UNL     1       0.482   9.642  18.766  0.00  0.00    +0.000 NA
ATOM     22  C   UNL     1      -0.304  10.680  19.156  0.00  0.00    +0.000 A 
ATOM     23  C   UNL     1      -0.371  10.940  20.495  0.00  0.00    +0.000 A 
ATOM     24  S   UNL     1       0.619   9.911  21.360  0.00  0.00    +0.000 S 
ATOM     25  C   UNL     1      -1.319  12.014  20.847  0.00  0.00    +0.000 C 
ATOM     26  C   UNL     1      -2.105  12.152  19.497  0.00  0.00    +0.000 C 
ATOM     27  C   UNL     1      -1.193  11.558  18.372  0.00  0.00    +0.000 C 
ATOM     28  H   UNL     1       2.289   7.984  20.919  0.00  0.00    +0.000 HD
ENDBRANCH  16  17
ENDBRANCH  11  16
TORSDOF 3
ENDMDL
MODEL 5
REMARK VINA RESULT:      -7.3      3.095      5.330
REMARK  Name = 
REMARK  5 active torsions:
REMARK  status: ('A' for Active; 'I' for Inactive)
REMARK    1  A    between atoms: C_1  and  C_2
REMARK    2  A    between atoms: C_2  and  C_3
REMARK    3  A    between atoms: C_2  and  C_4
REMARK    4  A    between atoms: N_14  and  C_15
REMARK    5  A    between atoms: C_15  and  C_16
REMARK                            x       y       z     vdW  Elec       q    Type
REMARK                         _______ _______ _______ _____ _____    ______ ____
ROOT
ATOM      1  C   UNL     1       1.636   8.561  20.717  0.00  0.00    +0.000 C 
ATOM      2  N   UNL     1       1.809   7.159  21.086  0.00  0.00    +0.000 N 
ATOM      3  C   UNL     1       2.069   6.202  20.121  0.00  0.00    +0.000 A 
ATOM      4  C   UNL     1       2.168   4.850  20.459  0.00  0.00    +0.000 A 
ATOM      5  C   UNL     1       2.457   3.888  19.483  0.00  0.00    +0.000 A 
ATOM      6  C   UNL     1       2.672   4.269  18.159  0.00  0.00    +0.000 A 
ATOM      7  C   UNL     1       2.635   5.617  17.817  0.00  0.00    +0.000 A 
ATOM      8  C   UNL     1       2.355   6.563  18.808  0.00  0.00    +0.000 A 
ATOM      9  C   UNL     1       2.276   7.992  18.490  0.00  0.00    +0.000 C 
ATOM     10  O   UNL     1       2.926   8.458  17.561  0.00  0.00    +0.000 OA
ATOM     11  N   UNL     1       1.373   8.708  19.283  0.00  0.00    +0.000 N 
ATOM     12  H   UNL     1       1.279   6.826  21.882  0.00  0.00    +0.000 HD
ENDROOT
BRANCH   1  14
ATOM     13  C   UNL     1      -0.733   8.513  21.729  0.00  0.00    +0.000 C 
ATOM     14  C   UNL     1       0.613   9.242  21.671  0.00  0.00    +0.000 C 
ATOM     15  C   UNL     1       1.192   9.402  23.084  0.00  0.00    +0.000 C 
ENDBRANCH   1  14
BRANCH  11  16
ATOM     16  C   UNL     1       1.018  10.046  18.799  0.00  0.00    +0.000 C 
BRANCH  16  17
ATOM     17  C   UNL     1      -0.425  10.258  18.299  0.00  0.00    +0.000 C 
ATOM     18  O   UNL     1      -0.826   9.747  17.259  0.00  0.00    +0.000 OA
ATOM     19  N   UNL     1      -1.131  11.086  19.152  0.00  0.00    +0.000 N 
ATOM     20  C   UNL     1      -2.449  11.386  18.992  0.00  0.00    +0.000 A 
ATOM     21  N   UNL     1      -3.348  10.819  18.216  0.00  0.00    +0.000 NA
ATOM     22  C   UNL     1      -4.530  11.444  18.464  0.00  0.00    +0.000 A 
ATOM     23  C   UNL     1      -4.529  12.417  19.422  0.00  0.00    +0.000 A 
ATOM     24  S   UNL     1      -2.997  12.652  20.042  0.00  0.00    +0.000 S 
ATOM     25  C   UNL     1      -5.864  12.977  19.704  0.00  0.00    +0.000 C 
ATOM     26  C   UNL     1      -6.773  11.923  18.981  0.00  0.00    +0.000 C 
ATOM     27  C   UNL     1      -5.878  11.196  17.921  0.00  0.00    +0.000 C 
ATOM     28  H   UNL     1      -0.595  11.751  19.700  0.00  0.00    +0.000 HD
ENDBRANCH  16  17
ENDBRANCH  11  16
TORSDOF 3
ENDMDL
MODEL 6
REMARK VINA RESULT:      -7.2      2.895      9.242
REMARK  Name = 
REMARK  5 active torsions:
REMARK  status: ('A' for Active; 'I' for Inactive)
REMARK    1  A    between atoms: C_1  and  C_2
REMARK    2  A    between atoms: C_2  and  C_3
REMARK    3  A    between atoms: C_2  and  C_4
REMARK    4  A    between atoms: N_14  and  C_15
REMARK    5  A    between atoms: C_15  and  C_16
REMARK                            x       y       z     vdW  Elec       q    Type
REMARK                         _______ _______ _______ _____ _____    ______ ____
ROOT
ATOM      1  C   UNL     1      -1.828  11.590  18.137  0.00  0.00    +0.000 C 
ATOM      2  N   UNL     1      -3.006  12.040  18.872  0.00  0.00    +0.000 N 
ATOM      3  C   UNL     1      -2.894  12.494  20.175  0.00  0.00    +0.000 A 
ATOM      4  C   UNL     1      -4.026  12.862  20.907  0.00  0.00    +0.000 A 
ATOM      5  C   UNL     1      -3.905  13.345  22.216  0.00  0.00    +0.000 A 
ATOM      6  C   UNL     1      -2.649  13.485  22.803  0.00  0.00    +0.000 A 
ATOM      7  C   UNL     1      -1.508  13.179  22.067  0.00  0.00    +0.000 A 
ATOM      8  C   UNL     1      -1.649  12.709  20.758  0.00  0.00    +0.000 A 
ATOM      9  C   UNL     1      -0.478  12.344  19.954  0.00  0.00    +0.000 C 
ATOM     10  O   UNL     1       0.601  12.892  20.146  0.00  0.00    +0.000 OA
ATOM     11  N   UNL     1      -0.708  11.311  19.040  0.00  0.00    +0.000 N 
ATOM     12  H   UNL     1      -3.884  11.585  18.656  0.00  0.00    +0.000 HD
ENDROOT
BRANCH   1  14
ATOM     13  C   UNL     1      -3.297   9.515  17.716  0.00  0.00    +0.000 C 
ATOM     14  C   UNL     1      -2.216  10.446  17.157  0.00  0.00    +0.000 C 
ATOM     15  C   UNL     1      -2.647  11.004  15.793  0.00  0.00    +0.000 C 
ENDBRANCH   1  14
BRANCH  11  16
ATOM     16  C   UNL     1       0.488  10.695  18.456  0.00  0.00    +0.000 C 
BRANCH  16  17
ATOM     17  C   UNL     1       1.043   9.433  19.144  0.00  0.00    +0.000 C 
ATOM     18  O   UNL     1       0.722   9.132  20.289  0.00  0.00    +0.000 OA
ATOM     19  N   UNL     1       1.921   8.759  18.315  0.00  0.00    +0.000 N 
ATOM     20  C   UNL     1       2.504   7.573  18.640  0.00  0.00    +0.000 A 
ATOM     21  N   UNL     1       2.211   6.734  19.611  0.00  0.00    +0.000 NA
ATOM     22  C   UNL     1       3.045   5.669  19.475  0.00  0.00    +0.000 A 
ATOM     23  C   UNL     1       3.906   5.686  18.415  0.00  0.00    +0.000 A 
ATOM     24  S   UNL     1       3.758   7.100  17.539  0.00  0.00    +0.000 S 
ATOM     25  C   UNL     1       4.707   4.456  18.278  0.00  0.00    +0.000 C 
ATOM     26  C   UNL     1       3.936   3.505  19.257  0.00  0.00    +0.000 C 
ATOM     27  C   UNL     1       3.136   4.416  20.248  0.00  0.00    +0.000 C 
ATOM     28  H   UNL     1       2.407   9.306  17.612  0.00  0.00    +0.000 HD
ENDBRANCH  16  17
ENDBRANCH  11  16
TORSDOF 3
ENDMDL
MODEL 7
REMARK VINA RESULT:      -7.2      2.329      4.115
REMARK  Name = 
REMARK  5 active torsions:
REMARK  status: ('A' for Active; 'I' for Inactive)
REMARK    1  A    between atoms: C_1  and  C_2
REMARK    2  A    between atoms: C_2  and  C_3
REMARK    3  A    between atoms: C_2  and  C_4
REMARK    4  A    between atoms: N_14  and  C_15
REMARK    5  A    between atoms: C_15  and  C_16
REMARK                            x       y       z     vdW  Elec       q    Type
REMARK                         _______ _______ _______ _____ _____    ______ ____
ROOT
ATOM      1  C   UNL     1       6.366   5.858  17.444  0.00  0.00    +0.000 C 
ATOM      2  N   UNL     1       7.039   6.035  16.160  0.00  0.00    +0.000 N 
ATOM      3  C   UNL     1       6.743   5.211  15.088  0.00  0.00    +0.000 A 
ATOM      4  C   UNL     1       7.431   5.333  13.878  0.00  0.00    +0.000 A 
ATOM      5  C   UNL     1       7.111   4.514  12.788  0.00  0.00    +0.000 A 
ATOM      6  C   UNL     1       6.082   3.578  12.887  0.00  0.00    +0.000 A 
ATOM      7  C   UNL     1       5.347   3.486  14.066  0.00  0.00    +0.000 A 
ATOM      8  C   UNL     1       5.676   4.320  15.139  0.00  0.00    +0.000 A 
ATOM      9  C   UNL     1       4.951   4.238  16.410  0.00  0.00    +0.000 C 
ATOM     10  O   UNL     1       3.781   3.874  16.436  0.00  0.00    +0.000 OA
ATOM     11  N   UNL     1       5.726   4.543  17.534  0.00  0.00    +0.000 N 
ATOM     12  H   UNL     1       7.993   6.372  16.185  0.00  0.00    +0.000 HD
ENDROOT
BRANCH   1  14
ATOM     13  C   UNL     1       8.309   5.106  18.960  0.00  0.00    +0.000 C 
ATOM     14  C   UNL     1       7.330   6.230  18.607  0.00  0.00    +0.000 C 
ATOM     15  C   UNL     1       8.094   7.526  18.303  0.00  0.00    +0.000 C 
ENDBRANCH   1  14
BRANCH  11  16
ATOM     16  C   UNL     1       5.152   4.163  18.829  0.00  0.00    +0.000 C 
BRANCH  16  17
ATOM     17  C   UNL     1       3.974   5.006  19.357  0.00  0.00    +0.000 C 
ATOM     18  O   UNL     1       3.305   4.644  20.318  0.00  0.00    +0.000 OA
ATOM     19  N   UNL     1       3.800   6.149  18.598  0.00  0.00    +0.000 N 
ATOM     20  C   UNL     1       2.879   7.109  18.882  0.00  0.00    +0.000 A 
ATOM     21  N   UNL     1       2.174   7.296  19.978  0.00  0.00    +0.000 NA
ATOM     22  C   UNL     1       1.441   8.425  19.786  0.00  0.00    +0.000 A 
ATOM     23  C   UNL     1       1.619   9.087  18.605  0.00  0.00    +0.000 A 
ATOM     24  S   UNL     1       2.697   8.282  17.617  0.00  0.00    +0.000 S 
ATOM     25  C   UNL     1       0.866  10.352  18.512  0.00  0.00    +0.000 C 
ATOM     26  C   UNL     1       0.444  10.542  20.010  0.00  0.00    +0.000 C 
ATOM     27  C   UNL     1       0.514   9.132  20.689  0.00  0.00    +0.000 C 
ATOM     28  H   UNL     1       4.113   6.115  17.633  0.00  0.00    +0.000 HD
ENDBRANCH  16  17
ENDBRANCH  11  16
TORSDOF 3
ENDMDL
MODEL 8
REMARK VINA RESULT:      -7.1      3.261      9.102
REMARK  Name = 
REMARK  5 active torsions:
REMARK  status: ('A' for Active; 'I' for Inactive)
REMARK    1  A    between atoms: C_1  and  C_2
REMARK    2  A    between atoms: C_2  and  C_3
REMARK    3  A    between atoms: C_2  and  C_4
REMARK    4  A    between atoms: N_14  and  C_15
REMARK    5  A    between atoms: C_15  and  C_16
REMARK                            x       y       z     vdW  Elec       q    Type
REMARK                         _______ _______ _______ _____ _____    ______ ____
ROOT
ATOM      1  C   UNL     1      -1.300  11.497  18.678  0.00  0.00    +0.000 C 
ATOM      2  N   UNL     1      -2.434  12.165  19.310  0.00  0.00    +0.000 N 
ATOM      3  C   UNL     1      -2.383  12.535  20.643  0.00  0.00    +0.000 A 
ATOM      4  C   UNL     1      -3.489  13.113  21.270  0.00  0.00    +0.000 A 
ATOM      5  C   UNL     1      -3.424  13.509  22.612  0.00  0.00    +0.000 A 
ATOM      6  C   UNL     1      -2.244  13.352  23.337  0.00  0.00    +0.000 A 
ATOM      7  C   UNL     1      -1.115  12.832  22.710  0.00  0.00    +0.000 A 
ATOM      8  C   UNL     1      -1.198  12.453  21.367  0.00  0.00    +0.000 A 
ATOM      9  C   UNL     1      -0.045  11.873  20.672  0.00  0.00    +0.000 C 
ATOM     10  O   UNL     1       1.096  12.165  21.011  0.00  0.00    +0.000 OA
ATOM     11  N   UNL     1      -0.379  10.949  19.677  0.00  0.00    +0.000 N 
ATOM     12  H   UNL     1      -3.357  11.920  18.973  0.00  0.00    +0.000 HD
ENDROOT
BRANCH   1  14
ATOM     13  C   UNL     1      -2.907   9.567  18.101  0.00  0.00    +0.000 C 
ATOM     14  C   UNL     1      -1.804  10.502  17.594  0.00  0.00    +0.000 C 
ATOM     15  C   UNL     1      -2.272  11.242  16.333  0.00  0.00    +0.000 C 
ENDBRANCH   1  14
BRANCH  11  16
ATOM     16  C   UNL     1       0.720  10.110  19.187  0.00  0.00    +0.000 C 
BRANCH  16  17
ATOM     17  C   UNL     1       1.026   8.817  19.968  0.00  0.00    +0.000 C 
ATOM     18  O   UNL     1       0.571   8.621  21.089  0.00  0.00    +0.000 OA
ATOM     19  N   UNL     1       1.864   7.986  19.246  0.00  0.00    +0.000 N 
ATOM     20  C   UNL     1       2.240   6.747  19.666  0.00  0.00    +0.000 A 
ATOM     21  N   UNL     1       1.748   6.006  20.636  0.00  0.00    +0.000 NA
ATOM     22  C   UNL     1       2.428   4.829  20.614  0.00  0.00    +0.000 A 
ATOM     23  C   UNL     1       3.368   4.673  19.637  0.00  0.00    +0.000 A 
ATOM     24  S   UNL     1       3.501   6.049  18.701  0.00  0.00    +0.000 S 
ATOM     25  C   UNL     1       3.991   3.336  19.617  0.00  0.00    +0.000 C 
ATOM     26  C   UNL     1       3.011   2.552  20.557  0.00  0.00    +0.000 C 
ATOM     27  C   UNL     1       2.271   3.615  21.437  0.00  0.00    +0.000 C 
ATOM     28  H   UNL     1       2.481   8.424  18.571  0.00  0.00    +0.000 HD
ENDBRANCH  16  17
ENDBRANCH  11  16
TORSDOF 3
ENDMDL
MODEL 9
REMARK VINA RESULT:      -7.1      1.889      4.114
REMARK  Name = 
REMARK  5 active torsions:
REMARK  status: ('A' for Active; 'I' for Inactive)
REMARK    1  A    between atoms: C_1  and  C_2
REMARK    2  A    between atoms: C_2  and  C_3
REMARK    3  A    between atoms: C_2  and  C_4
REMARK    4  A    between atoms: N_14  and  C_15
REMARK    5  A    between atoms: C_15  and  C_16
REMARK                            x       y       z     vdW  Elec       q    Type
REMARK                         _______ _______ _______ _____ _____    ______ ____
ROOT
ATOM      1  C   UNL     1       4.959   4.046  18.206  0.00  0.00    +0.000 C 
ATOM      2  N   UNL     1       4.809   3.120  19.325  0.00  0.00    +0.000 N 
ATOM      3  C   UNL     1       3.613   3.037  20.017  0.00  0.00    +0.000 A 
ATOM      4  C   UNL     1       3.484   2.202  21.130  0.00  0.00    +0.000 A 
ATOM      5  C   UNL     1       2.265   2.102  21.811  0.00  0.00    +0.000 A 
ATOM      6  C   UNL     1       1.151   2.817  21.374  0.00  0.00    +0.000 A 
ATOM      7  C   UNL     1       1.247   3.607  20.231  0.00  0.00    +0.000 A 
ATOM      8  C   UNL     1       2.470   3.686  19.560  0.00  0.00    +0.000 A 
ATOM      9  C   UNL     1       2.627   4.528  18.370  0.00  0.00    +0.000 C 
ATOM     10  O   UNL     1       1.671   4.753  17.638  0.00  0.00    +0.000 OA
ATOM     11  N   UNL     1       3.908   5.068  18.213  0.00  0.00    +0.000 N 
ATOM     12  H   UNL     1       5.634   2.936  19.882  0.00  0.00    +0.000 HD
ENDROOT
BRANCH   1  14
ATOM     13  C   UNL     1       6.827   5.053  16.744  0.00  0.00    +0.000 C 
ATOM     14  C   UNL     1       6.422   4.571  18.141  0.00  0.00    +0.000 C 
ATOM     15  C   UNL     1       6.661   5.680  19.176  0.00  0.00    +0.000 C 
ENDBRANCH   1  14
BRANCH  11  16
ATOM     16  C   UNL     1       4.028   6.160  17.242  0.00  0.00    +0.000 C 
BRANCH  16  17
ATOM     17  C   UNL     1       3.326   7.489  17.581  0.00  0.00    +0.000 C 
ATOM     18  O   UNL     1       3.400   8.462  16.839  0.00  0.00    +0.000 OA
ATOM     19  N   UNL     1       2.663   7.408  18.792  0.00  0.00    +0.000 N 
ATOM     20  C   UNL     1       1.900   8.413  19.303  0.00  0.00    +0.000 A 
ATOM     21  N   UNL     1       1.441   9.497  18.715  0.00  0.00    +0.000 NA
ATOM     22  C   UNL     1       0.683  10.151  19.634  0.00  0.00    +0.000 A 
ATOM     23  C   UNL     1       0.540   9.559  20.856  0.00  0.00    +0.000 A 
ATOM     24  S   UNL     1       1.419   8.142  20.947  0.00  0.00    +0.000 S 
ATOM     25  C   UNL     1      -0.376  10.275  21.764  0.00  0.00    +0.000 C 
ATOM     26  C   UNL     1      -1.063  11.258  20.754  0.00  0.00    +0.000 C 
ATOM     27  C   UNL     1      -0.109  11.390  19.519  0.00  0.00    +0.000 C 
ATOM     28  H   UNL     1       3.019   6.742  19.470  0.00  0.00    +0.000 HD
ENDBRANCH  16  17
ENDBRANCH  11  16
TORSDOF 3
ENDMDL
