MODEL 1
REMARK VINA RESULT:      -7.7      0.000      0.000
REMARK  Name = 
REMARK  6 active torsions:
REMARK  status: ('A' for Active; 'I' for Inactive)
REMARK    1  A    between atoms: C_1  and  N_2
REMARK    2  A    between atoms: N_2  and  C_18
REMARK    3  A    between atoms: C_3  and  C_5
REMARK    4  A    between atoms: C_7  and  C_8
REMARK    5  A    between atoms: C_13  and  C_14
REMARK    6  A    between atoms: C_21  and  C_22
REMARK                            x       y       z     vdW  Elec       q    Type
REMARK                         _______ _______ _______ _____ _____    ______ ____
ROOT
ATOM      1  C   UNL     1       2.101   9.318  18.044  0.00  0.00    +0.000 C 
ATOM      2  N   UNL     1       1.258   9.161  19.230  0.00  0.00    +0.000 N 
ATOM      3  C   UNL     1       1.485   8.110  20.142  0.00  0.00    +0.000 C 
ATOM      4  O   UNL     1       0.836   7.904  21.162  0.00  0.00    +0.000 OA
ENDROOT
BRANCH   2   5
ATOM      5  C   UNL     1       0.273  10.187  19.493  0.00  0.00    +0.000 A 
ATOM      6  C   UNL     1      -0.892  10.328  18.722  0.00  0.00    +0.000 A 
ATOM      7  C   UNL     1      -1.849  11.322  18.993  0.00  0.00    +0.000 A 
ATOM      8  C   UNL     1      -1.667  12.210  20.054  0.00  0.00    +0.000 A 
ATOM      9  C   UNL     1      -0.510  12.089  20.826  0.00  0.00    +0.000 A 
ATOM     10  C   UNL     1       0.441  11.097  20.548  0.00  0.00    +0.000 A 
BRANCH   8  11
ATOM     11  C   UNL     1      -2.630  13.284  20.424  0.00  0.00    +0.000 C 
ATOM     12  N   UNL     1      -2.292  14.584  20.168  0.00  0.00    +0.000 N 
ATOM     13  O   UNL     1      -3.711  13.026  20.939  0.00  0.00    +0.000 OA
ATOM     14  H   UNL     1      -1.428  14.890  19.751  0.00  0.00    +0.000 HD
ATOM     15  H   UNL     1      -2.972  15.286  20.426  0.00  0.00    +0.000 HD
ENDBRANCH   8  11
ENDBRANCH   2   5
BRANCH   3  16
ATOM     16  C   UNL     1       2.569   7.116  19.811  0.00  0.00    +0.000 C 
ATOM     17  C   UNL     1       2.452   5.703  20.315  0.00  0.00    +0.000 C 
ATOM     18  C   UNL     1       2.246   5.986  18.840  0.00  0.00    +0.000 C 
BRANCH  18  19
ATOM     19  C   UNL     1       3.269   5.449  17.849  0.00  0.00    +0.000 A 
ATOM     20  C   UNL     1       4.226   6.342  17.322  0.00  0.00    +0.000 A 
ATOM     21  C   UNL     1       5.169   5.962  16.370  0.00  0.00    +0.000 A 
ATOM     22  C   UNL     1       5.202   4.651  15.925  0.00  0.00    +0.000 A 
ATOM     23  C   UNL     1       4.316   3.725  16.467  0.00  0.00    +0.000 A 
ATOM     24  C   UNL     1       3.362   4.098  17.443  0.00  0.00    +0.000 A 
BRANCH  24  25
ATOM     25  C   UNL     1       2.511   2.983  18.004  0.00  0.00    +0.000 C 
ATOM     26  F   UNL     1       2.751   2.655  19.301  0.00  0.00    +0.000 F 
ATOM     27  F   UNL     1       1.178   3.278  17.942  0.00  0.00    +0.000 F 
ATOM     28  F   UNL     1       2.654   1.820  17.304  0.00  0.00    +0.000 F 
ENDBRANCH  24  25
ENDBRANCH  18  19
ENDBRANCH   3  16
TORSDOF 5
ENDMDL
MODEL 2
REMARK VINA RESULT:      -7.7      0.577      1.101
REMARK  Name = 
REMARK  6 active torsions:
REMARK  status: ('A' for Active; 'I' for Inactive)
REMARK    1  A    between atoms: C_1  and  N_2
REMARK    2  A    between atoms: N_2  and  C_18
REMARK    3  A    between atoms: C_3  and  C_5
REMARK    4  A    between atoms: C_7  and  C_8
REMARK    5  A    between atoms: C_13  and  C_14
REMARK    6  A    between atoms: C_21  and  C_22
REMARK                            x       y       z     vdW  Elec       q    Type
REMARK                         _______ _______ _______ _____ _____    ______ ____
ROOT
ATOM      1  C   UNL     1       2.137   9.303  18.129  0.00  0.00    +0.000 C 
ATOM      2  N   UNL     1       1.287   9.134  19.308  0.00  0.00    +0.000 N 
ATOM      3  C   UNL     1       1.496   8.063  20.200  0.00  0.00    +0.000 C 
ATOM      4  O   UNL     1       0.839   7.846  21.213  0.00  0.00    +0.000 OA
ENDROOT
BRANCH   2   5
ATOM      5  C   UNL     1       0.315  10.168  19.587  0.00  0.00    +0.000 A 
ATOM      6  C   UNL     1       0.462  11.075  20.649  0.00  0.00    +0.000 A 
ATOM      7  C   UNL     1      -0.483  12.085  20.904  0.00  0.00    +0.000 A 
ATOM      8  C   UNL     1      -1.613  12.218  20.095  0.00  0.00    +0.000 A 
ATOM      9  C   UNL     1      -1.780  11.318  19.040  0.00  0.00    +0.000 A 
ATOM     10  C   UNL     1      -0.834  10.314  18.793  0.00  0.00    +0.000 A 
BRANCH   8  11
ATOM     11  C   UNL     1      -2.659  13.261  20.280  0.00  0.00    +0.000 C 
ATOM     12  N   UNL     1      -3.915  13.023  19.795  0.00  0.00    +0.000 N 
ATOM     13  O   UNL     1      -2.420  14.313  20.860  0.00  0.00    +0.000 OA
ATOM     14  H   UNL     1      -4.203  12.192  19.306  0.00  0.00    +0.000 HD
ATOM     15  H   UNL     1      -4.602  13.750  19.945  0.00  0.00    +0.000 HD
ENDBRANCH   8  11
ENDBRANCH   2   5
BRANCH   3  16
ATOM     16  C   UNL     1       2.568   7.062  19.855  0.00  0.00    +0.000 C 
ATOM     17  C   UNL     1       2.424   5.638  20.320  0.00  0.00    +0.000 C 
ATOM     18  C   UNL     1       2.239   5.963  18.851  0.00  0.00    +0.000 C 
BRANCH  18  19
ATOM     19  C   UNL     1       3.265   5.436  17.857  0.00  0.00    +0.000 A 
ATOM     20  C   UNL     1       4.211   6.340  17.328  0.00  0.00    +0.000 A 
ATOM     21  C   UNL     1       5.155   5.969  16.373  0.00  0.00    +0.000 A 
ATOM     22  C   UNL     1       5.201   4.659  15.928  0.00  0.00    +0.000 A 
ATOM     23  C   UNL     1       4.326   3.724  16.472  0.00  0.00    +0.000 A 
ATOM     24  C   UNL     1       3.370   4.087  17.450  0.00  0.00    +0.000 A 
BRANCH  24  25
ATOM     25  C   UNL     1       2.532   2.963  18.014  0.00  0.00    +0.000 C 
ATOM     26  F   UNL     1       2.779   2.638  19.310  0.00  0.00    +0.000 F 
ATOM     27  F   UNL     1       1.196   3.244  17.955  0.00  0.00    +0.000 F 
ATOM     28  F   UNL     1       2.686   1.801  17.313  0.00  0.00    +0.000 F 
ENDBRANCH  24  25
ENDBRANCH  18  19
ENDBRANCH   3  16
TORSDOF 5
ENDMDL
MODEL 3
REMARK VINA RESULT:      -7.7      2.179      2.744
REMARK  Name = 
REMARK  6 active torsions:
REMARK  status: ('A' for Active; 'I' for Inactive)
REMARK    1  A    between atoms: C_1  and  N_2
REMARK    2  A    between atoms: N_2  and  C_18
REMARK    3  A    between atoms: C_3  and  C_5
REMARK    4  A    between atoms: C_7  and  C_8
REMARK    5  A    between atoms: C_13  and  C_14
REMARK    6  A    between atoms: C_21  and  C_22
REMARK                            x       y       z     vdW  Elec       q    Type
REMARK                         _______ _______ _______ _____ _____    ______ ____
ROOT
ATOM      1  C   UNL     1       0.801   9.690  17.919  0.00  0.00    +0.000 C 
ATOM      2  N   UNL     1       0.947   9.487  19.361  0.00  0.00    +0.000 N 
ATOM      3  C   UNL     1       1.557   8.321  19.866  0.00  0.00    +0.000 C 
ATOM      4  O   UNL     1       1.727   8.068  21.054  0.00  0.00    +0.000 OA
ENDROOT
BRANCH   2   5
ATOM      5  C   UNL     1       0.557  10.572  20.234  0.00  0.00    +0.000 A 
ATOM      6  C   UNL     1       1.152  11.842  20.168  0.00  0.00    +0.000 A 
ATOM      7  C   UNL     1       0.757  12.895  21.013  0.00  0.00    +0.000 A 
ATOM      8  C   UNL     1      -0.254  12.705  21.956  0.00  0.00    +0.000 A 
ATOM      9  C   UNL     1      -0.850  11.445  22.041  0.00  0.00    +0.000 A 
ATOM     10  C   UNL     1      -0.450  10.401  21.196  0.00  0.00    +0.000 A 
BRANCH   8  11
ATOM     11  C   UNL     1      -0.746  13.762  22.883  0.00  0.00    +0.000 C 
ATOM     12  N   UNL     1      -1.966  13.595  23.478  0.00  0.00    +0.000 N 
ATOM     13  O   UNL     1      -0.081  14.761  23.126  0.00  0.00    +0.000 OA
ATOM     14  H   UNL     1      -2.580  12.810  23.337  0.00  0.00    +0.000 HD
ATOM     15  H   UNL     1      -2.265  14.328  24.106  0.00  0.00    +0.000 HD
ENDBRANCH   8  11
ENDBRANCH   2   5
BRANCH   3  16
ATOM     16  C   UNL     1       1.979   7.265  18.877  0.00  0.00    +0.000 C 
ATOM     17  C   UNL     1       3.362   7.321  18.284  0.00  0.00    +0.000 C 
ATOM     18  C   UNL     1       3.033   6.249  19.305  0.00  0.00    +0.000 C 
BRANCH  18  19
ATOM     19  C   UNL     1       2.997   4.799  18.846  0.00  0.00    +0.000 A 
ATOM     20  C   UNL     1       3.754   4.435  17.711  0.00  0.00    +0.000 A 
ATOM     21  C   UNL     1       3.745   3.147  17.180  0.00  0.00    +0.000 A 
ATOM     22  C   UNL     1       2.988   2.161  17.789  0.00  0.00    +0.000 A 
ATOM     23  C   UNL     1       2.278   2.464  18.946  0.00  0.00    +0.000 A 
ATOM     24  C   UNL     1       2.288   3.766  19.501  0.00  0.00    +0.000 A 
BRANCH  24  25
ATOM     25  C   UNL     1       1.538   3.944  20.800  0.00  0.00    +0.000 C 
ATOM     26  F   UNL     1       0.921   2.833  21.281  0.00  0.00    +0.000 F 
ATOM     27  F   UNL     1       2.357   4.373  21.807  0.00  0.00    +0.000 F 
ATOM     28  F   UNL     1       0.559   4.890  20.706  0.00  0.00    +0.000 F 
ENDBRANCH  24  25
ENDBRANCH  18  19
ENDBRANCH   3  16
TORSDOF 5
ENDMDL
MODEL 4
REMARK VINA RESULT:      -7.5      3.772      8.793
REMARK  Name = 
REMARK  6 active torsions:
REMARK  status: ('A' for Active; 'I' for Inactive)
REMARK    1  A    between atoms: C_1  and  N_2
REMARK    2  A    between atoms: N_2  and  C_18
REMARK    3  A    between atoms: C_3  and  C_5
REMARK    4  A    between atoms: C_7  and  C_8
REMARK    5  A    between atoms: C_13  and  C_14
REMARK    6  A    between atoms: C_21  and  C_22
REMARK                            x       y       z     vdW  Elec       q    Type
REMARK                         _______ _______ _______ _____ _____    ______ ____
ROOT
ATOM      1  C   UNL     1       1.863   7.345  20.299  0.00  0.00    +0.000 C 
ATOM      2  N   UNL     1       2.197   7.740  18.929  0.00  0.00    +0.000 N 
ATOM      3  C   UNL     1       1.672   8.924  18.372  0.00  0.00    +0.000 C 
ATOM      4  O   UNL     1       1.901   9.335  17.239  0.00  0.00    +0.000 OA
ENDROOT
BRANCH   2   5
ATOM      5  C   UNL     1       3.174   6.942  18.222  0.00  0.00    +0.000 A 
ATOM      6  C   UNL     1       4.352   7.491  17.691  0.00  0.00    +0.000 A 
ATOM      7  C   UNL     1       5.303   6.704  17.015  0.00  0.00    +0.000 A 
ATOM      8  C   UNL     1       5.099   5.333  16.851  0.00  0.00    +0.000 A 
ATOM      9  C   UNL     1       3.928   4.773  17.365  0.00  0.00    +0.000 A 
ATOM     10  C   UNL     1       2.985   5.564  18.036  0.00  0.00    +0.000 A 
BRANCH   8  11
ATOM     11  C   UNL     1       6.052   4.420  16.162  0.00  0.00    +0.000 C 
ATOM     12  N   UNL     1       7.380   4.747  16.148  0.00  0.00    +0.000 N 
ATOM     13  O   UNL     1       5.674   3.387  15.622  0.00  0.00    +0.000 OA
ATOM     14  H   UNL     1       7.780   5.572  16.563  0.00  0.00    +0.000 HD
ATOM     15  H   UNL     1       7.999   4.101  15.678  0.00  0.00    +0.000 HD
ENDBRANCH   8  11
ENDBRANCH   2   5
BRANCH   3  16
ATOM     16  C   UNL     1       0.700   9.720  19.204  0.00  0.00    +0.000 C 
ATOM     17  C   UNL     1       1.118  11.062  19.741  0.00  0.00    +0.000 C 
ATOM     18  C   UNL     1       0.110  10.994  18.610  0.00  0.00    +0.000 C 
BRANCH  18  19
ATOM     19  C   UNL     1      -1.321  11.433  18.886  0.00  0.00    +0.000 A 
ATOM     20  C   UNL     1      -1.556  12.309  19.967  0.00  0.00    +0.000 A 
ATOM     21  C   UNL     1      -2.834  12.726  20.335  0.00  0.00    +0.000 A 
ATOM     22  C   UNL     1      -3.931  12.294  19.609  0.00  0.00    +0.000 A 
ATOM     23  C   UNL     1      -3.734  11.480  18.498  0.00  0.00    +0.000 A 
ATOM     24  C   UNL     1      -2.440  11.060  18.108  0.00  0.00    +0.000 A 
BRANCH  24  25
ATOM     25  C   UNL     1      -2.357  10.242  16.841  0.00  0.00    +0.000 C 
ATOM     26  F   UNL     1      -2.247  10.952  15.688  0.00  0.00    +0.000 F 
ATOM     27  F   UNL     1      -1.287   9.392  16.851  0.00  0.00    +0.000 F 
ATOM     28  F   UNL     1      -3.450   9.440  16.670  0.00  0.00    +0.000 F 
ENDBRANCH  24  25
ENDBRANCH  18  19
ENDBRANCH   3  16
TORSDOF 5
ENDMDL
MODEL 5
REMARK VINA RESULT:      -7.5      2.185      2.754
REMARK  Name = 
REMARK  6 active torsions:
REMARK  status: ('A' for Active; 'I' for Inactive)
REMARK    1  A    between atoms: C_1  and  N_2
REMARK    2  A    between atoms: N_2  and  C_18
REMARK    3  A    between atoms: C_3  and  C_5
REMARK    4  A    between atoms: C_7  and  C_8
REMARK    5  A    between atoms: C_13  and  C_14
REMARK    6  A    between atoms: C_21  and  C_22
REMARK                            x       y       z     vdW  Elec       q    Type
REMARK                         _______ _______ _______ _____ _____    ______ ____
ROOT
ATOM      1  C   UNL     1       0.218   9.791  18.011  0.00  0.00    +0.000 C 
ATOM      2  N   UNL     1       0.622   9.656  19.411  0.00  0.00    +0.000 N 
ATOM      3  C   UNL     1       1.431   8.579  19.828  0.00  0.00    +0.000 C 
ATOM      4  O   UNL     1       1.821   8.389  20.975  0.00  0.00    +0.000 OA
ENDROOT
BRANCH   2   5
ATOM      5  C   UNL     1       0.266  10.726  20.317  0.00  0.00    +0.000 A 
ATOM      6  C   UNL     1      -0.612  10.539  21.396  0.00  0.00    +0.000 A 
ATOM      7  C   UNL     1      -0.942  11.583  22.279  0.00  0.00    +0.000 A 
ATOM      8  C   UNL     1      -0.396  12.856  22.105  0.00  0.00    +0.000 A 
ATOM      9  C   UNL     1       0.472  13.062  21.031  0.00  0.00    +0.000 A 
ATOM     10  C   UNL     1       0.795  12.016  20.155  0.00  0.00    +0.000 A 
BRANCH   8  11
ATOM     11  C   UNL     1      -0.677  14.018  22.994  0.00  0.00    +0.000 C 
ATOM     12  N   UNL     1      -1.823  14.011  23.739  0.00  0.00    +0.000 N 
ATOM     13  O   UNL     1       0.097  14.964  23.075  0.00  0.00    +0.000 OA
ATOM     14  H   UNL     1      -2.515  13.280  23.736  0.00  0.00    +0.000 HD
ATOM     15  H   UNL     1      -1.978  14.812  24.336  0.00  0.00    +0.000 HD
ENDBRANCH   8  11
ENDBRANCH   2   5
BRANCH   3  16
ATOM     16  C   UNL     1       1.796   7.538  18.802  0.00  0.00    +0.000 C 
ATOM     17  C   UNL     1       3.137   7.611  18.122  0.00  0.00    +0.000 C 
ATOM     18  C   UNL     1       2.882   6.525  19.149  0.00  0.00    +0.000 C 
BRANCH  18  19
ATOM     19  C   UNL     1       2.826   5.080  18.676  0.00  0.00    +0.000 A 
ATOM     20  C   UNL     1       3.529   4.730  17.503  0.00  0.00    +0.000 A 
ATOM     21  C   UNL     1       3.497   3.448  16.959  0.00  0.00    +0.000 A 
ATOM     22  C   UNL     1       2.772   2.453  17.592  0.00  0.00    +0.000 A 
ATOM     23  C   UNL     1       2.117   2.742  18.786  0.00  0.00    +0.000 A 
ATOM     24  C   UNL     1       2.152   4.038  19.353  0.00  0.00    +0.000 A 
BRANCH  24  25
ATOM     25  C   UNL     1       1.464   4.201  20.688  0.00  0.00    +0.000 C 
ATOM     26  F   UNL     1       0.486   5.142  20.736  0.00  0.00    +0.000 F 
ATOM     27  F   UNL     1       0.875   3.040  21.103  0.00  0.00    +0.000 F 
ATOM     28  F   UNL     1       2.338   4.535  21.683  0.00  0.00    +0.000 F 
ENDBRANCH  24  25
ENDBRANCH  18  19
ENDBRANCH   3  16
TORSDOF 5
ENDMDL
MODEL 6
REMARK VINA RESULT:      -7.4      4.163      8.819
REMARK  Name = 
REMARK  6 active torsions:
REMARK  status: ('A' for Active; 'I' for Inactive)
REMARK    1  A    between atoms: C_1  and  N_2
REMARK    2  A    between atoms: N_2  and  C_18
REMARK    3  A    between atoms: C_3  and  C_5
REMARK    4  A    between atoms: C_7  and  C_8
REMARK    5  A    between atoms: C_13  and  C_14
REMARK    6  A    between atoms: C_21  and  C_22
REMARK                            x       y       z     vdW  Elec       q    Type
REMARK                         _______ _______ _______ _____ _____    ______ ____
ROOT
ATOM      1  C   UNL     1       1.361   7.832  21.255  0.00  0.00    +0.000 C 
ATOM      2  N   UNL     1       1.861   7.405  19.947  0.00  0.00    +0.000 N 
ATOM      3  C   UNL     1       1.939   8.314  18.873  0.00  0.00    +0.000 C 
ATOM      4  O   UNL     1       2.348   8.049  17.748  0.00  0.00    +0.000 OA
ENDROOT
BRANCH   2   5
ATOM      5  C   UNL     1       2.383   6.061  19.836  0.00  0.00    +0.000 A 
ATOM      6  C   UNL     1       1.640   4.931  20.210  0.00  0.00    +0.000 A 
ATOM      7  C   UNL     1       2.152   3.626  20.087  0.00  0.00    +0.000 A 
ATOM      8  C   UNL     1       3.434   3.415  19.579  0.00  0.00    +0.000 A 
ATOM      9  C   UNL     1       4.191   4.529  19.211  0.00  0.00    +0.000 A 
ATOM     10  C   UNL     1       3.675   5.825  19.338  0.00  0.00    +0.000 A 
BRANCH   8  11
ATOM     11  C   UNL     1       4.055   2.072  19.401  0.00  0.00    +0.000 C 
ATOM     12  N   UNL     1       5.087   1.714  20.223  0.00  0.00    +0.000 N 
ATOM     13  O   UNL     1       3.656   1.290  18.547  0.00  0.00    +0.000 OA
ATOM     14  H   UNL     1       5.481   2.289  20.949  0.00  0.00    +0.000 HD
ATOM     15  H   UNL     1       5.480   0.793  20.079  0.00  0.00    +0.000 HD
ENDBRANCH   8  11
ENDBRANCH   2   5
BRANCH   3  16
ATOM     16  C   UNL     1       1.419   9.711  19.097  0.00  0.00    +0.000 C 
ATOM     17  C   UNL     1       1.270  10.640  17.922  0.00  0.00    +0.000 C 
ATOM     18  C   UNL     1       0.029  10.061  18.575  0.00  0.00    +0.000 C 
BRANCH  18  19
ATOM     19  C   UNL     1      -0.905  11.004  19.319  0.00  0.00    +0.000 A 
ATOM     20  C   UNL     1      -0.461  11.565  20.536  0.00  0.00    +0.000 A 
ATOM     21  C   UNL     1      -1.260  12.395  21.319  0.00  0.00    +0.000 A 
ATOM     22  C   UNL     1      -2.538  12.716  20.893  0.00  0.00    +0.000 A 
ATOM     23  C   UNL     1      -2.989  12.235  19.668  0.00  0.00    +0.000 A 
ATOM     24  C   UNL     1      -2.182  11.399  18.859  0.00  0.00    +0.000 A 
BRANCH  24  25
ATOM     25  C   UNL     1      -2.759  11.007  17.520  0.00  0.00    +0.000 C 
ATOM     26  F   UNL     1      -2.891   9.672  17.304  0.00  0.00    +0.000 F 
ATOM     27  F   UNL     1      -4.005  11.534  17.327  0.00  0.00    +0.000 F 
ATOM     28  F   UNL     1      -2.008  11.470  16.477  0.00  0.00    +0.000 F 
ENDBRANCH  24  25
ENDBRANCH  18  19
ENDBRANCH   3  16
TORSDOF 5
ENDMDL
MODEL 7
REMARK VINA RESULT:      -7.4      3.903      8.858
REMARK  Name = 
REMARK  6 active torsions:
REMARK  status: ('A' for Active; 'I' for Inactive)
REMARK    1  A    between atoms: C_1  and  N_2
REMARK    2  A    between atoms: N_2  and  C_18
REMARK    3  A    between atoms: C_3  and  C_5
REMARK    4  A    between atoms: C_7  and  C_8
REMARK    5  A    between atoms: C_13  and  C_14
REMARK    6  A    between atoms: C_21  and  C_22
REMARK                            x       y       z     vdW  Elec       q    Type
REMARK                         _______ _______ _______ _____ _____    ______ ____
ROOT
ATOM      1  C   UNL     1       1.019   8.400  20.922  0.00  0.00    +0.000 C 
ATOM      2  N   UNL     1       1.534   8.487  19.554  0.00  0.00    +0.000 N 
ATOM      3  C   UNL     1       1.244   9.604  18.745  0.00  0.00    +0.000 C 
ATOM      4  O   UNL     1       1.635   9.766  17.594  0.00  0.00    +0.000 OA
ENDROOT
BRANCH   2   5
ATOM      5  C   UNL     1       2.444   7.453  19.114  0.00  0.00    +0.000 A 
ATOM      6  C   UNL     1       3.137   7.528  17.895  0.00  0.00    +0.000 A 
ATOM      7  C   UNL     1       4.029   6.523  17.481  0.00  0.00    +0.000 A 
ATOM      8  C   UNL     1       4.256   5.404  18.284  0.00  0.00    +0.000 A 
ATOM      9  C   UNL     1       3.569   5.309  19.495  0.00  0.00    +0.000 A 
ATOM     10  C   UNL     1       2.680   6.314  19.900  0.00  0.00    +0.000 A 
BRANCH   8  11
ATOM     11  C   UNL     1       5.190   4.297  17.935  0.00  0.00    +0.000 C 
ATOM     12  N   UNL     1       5.556   3.416  18.914  0.00  0.00    +0.000 N 
ATOM     13  O   UNL     1       5.624   4.159  16.798  0.00  0.00    +0.000 OA
ATOM     14  H   UNL     1       5.251   3.451  19.873  0.00  0.00    +0.000 HD
ATOM     15  H   UNL     1       6.185   2.673  18.641  0.00  0.00    +0.000 HD
ENDBRANCH   8  11
ENDBRANCH   2   5
BRANCH   3  16
ATOM     16  C   UNL     1       0.327  10.659  19.308  0.00  0.00    +0.000 C 
ATOM     17  C   UNL     1       0.540  12.100  18.927  0.00  0.00    +0.000 C 
ATOM     18  C   UNL     1      -0.652  11.350  18.364  0.00  0.00    +0.000 C 
BRANCH  18  19
ATOM     19  C   UNL     1      -2.047  11.769  18.805  0.00  0.00    +0.000 A 
ATOM     20  C   UNL     1      -2.175  12.548  19.975  0.00  0.00    +0.000 A 
ATOM     21  C   UNL     1      -3.409  12.937  20.491  0.00  0.00    +0.000 A 
ATOM     22  C   UNL     1      -4.571  12.576  19.831  0.00  0.00    +0.000 A 
ATOM     23  C   UNL     1      -4.485  11.862  18.640  0.00  0.00    +0.000 A 
ATOM     24  C   UNL     1      -3.236  11.471  18.101  0.00  0.00    +0.000 A 
BRANCH  24  25
ATOM     25  C   UNL     1      -3.276  10.767  16.765  0.00  0.00    +0.000 C 
ATOM     26  F   UNL     1      -2.458  11.275  15.807  0.00  0.00    +0.000 F 
ATOM     27  F   UNL     1      -2.938   9.447  16.874  0.00  0.00    +0.000 F 
ATOM     28  F   UNL     1      -4.526  10.773  16.215  0.00  0.00    +0.000 F 
ENDBRANCH  24  25
ENDBRANCH  18  19
ENDBRANCH   3  16
TORSDOF 5
ENDMDL
MODEL 8
REMARK VINA RESULT:      -7.4      4.153      8.866
REMARK  Name = 
REMARK  6 active torsions:
REMARK  status: ('A' for Active; 'I' for Inactive)
REMARK    1  A    between atoms: C_1  and  N_2
REMARK    2  A    between atoms: N_2  and  C_18
REMARK    3  A    between atoms: C_3  and  C_5
REMARK    4  A    between atoms: C_7  and  C_8
REMARK    5  A    between atoms: C_13  and  C_14
REMARK    6  A    between atoms: C_21  and  C_22
REMARK                            x       y       z     vdW  Elec       q    Type
REMARK                         _______ _______ _______ _____ _____    ______ ____
ROOT
ATOM      1  C   UNL     1       1.318   7.876  21.241  0.00  0.00    +0.000 C 
ATOM      2  N   UNL     1       1.821   7.507  19.916  0.00  0.00    +0.000 N 
ATOM      3  C   UNL     1       1.852   8.449  18.869  0.00  0.00    +0.000 C 
ATOM      4  O   UNL     1       2.260   8.232  17.732  0.00  0.00    +0.000 OA
ENDROOT
BRANCH   2   5
ATOM      5  C   UNL     1       2.393   6.188  19.761  0.00  0.00    +0.000 A 
ATOM      6  C   UNL     1       3.691   5.983  19.267  0.00  0.00    +0.000 A 
ATOM      7  C   UNL     1       4.244   4.697  19.131  0.00  0.00    +0.000 A 
ATOM      8  C   UNL     1       3.505   3.568  19.490  0.00  0.00    +0.000 A 
ATOM      9  C   UNL     1       2.209   3.753  19.975  0.00  0.00    +0.000 A 
ATOM     10  C   UNL     1       1.665   5.038  20.106  0.00  0.00    +0.000 A 
BRANCH   8  11
ATOM     11  C   UNL     1       4.010   2.170  19.393  0.00  0.00    +0.000 C 
ATOM     12  N   UNL     1       5.075   1.802  20.167  0.00  0.00    +0.000 N 
ATOM     13  O   UNL     1       3.487   1.350  18.647  0.00  0.00    +0.000 OA
ATOM     14  H   UNL     1       5.566   2.405  20.806  0.00  0.00    +0.000 HD
ATOM     15  H   UNL     1       5.386   0.844  20.081  0.00  0.00    +0.000 HD
ENDBRANCH   8  11
ENDBRANCH   2   5
BRANCH   3  16
ATOM     16  C   UNL     1       1.281   9.817  19.139  0.00  0.00    +0.000 C 
ATOM     17  C   UNL     1       1.205  10.819  18.018  0.00  0.00    +0.000 C 
ATOM     18  C   UNL     1      -0.070  10.174  18.526  0.00  0.00    +0.000 C 
BRANCH  18  19
ATOM     19  C   UNL     1      -1.085  11.047  19.250  0.00  0.00    +0.000 A 
ATOM     20  C   UNL     1      -0.741  11.565  20.517  0.00  0.00    +0.000 A 
ATOM     21  C   UNL     1      -1.620  12.329  21.282  0.00  0.00    +0.000 A 
ATOM     22  C   UNL     1      -2.879  12.624  20.788  0.00  0.00    +0.000 A 
ATOM     23  C   UNL     1      -3.232  12.185  19.516  0.00  0.00    +0.000 A 
ATOM     24  C   UNL     1      -2.344  11.418  18.726  0.00  0.00    +0.000 A 
BRANCH  24  25
ATOM     25  C   UNL     1      -2.820  11.069  17.335  0.00  0.00    +0.000 C 
ATOM     26  F   UNL     1      -2.022  11.486  16.318  0.00  0.00    +0.000 F 
ATOM     27  F   UNL     1      -2.953   9.719  17.166  0.00  0.00    +0.000 F 
ATOM     28  F   UNL     1      -4.054  11.588  17.065  0.00  0.00    +0.000 F 
ENDBRANCH  24  25
ENDBRANCH  18  19
ENDBRANCH   3  16
TORSDOF 5
ENDMDL
MODEL 9
REMARK VINA RESULT:      -7.4      3.843      8.824
REMARK  Name = 
REMARK  6 active torsions:
REMARK  status: ('A' for Active; 'I' for Inactive)
REMARK    1  A    between atoms: C_1  and  N_2
REMARK    2  A    between atoms: N_2  and  C_18
REMARK    3  A    between atoms: C_3  and  C_5
REMARK    4  A    between atoms: C_7  and  C_8
REMARK    5  A    between atoms: C_13  and  C_14
REMARK    6  A    between atoms: C_21  and  C_22
REMARK                            x       y       z     vdW  Elec       q    Type
REMARK                         _______ _______ _______ _____ _____    ______ ____
ROOT
ATOM      1  C   UNL     1       1.794   7.685  20.551  0.00  0.00    +0.000 C 
ATOM      2  N   UNL     1       2.006   7.936  19.125  0.00  0.00    +0.000 N 
ATOM      3  C   UNL     1       1.438   9.064  18.499  0.00  0.00    +0.000 C 
ATOM      4  O   UNL     1       1.565   9.357  17.315  0.00  0.00    +0.000 OA
ENDROOT
BRANCH   2   5
ATOM      5  C   UNL     1       2.913   7.059  18.418  0.00  0.00    +0.000 A 
ATOM      6  C   UNL     1       2.731   5.667  18.369  0.00  0.00    +0.000 A 
ATOM      7  C   UNL     1       3.612   4.824  17.668  0.00  0.00    +0.000 A 
ATOM      8  C   UNL     1       4.710   5.355  16.989  0.00  0.00    +0.000 A 
ATOM      9  C   UNL     1       4.911   6.736  17.036  0.00  0.00    +0.000 A 
ATOM     10  C   UNL     1       4.030   7.569  17.737  0.00  0.00    +0.000 A 
BRANCH   8  11
ATOM     11  C   UNL     1       5.688   4.543  16.212  0.00  0.00    +0.000 C 
ATOM     12  N   UNL     1       5.547   3.184  16.199  0.00  0.00    +0.000 N 
ATOM     13  O   UNL     1       6.600   5.068  15.585  0.00  0.00    +0.000 OA
ATOM     14  H   UNL     1       4.832   2.667  16.684  0.00  0.00    +0.000 HD
ATOM     15  H   UNL     1       6.224   2.665  15.656  0.00  0.00    +0.000 HD
ENDBRANCH   8  11
ENDBRANCH   2   5
BRANCH   3  16
ATOM     16  C   UNL     1       0.547   9.952  19.329  0.00  0.00    +0.000 C 
ATOM     17  C   UNL     1       1.011  11.340  19.680  0.00  0.00    +0.000 C 
ATOM     18  C   UNL     1      -0.098  11.161  18.661  0.00  0.00    +0.000 C 
BRANCH  18  19
ATOM     19  C   UNL     1      -1.498  11.639  19.022  0.00  0.00    +0.000 A 
ATOM     20  C   UNL     1      -1.650  12.479  20.146  0.00  0.00    +0.000 A 
ATOM     21  C   UNL     1      -2.893  12.925  20.590  0.00  0.00    +0.000 A 
ATOM     22  C   UNL     1      -4.037  12.561  19.902  0.00  0.00    +0.000 A 
ATOM     23  C   UNL     1      -3.923  11.786  18.752  0.00  0.00    +0.000 A 
ATOM     24  C   UNL     1      -2.665  11.336  18.285  0.00  0.00    +0.000 A 
BRANCH  24  25
ATOM     25  C   UNL     1      -2.671  10.567  16.985  0.00  0.00    +0.000 C 
ATOM     26  F   UNL     1      -1.951   9.416  16.979  0.00  0.00    +0.000 F 
ATOM     27  F   UNL     1      -3.936  10.209  16.610  0.00  0.00    +0.000 F 
ATOM     28  F   UNL     1      -2.184  11.306  15.945  0.00  0.00    +0.000 F 
ENDBRANCH  24  25
ENDBRANCH  18  19
ENDBRANCH   3  16
TORSDOF 5
ENDMDL
