MODEL 1
REMARK VINA RESULT:      -7.6      0.000      0.000
REMARK  Name = 
REMARK  5 active torsions:
REMARK  status: ('A' for Active; 'I' for Inactive)
REMARK    1  A    between atoms: C_2  and  C_3
REMARK    2  A    between atoms: N_13  and  C_14
REMARK    3  A    between atoms: C_14  and  C_15
REMARK    4  A    between atoms: C_15  and  C_16
REMARK    5  A    between atoms: C_16  and  N_17
REMARK                            x       y       z     vdW  Elec       q    Type
REMARK                         _______ _______ _______ _____ _____    ______ ____
ROOT
ATOM      1  O   UNL     1       4.144   2.288  17.335  0.00  0.00    +0.000 OA
ATOM      2  C   UNL     1       4.123   3.296  18.040  0.00  0.00    +0.000 C 
ATOM      3  N   UNL     1       4.928   4.407  17.796  0.00  0.00    +0.000 N 
ATOM      4  C   UNL     1       5.929   4.334  16.726  0.00  0.00    +0.000 C 
ATOM      5  C   UNL     1       5.921   5.611  15.863  0.00  0.00    +0.000 C 
ATOM      6  N   UNL     1       6.028   6.879  16.627  0.00  0.00    +0.000 NA
ATOM      7  C   UNL     1       4.942   6.897  17.629  0.00  0.00    +0.000 C 
ATOM      8  C   UNL     1       4.914   5.668  18.551  0.00  0.00    +0.000 C 
ENDROOT
BRANCH   2   9
ATOM      9  C   UNL     1       3.124   3.338  19.127  0.00  0.00    +0.000 A 
ATOM     10  C   UNL     1       3.471   2.778  20.362  0.00  0.00    +0.000 A 
ATOM     11  C   UNL     1       2.527   2.714  21.389  0.00  0.00    +0.000 A 
ATOM     12  C   UNL     1       1.236   3.207  21.184  0.00  0.00    +0.000 A 
ATOM     13  C   UNL     1       0.905   3.807  19.969  0.00  0.00    +0.000 A 
ATOM     14  C   UNL     1       1.860   3.901  18.961  0.00  0.00    +0.000 A 
ATOM     15  F   UNL     1       1.513   4.500  17.812  0.00  0.00    +0.000 F 
ENDBRANCH   2   9
BRANCH   6  16
ATOM     16  C   UNL     1       7.334   7.063  17.279  0.00  0.00    +0.000 C 
BRANCH  16  17
ATOM     17  C   UNL     1       7.653   8.528  17.562  0.00  0.00    +0.000 C 
BRANCH  17  18
ATOM     18  C   UNL     1       8.621   8.673  18.731  0.00  0.00    +0.000 C 
BRANCH  18  19
ATOM     19  N   UNL     1       8.987  10.057  18.940  0.00  0.00    +0.000 N 
ATOM     20  C   UNL     1       9.395  10.636  20.101  0.00  0.00    +0.000 A 
ATOM     21  N   UNL     1       9.610  11.912  19.894  0.00  0.00    +0.000 NA
ATOM     22  C   UNL     1       9.309  12.064  18.570  0.00  0.00    +0.000 A 
ATOM     23  N   UNL     1       8.917  10.950  17.944  0.00  0.00    +0.000 NA
ENDBRANCH  18  19
ENDBRANCH  17  18
ENDBRANCH  16  17
ENDBRANCH   6  16
TORSDOF 5
ENDMDL
MODEL 2
REMARK VINA RESULT:      -7.3      1.076      1.473
REMARK  Name = 
REMARK  5 active torsions:
REMARK  status: ('A' for Active; 'I' for Inactive)
REMARK    1  A    between atoms: C_2  and  C_3
REMARK    2  A    between atoms: N_13  and  C_14
REMARK    3  A    between atoms: C_14  and  C_15
REMARK    4  A    between atoms: C_15  and  C_16
REMARK    5  A    between atoms: C_16  and  N_17
REMARK                            x       y       z     vdW  Elec       q    Type
REMARK                         _______ _______ _______ _____ _____    ______ ____
ROOT
ATOM      1  O   UNL     1       4.192   2.222  17.288  0.00  0.00    +0.000 OA
ATOM      2  C   UNL     1       4.155   3.194  18.043  0.00  0.00    +0.000 C 
ATOM      3  N   UNL     1       4.945   4.327  17.856  0.00  0.00    +0.000 N 
ATOM      4  C   UNL     1       5.949   4.321  16.787  0.00  0.00    +0.000 C 
ATOM      5  C   UNL     1       5.925   5.639  15.988  0.00  0.00    +0.000 C 
ATOM      6  N   UNL     1       6.012   6.869  16.814  0.00  0.00    +0.000 NA
ATOM      7  C   UNL     1       4.923   6.822  17.813  0.00  0.00    +0.000 C 
ATOM      8  C   UNL     1       4.911   5.548  18.673  0.00  0.00    +0.000 C 
ENDROOT
BRANCH   2   9
ATOM      9  C   UNL     1       3.153   3.167  19.127  0.00  0.00    +0.000 A 
ATOM     10  C   UNL     1       1.883   3.696  18.862  0.00  0.00    +0.000 A 
ATOM     11  C   UNL     1       0.934   3.773  19.883  0.00  0.00    +0.000 A 
ATOM     12  C   UNL     1       1.250   3.327  21.168  0.00  0.00    +0.000 A 
ATOM     13  C   UNL     1       2.498   2.758  21.419  0.00  0.00    +0.000 A 
ATOM     14  C   UNL     1       3.429   2.649  20.390  0.00  0.00    +0.000 A 
ATOM     15  F   UNL     1       4.613   2.080  20.662  0.00  0.00    +0.000 F 
ENDBRANCH   2   9
BRANCH   6  16
ATOM     16  C   UNL     1       7.314   7.039  17.479  0.00  0.00    +0.000 C 
BRANCH  16  17
ATOM     17  C   UNL     1       7.830   8.473  17.412  0.00  0.00    +0.000 C 
BRANCH  17  18
ATOM     18  C   UNL     1       8.586   8.854  18.680  0.00  0.00    +0.000 C 
BRANCH  18  19
ATOM     19  N   UNL     1       9.051  10.223  18.621  0.00  0.00    +0.000 N 
ATOM     20  C   UNL     1      10.029  10.794  19.373  0.00  0.00    +0.000 A 
ATOM     21  N   UNL     1      10.143  12.058  19.045  0.00  0.00    +0.000 NA
ATOM     22  C   UNL     1       9.191  12.211  18.076  0.00  0.00    +0.000 A 
ATOM     23  N   UNL     1       8.493  11.109  17.786  0.00  0.00    +0.000 NA
ENDBRANCH  18  19
ENDBRANCH  17  18
ENDBRANCH  16  17
ENDBRANCH   6  16
TORSDOF 5
ENDMDL
MODEL 3
REMARK VINA RESULT:      -7.2      3.524      6.340
REMARK  Name = 
REMARK  5 active torsions:
REMARK  status: ('A' for Active; 'I' for Inactive)
REMARK    1  A    between atoms: C_2  and  C_3
REMARK    2  A    between atoms: N_13  and  C_14
REMARK    3  A    between atoms: C_14  and  C_15
REMARK    4  A    between atoms: C_15  and  C_16
REMARK    5  A    between atoms: C_16  and  N_17
REMARK                            x       y       z     vdW  Elec       q    Type
REMARK                         _______ _______ _______ _____ _____    ______ ____
ROOT
ATOM      1  O   UNL     1       2.688   7.134  19.246  0.00  0.00    +0.000 OA
ATOM      2  C   UNL     1       2.949   6.017  18.800  0.00  0.00    +0.000 C 
ATOM      3  N   UNL     1       3.886   5.806  17.790  0.00  0.00    +0.000 N 
ATOM      4  C   UNL     1       4.505   6.968  17.145  0.00  0.00    +0.000 C 
ATOM      5  C   UNL     1       6.027   6.780  16.989  0.00  0.00    +0.000 C 
ATOM      6  N   UNL     1       6.432   5.511  16.335  0.00  0.00    +0.000 NA
ATOM      7  C   UNL     1       5.824   4.396  17.091  0.00  0.00    +0.000 C 
ATOM      8  C   UNL     1       4.299   4.502  17.253  0.00  0.00    +0.000 C 
ENDROOT
BRANCH   2   9
ATOM      9  C   UNL     1       2.296   4.863  19.449  0.00  0.00    +0.000 A 
ATOM     10  C   UNL     1       2.621   4.587  20.783  0.00  0.00    +0.000 A 
ATOM     11  C   UNL     1       2.097   3.454  21.408  0.00  0.00    +0.000 A 
ATOM     12  C   UNL     1       1.251   2.595  20.705  0.00  0.00    +0.000 A 
ATOM     13  C   UNL     1       0.891   2.895  19.391  0.00  0.00    +0.000 A 
ATOM     14  C   UNL     1       1.386   4.044  18.783  0.00  0.00    +0.000 A 
ATOM     15  F   UNL     1       1.005   4.312  17.525  0.00  0.00    +0.000 F 
ENDBRANCH   2   9
BRANCH   6  16
ATOM     16  C   UNL     1       6.055   5.435  14.914  0.00  0.00    +0.000 C 
BRANCH  16  17
ATOM     17  C   UNL     1       6.322   4.063  14.303  0.00  0.00    +0.000 C 
BRANCH  17  18
ATOM     18  C   UNL     1       5.424   3.804  13.099  0.00  0.00    +0.000 C 
BRANCH  18  19
ATOM     19  N   UNL     1       6.069   2.929  12.143  0.00  0.00    +0.000 N 
ATOM     20  C   UNL     1       5.551   1.809  11.571  0.00  0.00    +0.000 A 
ATOM     21  N   UNL     1       6.448   1.275  10.779  0.00  0.00    +0.000 NA
ATOM     22  C   UNL     1       7.514   2.119  10.910  0.00  0.00    +0.000 A 
ATOM     23  N   UNL     1       7.328   3.148  11.742  0.00  0.00    +0.000 NA
ENDBRANCH  18  19
ENDBRANCH  17  18
ENDBRANCH  16  17
ENDBRANCH   6  16
TORSDOF 5
ENDMDL
MODEL 4
REMARK VINA RESULT:      -7.2      1.401      1.669
REMARK  Name = 
REMARK  5 active torsions:
REMARK  status: ('A' for Active; 'I' for Inactive)
REMARK    1  A    between atoms: C_2  and  C_3
REMARK    2  A    between atoms: N_13  and  C_14
REMARK    3  A    between atoms: C_14  and  C_15
REMARK    4  A    between atoms: C_15  and  C_16
REMARK    5  A    between atoms: C_16  and  N_17
REMARK                            x       y       z     vdW  Elec       q    Type
REMARK                         _______ _______ _______ _____ _____    ______ ____
ROOT
ATOM      1  O   UNL     1       5.305   3.068  19.910  0.00  0.00    +0.000 OA
ATOM      2  C   UNL     1       4.608   3.944  19.400  0.00  0.00    +0.000 C 
ATOM      3  N   UNL     1       5.144   5.070  18.778  0.00  0.00    +0.000 N 
ATOM      4  C   UNL     1       6.592   5.287  18.833  0.00  0.00    +0.000 C 
ATOM      5  C   UNL     1       7.150   5.703  17.457  0.00  0.00    +0.000 C 
ATOM      6  N   UNL     1       6.449   6.848  16.823  0.00  0.00    +0.000 NA
ATOM      7  C   UNL     1       5.012   6.513  16.745  0.00  0.00    +0.000 C 
ATOM      8  C   UNL     1       4.381   6.123  18.092  0.00  0.00    +0.000 C 
ENDROOT
BRANCH   2   9
ATOM      9  C   UNL     1       3.149   3.717  19.378  0.00  0.00    +0.000 A 
ATOM     10  C   UNL     1       2.384   4.247  20.423  0.00  0.00    +0.000 A 
ATOM     11  C   UNL     1       1.015   3.980  20.491  0.00  0.00    +0.000 A 
ATOM     12  C   UNL     1       0.409   3.184  19.518  0.00  0.00    +0.000 A 
ATOM     13  C   UNL     1       1.162   2.694  18.451  0.00  0.00    +0.000 A 
ATOM     14  C   UNL     1       2.519   2.992  18.368  0.00  0.00    +0.000 A 
ATOM     15  F   UNL     1       3.210   2.521  17.318  0.00  0.00    +0.000 F 
ENDBRANCH   2   9
BRANCH   6  16
ATOM     16  C   UNL     1       6.643   8.122  17.534  0.00  0.00    +0.000 C 
BRANCH  16  17
ATOM     17  C   UNL     1       8.076   8.638  17.443  0.00  0.00    +0.000 C 
BRANCH  17  18
ATOM     18  C   UNL     1       8.685   8.841  18.826  0.00  0.00    +0.000 C 
BRANCH  18  19
ATOM     19  N   UNL     1       9.218  10.178  18.973  0.00  0.00    +0.000 N 
ATOM     20  C   UNL     1       9.739  10.970  17.998  0.00  0.00    +0.000 A 
ATOM     21  N   UNL     1      10.139  12.100  18.528  0.00  0.00    +0.000 NA
ATOM     22  C   UNL     1       9.838  11.942  19.852  0.00  0.00    +0.000 A 
ATOM     23  N   UNL     1       9.274  10.774  20.172  0.00  0.00    +0.000 NA
ENDBRANCH  18  19
ENDBRANCH  17  18
ENDBRANCH  16  17
ENDBRANCH   6  16
TORSDOF 5
ENDMDL
MODEL 5
REMARK VINA RESULT:      -6.9      3.676      6.003
REMARK  Name = 
REMARK  5 active torsions:
REMARK  status: ('A' for Active; 'I' for Inactive)
REMARK    1  A    between atoms: C_2  and  C_3
REMARK    2  A    between atoms: N_13  and  C_14
REMARK    3  A    between atoms: C_14  and  C_15
REMARK    4  A    between atoms: C_15  and  C_16
REMARK    5  A    between atoms: C_16  and  N_17
REMARK                            x       y       z     vdW  Elec       q    Type
REMARK                         _______ _______ _______ _____ _____    ______ ____
ROOT
ATOM      1  O   UNL     1       2.530   6.940  18.186  0.00  0.00    +0.000 OA
ATOM      2  C   UNL     1       2.960   5.788  18.249  0.00  0.00    +0.000 C 
ATOM      3  N   UNL     1       4.071   5.355  17.528  0.00  0.00    +0.000 N 
ATOM      4  C   UNL     1       4.689   6.270  16.563  0.00  0.00    +0.000 C 
ATOM      5  C   UNL     1       6.226   6.261  16.686  0.00  0.00    +0.000 C 
ATOM      6  N   UNL     1       6.845   4.913  16.636  0.00  0.00    +0.000 NA
ATOM      7  C   UNL     1       6.213   4.084  17.684  0.00  0.00    +0.000 C 
ATOM      8  C   UNL     1       4.680   4.019  17.599  0.00  0.00    +0.000 C 
ENDROOT
BRANCH   2   9
ATOM      9  C   UNL     1       2.306   4.877  19.209  0.00  0.00    +0.000 A 
ATOM     10  C   UNL     1       2.670   4.972  20.558  0.00  0.00    +0.000 A 
ATOM     11  C   UNL     1       2.144   4.071  21.487  0.00  0.00    +0.000 A 
ATOM     12  C   UNL     1       1.259   3.074  21.072  0.00  0.00    +0.000 A 
ATOM     13  C   UNL     1       0.862   3.009  19.736  0.00  0.00    +0.000 A 
ATOM     14  C   UNL     1       1.359   3.931  18.821  0.00  0.00    +0.000 A 
ATOM     15  F   UNL     1       0.942   3.851  17.547  0.00  0.00    +0.000 F 
ENDBRANCH   2   9
BRANCH   6  16
ATOM     16  C   UNL     1       6.725   4.260  15.322  0.00  0.00    +0.000 C 
BRANCH  16  17
ATOM     17  C   UNL     1       6.928   5.227  14.160  0.00  0.00    +0.000 C 
BRANCH  17  18
ATOM     18  C   UNL     1       7.457   4.510  12.923  0.00  0.00    +0.000 C 
BRANCH  18  19
ATOM     19  N   UNL     1       6.450   3.645  12.348  0.00  0.00    +0.000 N 
ATOM     20  C   UNL     1       6.637   2.419  11.790  0.00  0.00    +0.000 A 
ATOM     21  N   UNL     1       5.487   1.962  11.358  0.00  0.00    +0.000 NA
ATOM     22  C   UNL     1       4.617   2.966  11.678  0.00  0.00    +0.000 A 
ATOM     23  N   UNL     1       5.166   4.023  12.285  0.00  0.00    +0.000 NA
ENDBRANCH  18  19
ENDBRANCH  17  18
ENDBRANCH  16  17
ENDBRANCH   6  16
TORSDOF 5
ENDMDL
MODEL 6
REMARK VINA RESULT:      -6.9      1.511      1.913
REMARK  Name = 
REMARK  5 active torsions:
REMARK  status: ('A' for Active; 'I' for Inactive)
REMARK    1  A    between atoms: C_2  and  C_3
REMARK    2  A    between atoms: N_13  and  C_14
REMARK    3  A    between atoms: C_14  and  C_15
REMARK    4  A    between atoms: C_15  and  C_16
REMARK    5  A    between atoms: C_16  and  N_17
REMARK                            x       y       z     vdW  Elec       q    Type
REMARK                         _______ _______ _______ _____ _____    ______ ____
ROOT
ATOM      1  O   UNL     1       5.413   2.935  19.999  0.00  0.00    +0.000 OA
ATOM      2  C   UNL     1       4.697   3.762  19.434  0.00  0.00    +0.000 C 
ATOM      3  N   UNL     1       5.203   4.904  18.817  0.00  0.00    +0.000 N 
ATOM      4  C   UNL     1       6.633   5.203  18.946  0.00  0.00    +0.000 C 
ATOM      5  C   UNL     1       7.241   5.625  17.594  0.00  0.00    +0.000 C 
ATOM      6  N   UNL     1       6.514   6.717  16.899  0.00  0.00    +0.000 NA
ATOM      7  C   UNL     1       5.104   6.300  16.751  0.00  0.00    +0.000 C 
ATOM      8  C   UNL     1       4.423   5.900  18.069  0.00  0.00    +0.000 C 
ENDROOT
BRANCH   2   9
ATOM      9  C   UNL     1       3.257   3.452  19.337  0.00  0.00    +0.000 A 
ATOM     10  C   UNL     1       2.843   2.543  18.356  0.00  0.00    +0.000 A 
ATOM     11  C   UNL     1       1.483   2.289  18.170  0.00  0.00    +0.000 A 
ATOM     12  C   UNL     1       0.534   2.941  18.960  0.00  0.00    +0.000 A 
ATOM     13  C   UNL     1       0.949   3.811  19.969  0.00  0.00    +0.000 A 
ATOM     14  C   UNL     1       2.307   4.034  20.175  0.00  0.00    +0.000 A 
ATOM     15  F   UNL     1       2.672   4.862  21.166  0.00  0.00    +0.000 F 
ENDBRANCH   2   9
BRANCH   6  16
ATOM     16  C   UNL     1       6.598   8.013  17.592  0.00  0.00    +0.000 C 
BRANCH  16  17
ATOM     17  C   UNL     1       8.035   8.485  17.792  0.00  0.00    +0.000 C 
BRANCH  17  18
ATOM     18  C   UNL     1       8.170   9.984  17.548  0.00  0.00    +0.000 C 
BRANCH  18  19
ATOM     19  N   UNL     1       9.213  10.557  18.370  0.00  0.00    +0.000 N 
ATOM     20  C   UNL     1      10.277  11.296  17.956  0.00  0.00    +0.000 A 
ATOM     21  N   UNL     1      11.012  11.613  18.993  0.00  0.00    +0.000 NA
ATOM     22  C   UNL     1      10.345  11.028  20.033  0.00  0.00    +0.000 A 
ATOM     23  N   UNL     1       9.235  10.365  19.696  0.00  0.00    +0.000 NA
ENDBRANCH  18  19
ENDBRANCH  17  18
ENDBRANCH  16  17
ENDBRANCH   6  16
TORSDOF 5
ENDMDL
MODEL 7
REMARK VINA RESULT:      -6.6      1.592      2.061
REMARK  Name = 
REMARK  5 active torsions:
REMARK  status: ('A' for Active; 'I' for Inactive)
REMARK    1  A    between atoms: C_2  and  C_3
REMARK    2  A    between atoms: N_13  and  C_14
REMARK    3  A    between atoms: C_14  and  C_15
REMARK    4  A    between atoms: C_15  and  C_16
REMARK    5  A    between atoms: C_16  and  N_17
REMARK                            x       y       z     vdW  Elec       q    Type
REMARK                         _______ _______ _______ _____ _____    ______ ____
ROOT
ATOM      1  O   UNL     1       5.479   3.174  19.955  0.00  0.00    +0.000 OA
ATOM      2  C   UNL     1       4.830   4.006  19.322  0.00  0.00    +0.000 C 
ATOM      3  N   UNL     1       5.408   5.129  18.733  0.00  0.00    +0.000 N 
ATOM      4  C   UNL     1       6.829   5.401  18.974  0.00  0.00    +0.000 C 
ATOM      5  C   UNL     1       7.554   5.790  17.670  0.00  0.00    +0.000 C 
ATOM      6  N   UNL     1       6.909   6.885  16.903  0.00  0.00    +0.000 NA
ATOM      7  C   UNL     1       5.507   6.495  16.647  0.00  0.00    +0.000 C 
ATOM      8  C   UNL     1       4.712   6.129  17.911  0.00  0.00    +0.000 C 
ENDROOT
BRANCH   2   9
ATOM      9  C   UNL     1       3.396   3.723  19.113  0.00  0.00    +0.000 A 
ATOM     10  C   UNL     1       3.032   2.951  18.003  0.00  0.00    +0.000 A 
ATOM     11  C   UNL     1       1.683   2.734  17.716  0.00  0.00    +0.000 A 
ATOM     12  C   UNL     1       0.696   3.289  18.534  0.00  0.00    +0.000 A 
ATOM     13  C   UNL     1       1.059   4.019  19.665  0.00  0.00    +0.000 A 
ATOM     14  C   UNL     1       2.405   4.202  19.968  0.00  0.00    +0.000 A 
ATOM     15  F   UNL     1       2.720   4.894  21.074  0.00  0.00    +0.000 F 
ENDBRANCH   2   9
BRANCH   6  16
ATOM     16  C   UNL     1       6.963   8.190  17.583  0.00  0.00    +0.000 C 
BRANCH  16  17
ATOM     17  C   UNL     1       8.332   8.856  17.477  0.00  0.00    +0.000 C 
BRANCH  17  18
ATOM     18  C   UNL     1       8.576   9.818  18.634  0.00  0.00    +0.000 C 
BRANCH  18  19
ATOM     19  N   UNL     1       9.197  11.042  18.176  0.00  0.00    +0.000 N 
ATOM     20  C   UNL     1       8.575  12.165  17.729  0.00  0.00    +0.000 A 
ATOM     21  N   UNL     1       9.477  13.049  17.380  0.00  0.00    +0.000 NA
ATOM     22  C   UNL     1      10.654  12.402  17.633  0.00  0.00    +0.000 A 
ATOM     23  N   UNL     1      10.530  11.164  18.120  0.00  0.00    +0.000 NA
ENDBRANCH  18  19
ENDBRANCH  17  18
ENDBRANCH  16  17
ENDBRANCH   6  16
TORSDOF 5
ENDMDL
MODEL 8
REMARK VINA RESULT:      -6.4      3.605      6.439
REMARK  Name = 
REMARK  5 active torsions:
REMARK  status: ('A' for Active; 'I' for Inactive)
REMARK    1  A    between atoms: C_2  and  C_3
REMARK    2  A    between atoms: N_13  and  C_14
REMARK    3  A    between atoms: C_14  and  C_15
REMARK    4  A    between atoms: C_15  and  C_16
REMARK    5  A    between atoms: C_16  and  N_17
REMARK                            x       y       z     vdW  Elec       q    Type
REMARK                         _______ _______ _______ _____ _____    ______ ____
ROOT
ATOM      1  O   UNL     1       2.550   6.884  19.120  0.00  0.00    +0.000 OA
ATOM      2  C   UNL     1       2.844   5.811  18.594  0.00  0.00    +0.000 C 
ATOM      3  N   UNL     1       3.844   5.690  17.631  0.00  0.00    +0.000 N 
ATOM      4  C   UNL     1       4.497   6.904  17.133  0.00  0.00    +0.000 C 
ATOM      5  C   UNL     1       6.027   6.728  17.058  0.00  0.00    +0.000 C 
ATOM      6  N   UNL     1       6.478   5.522  16.320  0.00  0.00    +0.000 NA
ATOM      7  C   UNL     1       5.828   4.345  16.934  0.00  0.00    +0.000 C 
ATOM      8  C   UNL     1       4.295   4.438  17.007  0.00  0.00    +0.000 C 
ENDROOT
BRANCH   2   9
ATOM      9  C   UNL     1       2.156   4.604  19.095  0.00  0.00    +0.000 A 
ATOM     10  C   UNL     1       1.611   3.720  18.156  0.00  0.00    +0.000 A 
ATOM     11  C   UNL     1       0.875   2.614  18.585  0.00  0.00    +0.000 A 
ATOM     12  C   UNL     1       0.679   2.390  19.949  0.00  0.00    +0.000 A 
ATOM     13  C   UNL     1       1.260   3.246  20.885  0.00  0.00    +0.000 A 
ATOM     14  C   UNL     1       2.024   4.326  20.454  0.00  0.00    +0.000 A 
ATOM     15  F   UNL     1       2.584   5.119  21.381  0.00  0.00    +0.000 F 
ENDBRANCH   2   9
BRANCH   6  16
ATOM     16  C   UNL     1       6.192   5.574  14.878  0.00  0.00    +0.000 C 
BRANCH  16  17
ATOM     17  C   UNL     1       6.617   4.306  14.144  0.00  0.00    +0.000 C 
BRANCH  17  18
ATOM     18  C   UNL     1       5.555   3.855  13.147  0.00  0.00    +0.000 C 
BRANCH  18  19
ATOM     19  N   UNL     1       6.102   2.926  12.182  0.00  0.00    +0.000 N 
ATOM     20  C   UNL     1       5.456   1.900  11.568  0.00  0.00    +0.000 A 
ATOM     21  N   UNL     1       6.294   1.271  10.781  0.00  0.00    +0.000 NA
ATOM     22  C   UNL     1       7.459   1.963  10.958  0.00  0.00    +0.000 A 
ATOM     23  N   UNL     1       7.389   2.987  11.814  0.00  0.00    +0.000 NA
ENDBRANCH  18  19
ENDBRANCH  17  18
ENDBRANCH  16  17
ENDBRANCH   6  16
TORSDOF 5
ENDMDL
MODEL 9
REMARK VINA RESULT:      -6.4      8.798     11.309
REMARK  Name = 
REMARK  5 active torsions:
REMARK  status: ('A' for Active; 'I' for Inactive)
REMARK    1  A    between atoms: C_2  and  C_3
REMARK    2  A    between atoms: N_13  and  C_14
REMARK    3  A    between atoms: C_14  and  C_15
REMARK    4  A    between atoms: C_15  and  C_16
REMARK    5  A    between atoms: C_16  and  N_17
REMARK                            x       y       z     vdW  Elec       q    Type
REMARK                         _______ _______ _______ _____ _____    ______ ____
ROOT
ATOM      1  O   UNL     1       1.009  10.944  21.417  0.00  0.00    +0.000 OA
ATOM      2  C   UNL     1       0.465  10.385  20.465  0.00  0.00    +0.000 C 
ATOM      3  N   UNL     1      -0.787  10.762  19.982  0.00  0.00    +0.000 N 
ATOM      4  C   UNL     1      -1.546  11.786  20.706  0.00  0.00    +0.000 C 
ATOM      5  C   UNL     1      -2.159  12.818  19.738  0.00  0.00    +0.000 C 
ATOM      6  N   UNL     1      -2.951  12.233  18.627  0.00  0.00    +0.000 NA
ATOM      7  C   UNL     1      -2.088  11.269  17.913  0.00  0.00    +0.000 C 
ATOM      8  C   UNL     1      -1.471  10.187  18.815  0.00  0.00    +0.000 C 
ENDROOT
BRANCH   2   9
ATOM      9  C   UNL     1       1.238   9.339  19.766  0.00  0.00    +0.000 A 
ATOM     10  C   UNL     1       1.614   9.575  18.439  0.00  0.00    +0.000 A 
ATOM     11  C   UNL     1       2.268   8.578  17.712  0.00  0.00    +0.000 A 
ATOM     12  C   UNL     1       2.543   7.345  18.306  0.00  0.00    +0.000 A 
ATOM     13  C   UNL     1       2.210   7.127  19.643  0.00  0.00    +0.000 A 
ATOM     14  C   UNL     1       1.592   8.136  20.375  0.00  0.00    +0.000 A 
ATOM     15  F   UNL     1       1.301   7.900  21.664  0.00  0.00    +0.000 F 
ENDBRANCH   2   9
BRANCH   6  16
ATOM     16  C   UNL     1      -4.194  11.582  19.071  0.00  0.00    +0.000 C 
BRANCH  16  17
ATOM     17  C   UNL     1      -5.051  11.088  17.909  0.00  0.00    +0.000 C 
BRANCH  17  18
ATOM     18  C   UNL     1      -6.535  11.309  18.176  0.00  0.00    +0.000 C 
BRANCH  18  19
ATOM     19  N   UNL     1      -7.000  10.482  19.268  0.00  0.00    +0.000 N 
ATOM     20  C   UNL     1      -7.514  10.897  20.456  0.00  0.00    +0.000 A 
ATOM     21  N   UNL     1      -7.797   9.852  21.194  0.00  0.00    +0.000 NA
ATOM     22  C   UNL     1      -7.424   8.805  20.398  0.00  0.00    +0.000 A 
ATOM     23  N   UNL     1      -6.925   9.146  19.206  0.00  0.00    +0.000 NA
ENDBRANCH  18  19
ENDBRANCH  17  18
ENDBRANCH  16  17
ENDBRANCH   6  16
TORSDOF 5
ENDMDL
