MODEL 1
REMARK VINA RESULT:      -8.0      0.000      0.000
REMARK  Name = 
REMARK  5 active torsions:
REMARK  status: ('A' for Active; 'I' for Inactive)
REMARK    1  A    between atoms: C_1  and  C_2
REMARK    2  A    between atoms: C_7  and  C_8
REMARK    3  A    between atoms: N_9  and  N_10
REMARK    4  A    between atoms: C_11  and  C_13
REMARK    5  A    between atoms: C_18  and  O_19
REMARK                            x       y       z     vdW  Elec       q    Type
REMARK                         _______ _______ _______ _____ _____    ______ ____
ROOT
ATOM      1  C   UNL     1       7.791   7.529  17.306  0.00  0.00    +0.000 C 
ATOM      2  N   UNL     1       7.851   8.492  18.168  0.00  0.00    +0.000 NA
ENDROOT
BRANCH   1   9
ATOM      3  C   UNL     1       3.814   2.906  18.742  0.00  0.00    +0.000 C 
ATOM      4  C   UNL     1       4.074   4.320  18.313  0.00  0.00    +0.000 A 
ATOM      5  C   UNL     1       3.004   5.204  18.087  0.00  0.00    +0.000 A 
ATOM      6  C   UNL     1       3.216   6.524  17.696  0.00  0.00    +0.000 A 
ATOM      7  C   UNL     1       4.512   7.017  17.518  0.00  0.00    +0.000 A 
ATOM      8  C   UNL     1       5.617   6.167  17.733  0.00  0.00    +0.000 A 
ATOM      9  C   UNL     1       7.039   6.336  17.652  0.00  0.00    +0.000 A 
ATOM     10  C   UNL     1       7.599   5.114  17.977  0.00  0.00    +0.000 A 
ATOM     11  N   UNL     1       6.594   4.232  18.254  0.00  0.00    +0.000 N 
ATOM     12  C   UNL     1       5.368   4.843  18.119  0.00  0.00    +0.000 A 
ATOM     13  H   UNL     1       6.728   3.266  18.519  0.00  0.00    +0.000 HD
ENDBRANCH   1   9
BRANCH   2  14
ATOM     14  N   UNL     1       8.560   9.602  17.813  0.00  0.00    +0.000 N 
ATOM     15  C   UNL     1       9.197  10.346  18.794  0.00  0.00    +0.000 C 
ATOM     16  O   UNL     1       9.170  10.074  19.994  0.00  0.00    +0.000 OA
ATOM     17  H   UNL     1       8.628   9.893  16.840  0.00  0.00    +0.000 HD
BRANCH  15  18
ATOM     18  C   UNL     1       9.962  11.552  18.341  0.00  0.00    +0.000 A 
ATOM     19  C   UNL     1      11.314  11.629  18.722  0.00  0.00    +0.000 A 
ATOM     20  C   UNL     1      12.109  12.714  18.349  0.00  0.00    +0.000 A 
ATOM     21  C   UNL     1      11.564  13.740  17.583  0.00  0.00    +0.000 A 
ATOM     22  C   UNL     1      10.225  13.685  17.195  0.00  0.00    +0.000 A 
ATOM     23  C   UNL     1       9.425  12.600  17.577  0.00  0.00    +0.000 A 
BRANCH  23  24
ATOM     24  O   UNL     1       8.107  12.592  17.196  0.00  0.00    +0.000 OA
ATOM     25  H   UNL     1       7.637  11.935  17.741  0.00  0.00    +0.000 HD
ENDBRANCH  23  24
ENDBRANCH  15  18
ENDBRANCH   2  14
TORSDOF 4
ENDMDL
MODEL 2
REMARK VINA RESULT:      -7.9      1.010      1.443
REMARK  Name = 
REMARK  5 active torsions:
REMARK  status: ('A' for Active; 'I' for Inactive)
REMARK    1  A    between atoms: C_1  and  C_2
REMARK    2  A    between atoms: C_7  and  C_8
REMARK    3  A    between atoms: N_9  and  N_10
REMARK    4  A    between atoms: C_11  and  C_13
REMARK    5  A    between atoms: C_18  and  O_19
REMARK                            x       y       z     vdW  Elec       q    Type
REMARK                         _______ _______ _______ _____ _____    ______ ____
ROOT
ATOM      1  C   UNL     1       7.253   7.807  17.374  0.00  0.00    +0.000 C 
ATOM      2  N   UNL     1       8.116   8.376  18.151  0.00  0.00    +0.000 NA
ENDROOT
BRANCH   1   9
ATOM      3  C   UNL     1       4.237   2.543  18.939  0.00  0.00    +0.000 C 
ATOM      4  C   UNL     1       4.220   3.977  18.497  0.00  0.00    +0.000 A 
ATOM      5  C   UNL     1       3.000   4.647  18.298  0.00  0.00    +0.000 A 
ATOM      6  C   UNL     1       2.954   5.980  17.896  0.00  0.00    +0.000 A 
ATOM      7  C   UNL     1       4.131   6.701  17.680  0.00  0.00    +0.000 A 
ATOM      8  C   UNL     1       5.379   6.071  17.867  0.00  0.00    +0.000 A 
ATOM      9  C   UNL     1       6.744   6.498  17.746  0.00  0.00    +0.000 A 
ATOM     10  C   UNL     1       7.527   5.404  18.060  0.00  0.00    +0.000 A 
ATOM     11  N   UNL     1       6.711   4.355  18.368  0.00  0.00    +0.000 N 
ATOM     12  C   UNL     1       5.389   4.728  18.265  0.00  0.00    +0.000 A 
ATOM     13  H   UNL     1       7.027   3.432  18.633  0.00  0.00    +0.000 HD
ENDBRANCH   1   9
BRANCH   2  14
ATOM     14  N   UNL     1       8.573   9.607  17.778  0.00  0.00    +0.000 N 
ATOM     15  C   UNL     1       9.257  10.386  18.697  0.00  0.00    +0.000 C 
ATOM     16  O   UNL     1       9.491  10.043  19.856  0.00  0.00    +0.000 OA
ATOM     17  H   UNL     1       8.418   9.962  16.837  0.00  0.00    +0.000 HD
BRANCH  15  18
ATOM     18  C   UNL     1       9.736  11.726  18.227  0.00  0.00    +0.000 A 
ATOM     19  C   UNL     1       8.789  12.766  18.196  0.00  0.00    +0.000 A 
ATOM     20  C   UNL     1       9.140  14.050  17.772  0.00  0.00    +0.000 A 
ATOM     21  C   UNL     1      10.447  14.315  17.377  0.00  0.00    +0.000 A 
ATOM     22  C   UNL     1      11.402  13.298  17.400  0.00  0.00    +0.000 A 
ATOM     23  C   UNL     1      11.048  12.008  17.816  0.00  0.00    +0.000 A 
BRANCH  23  24
ATOM     24  O   UNL     1      12.009  11.029  17.803  0.00  0.00    +0.000 OA
ATOM     25  H   UNL     1      12.159  10.737  18.722  0.00  0.00    +0.000 HD
ENDBRANCH  23  24
ENDBRANCH  15  18
ENDBRANCH   2  14
TORSDOF 4
ENDMDL
MODEL 3
REMARK VINA RESULT:      -7.8      6.082      7.551
REMARK  Name = 
REMARK  5 active torsions:
REMARK  status: ('A' for Active; 'I' for Inactive)
REMARK    1  A    between atoms: C_1  and  C_2
REMARK    2  A    between atoms: C_7  and  C_8
REMARK    3  A    between atoms: N_9  and  N_10
REMARK    4  A    between atoms: C_11  and  C_13
REMARK    5  A    between atoms: C_18  and  O_19
REMARK                            x       y       z     vdW  Elec       q    Type
REMARK                         _______ _______ _______ _____ _____    ______ ____
ROOT
ATOM      1  C   UNL     1       3.306   5.451  17.462  0.00  0.00    +0.000 C 
ATOM      2  N   UNL     1       4.564   5.153  17.417  0.00  0.00    +0.000 NA
ENDROOT
BRANCH   1   9
ATOM      3  C   UNL     1       0.939   8.907  22.122  0.00  0.00    +0.000 C 
ATOM      4  C   UNL     1       1.281   8.726  20.672  0.00  0.00    +0.000 A 
ATOM      5  C   UNL     1       1.028   9.754  19.747  0.00  0.00    +0.000 A 
ATOM      6  C   UNL     1       1.342   9.618  18.397  0.00  0.00    +0.000 A 
ATOM      7  C   UNL     1       1.929   8.444  17.916  0.00  0.00    +0.000 A 
ATOM      8  C   UNL     1       2.203   7.385  18.806  0.00  0.00    +0.000 A 
ATOM      9  C   UNL     1       2.787   6.083  18.663  0.00  0.00    +0.000 A 
ATOM     10  C   UNL     1       2.774   5.506  19.919  0.00  0.00    +0.000 A 
ATOM     11  N   UNL     1       2.225   6.390  20.801  0.00  0.00    +0.000 N 
ATOM     12  C   UNL     1       1.868   7.554  20.157  0.00  0.00    +0.000 A 
ATOM     13  H   UNL     1       2.096   6.219  21.789  0.00  0.00    +0.000 HD
ENDBRANCH   1   9
BRANCH   2  14
ATOM     14  N   UNL     1       5.023   4.565  16.274  0.00  0.00    +0.000 N 
ATOM     15  C   UNL     1       5.499   5.360  15.243  0.00  0.00    +0.000 C 
ATOM     16  O   UNL     1       5.540   6.590  15.281  0.00  0.00    +0.000 OA
ATOM     17  H   UNL     1       5.020   3.553  16.167  0.00  0.00    +0.000 HD
BRANCH  15  18
ATOM     18  C   UNL     1       5.992   4.656  14.016  0.00  0.00    +0.000 A 
ATOM     19  C   UNL     1       5.107   3.751  13.402  0.00  0.00    +0.000 A 
ATOM     20  C   UNL     1       5.476   3.046  12.254  0.00  0.00    +0.000 A 
ATOM     21  C   UNL     1       6.736   3.240  11.698  0.00  0.00    +0.000 A 
ATOM     22  C   UNL     1       7.630   4.132  12.292  0.00  0.00    +0.000 A 
ATOM     23  C   UNL     1       7.263   4.832  13.449  0.00  0.00    +0.000 A 
BRANCH  23  24
ATOM     24  O   UNL     1       8.178   5.683  14.017  0.00  0.00    +0.000 OA
ATOM     25  H   UNL     1       8.916   5.149  14.363  0.00  0.00    +0.000 HD
ENDBRANCH  23  24
ENDBRANCH  15  18
ENDBRANCH   2  14
TORSDOF 4
ENDMDL
MODEL 4
REMARK VINA RESULT:      -7.8      6.041      7.610
REMARK  Name = 
REMARK  5 active torsions:
REMARK  status: ('A' for Active; 'I' for Inactive)
REMARK    1  A    between atoms: C_1  and  C_2
REMARK    2  A    between atoms: C_7  and  C_8
REMARK    3  A    between atoms: N_9  and  N_10
REMARK    4  A    between atoms: C_11  and  C_13
REMARK    5  A    between atoms: C_18  and  O_19
REMARK                            x       y       z     vdW  Elec       q    Type
REMARK                         _______ _______ _______ _____ _____    ______ ____
ROOT
ATOM      1  C   UNL     1       3.382   6.833  17.308  0.00  0.00    +0.000 C 
ATOM      2  N   UNL     1       4.590   6.373  17.364  0.00  0.00    +0.000 NA
ENDROOT
BRANCH   1   9
ATOM      3  C   UNL     1       0.318   9.130  22.267  0.00  0.00    +0.000 C 
ATOM      4  C   UNL     1       0.767   9.245  20.839  0.00  0.00    +0.000 A 
ATOM      5  C   UNL     1       0.440  10.382  20.079  0.00  0.00    +0.000 A 
ATOM      6  C   UNL     1       0.850  10.519  18.755  0.00  0.00    +0.000 A 
ATOM      7  C   UNL     1       1.609   9.523  18.136  0.00  0.00    +0.000 A 
ATOM      8  C   UNL     1       1.963   8.364  18.859  0.00  0.00    +0.000 A 
ATOM      9  C   UNL     1       2.716   7.183  18.550  0.00  0.00    +0.000 A 
ATOM     10  C   UNL     1       2.701   6.399  19.689  0.00  0.00    +0.000 A 
ATOM     11  N   UNL     1       1.992   7.047  20.657  0.00  0.00    +0.000 N 
ATOM     12  C   UNL     1       1.529   8.256  20.187  0.00  0.00    +0.000 A 
ATOM     13  H   UNL     1       1.826   6.694  21.590  0.00  0.00    +0.000 HD
ENDBRANCH   1   9
BRANCH   2  14
ATOM     14  N   UNL     1       5.191   6.058  16.180  0.00  0.00    +0.000 N 
ATOM     15  C   UNL     1       5.149   4.750  15.723  0.00  0.00    +0.000 C 
ATOM     16  O   UNL     1       4.595   3.827  16.319  0.00  0.00    +0.000 OA
ATOM     17  H   UNL     1       5.670   6.767  15.629  0.00  0.00    +0.000 HD
BRANCH  15  18
ATOM     18  C   UNL     1       5.824   4.467  14.415  0.00  0.00    +0.000 A 
ATOM     19  C   UNL     1       5.128   3.656  13.501  0.00  0.00    +0.000 A 
ATOM     20  C   UNL     1       5.676   3.335  12.257  0.00  0.00    +0.000 A 
ATOM     21  C   UNL     1       6.929   3.826  11.905  0.00  0.00    +0.000 A 
ATOM     22  C   UNL     1       7.637   4.632  12.798  0.00  0.00    +0.000 A 
ATOM     23  C   UNL     1       7.092   4.946  14.049  0.00  0.00    +0.000 A 
BRANCH  23  24
ATOM     24  O   UNL     1       7.828   5.722  14.909  0.00  0.00    +0.000 OA
ATOM     25  H   UNL     1       8.542   5.172  15.279  0.00  0.00    +0.000 HD
ENDBRANCH  23  24
ENDBRANCH  15  18
ENDBRANCH   2  14
TORSDOF 4
ENDMDL
MODEL 5
REMARK VINA RESULT:      -7.7      1.451      2.070
REMARK  Name = 
REMARK  5 active torsions:
REMARK  status: ('A' for Active; 'I' for Inactive)
REMARK    1  A    between atoms: C_1  and  C_2
REMARK    2  A    between atoms: C_7  and  C_8
REMARK    3  A    between atoms: N_9  and  N_10
REMARK    4  A    between atoms: C_11  and  C_13
REMARK    5  A    between atoms: C_18  and  O_19
REMARK                            x       y       z     vdW  Elec       q    Type
REMARK                         _______ _______ _______ _____ _____    ______ ____
ROOT
ATOM      1  C   UNL     1       7.819   6.381  18.685  0.00  0.00    +0.000 C 
ATOM      2  N   UNL     1       7.845   7.560  18.152  0.00  0.00    +0.000 NA
ENDROOT
BRANCH   1   9
ATOM      3  C   UNL     1       3.121   2.536  17.136  0.00  0.00    +0.000 C 
ATOM      4  C   UNL     1       3.660   3.686  17.936  0.00  0.00    +0.000 A 
ATOM      5  C   UNL     1       2.845   4.346  18.872  0.00  0.00    +0.000 A 
ATOM      6  C   UNL     1       3.319   5.411  19.635  0.00  0.00    +0.000 A 
ATOM      7  C   UNL     1       4.636   5.857  19.494  0.00  0.00    +0.000 A 
ATOM      8  C   UNL     1       5.492   5.226  18.567  0.00  0.00    +0.000 A 
ATOM      9  C   UNL     1       6.861   5.414  18.180  0.00  0.00    +0.000 A 
ATOM     10  C   UNL     1       7.125   4.473  17.202  0.00  0.00    +0.000 A 
ATOM     11  N   UNL     1       5.998   3.733  16.991  0.00  0.00    +0.000 N 
ATOM     12  C   UNL     1       4.980   4.162  17.812  0.00  0.00    +0.000 A 
ATOM     13  H   UNL     1       5.918   2.977  16.325  0.00  0.00    +0.000 HD
ENDBRANCH   1   9
BRANCH   2  14
ATOM     14  N   UNL     1       8.759   8.445  18.644  0.00  0.00    +0.000 N 
ATOM     15  C   UNL     1       8.650   9.787  18.316  0.00  0.00    +0.000 C 
ATOM     16  O   UNL     1       7.768  10.254  17.596  0.00  0.00    +0.000 OA
ATOM     17  H   UNL     1       9.519   8.136  19.246  0.00  0.00    +0.000 HD
BRANCH  15  18
ATOM     18  C   UNL     1       9.682  10.711  18.889  0.00  0.00    +0.000 A 
ATOM     19  C   UNL     1      10.543  11.348  17.977  0.00  0.00    +0.000 A 
ATOM     20  C   UNL     1      11.538  12.226  18.415  0.00  0.00    +0.000 A 
ATOM     21  C   UNL     1      11.683  12.485  19.775  0.00  0.00    +0.000 A 
ATOM     22  C   UNL     1      10.840  11.863  20.696  0.00  0.00    +0.000 A 
ATOM     23  C   UNL     1       9.848  10.975  20.257  0.00  0.00    +0.000 A 
BRANCH  23  24
ATOM     24  O   UNL     1       9.053  10.365  21.195  0.00  0.00    +0.000 OA
ATOM     25  H   UNL     1       9.605   9.742  21.703  0.00  0.00    +0.000 HD
ENDBRANCH  23  24
ENDBRANCH  15  18
ENDBRANCH   2  14
TORSDOF 4
ENDMDL
MODEL 6
REMARK VINA RESULT:      -7.5      2.723      8.541
REMARK  Name = 
REMARK  5 active torsions:
REMARK  status: ('A' for Active; 'I' for Inactive)
REMARK    1  A    between atoms: C_1  and  C_2
REMARK    2  A    between atoms: C_7  and  C_8
REMARK    3  A    between atoms: N_9  and  N_10
REMARK    4  A    between atoms: C_11  and  C_13
REMARK    5  A    between atoms: C_18  and  O_19
REMARK                            x       y       z     vdW  Elec       q    Type
REMARK                         _______ _______ _______ _____ _____    ______ ____
ROOT
ATOM      1  C   UNL     1       8.405  10.358  17.953  0.00  0.00    +0.000 C 
ATOM      2  N   UNL     1       8.524   9.104  18.250  0.00  0.00    +0.000 NA
ENDROOT
BRANCH   1   9
ATOM      3  C   UNL     1      10.992  15.190  20.988  0.00  0.00    +0.000 C 
ATOM      4  C   UNL     1      10.067  14.651  19.936  0.00  0.00    +0.000 A 
ATOM      5  C   UNL     1       9.345  15.526  19.106  0.00  0.00    +0.000 A 
ATOM      6  C   UNL     1       8.486  15.054  18.116  0.00  0.00    +0.000 A 
ATOM      7  C   UNL     1       8.317  13.682  17.913  0.00  0.00    +0.000 A 
ATOM      8  C   UNL     1       9.021  12.765  18.720  0.00  0.00    +0.000 A 
ATOM      9  C   UNL     1       9.092  11.334  18.781  0.00  0.00    +0.000 A 
ATOM     10  C   UNL     1       9.965  11.026  19.807  0.00  0.00    +0.000 A 
ATOM     11  N   UNL     1      10.424  12.189  20.354  0.00  0.00    +0.000 N 
ATOM     12  C   UNL     1       9.872  13.274  19.711  0.00  0.00    +0.000 A 
ATOM     13  H   UNL     1      11.077  12.250  21.123  0.00  0.00    +0.000 HD
ENDBRANCH   1   9
BRANCH   2  14
ATOM     14  N   UNL     1       7.871   8.211  17.451  0.00  0.00    +0.000 N 
ATOM     15  C   UNL     1       7.646   6.924  17.912  0.00  0.00    +0.000 C 
ATOM     16  O   UNL     1       8.000   6.513  19.017  0.00  0.00    +0.000 OA
ATOM     17  H   UNL     1       7.548   8.475  16.523  0.00  0.00    +0.000 HD
BRANCH  15  18
ATOM     18  C   UNL     1       6.922   5.990  16.990  0.00  0.00    +0.000 A 
ATOM     19  C   UNL     1       5.872   6.534  16.228  0.00  0.00    +0.000 A 
ATOM     20  C   UNL     1       5.138   5.743  15.342  0.00  0.00    +0.000 A 
ATOM     21  C   UNL     1       5.446   4.393  15.201  0.00  0.00    +0.000 A 
ATOM     22  C   UNL     1       6.482   3.833  15.948  0.00  0.00    +0.000 A 
ATOM     23  C   UNL     1       7.213   4.625  16.844  0.00  0.00    +0.000 A 
BRANCH  23  24
ATOM     24  O   UNL     1       8.209   4.033  17.578  0.00  0.00    +0.000 OA
ATOM     25  H   UNL     1       8.771   3.519  16.970  0.00  0.00    +0.000 HD
ENDBRANCH  23  24
ENDBRANCH  15  18
ENDBRANCH   2  14
TORSDOF 4
ENDMDL
MODEL 7
REMARK VINA RESULT:      -7.4      2.396      8.506
REMARK  Name = 
REMARK  5 active torsions:
REMARK  status: ('A' for Active; 'I' for Inactive)
REMARK    1  A    between atoms: C_1  and  C_2
REMARK    2  A    between atoms: C_7  and  C_8
REMARK    3  A    between atoms: N_9  and  N_10
REMARK    4  A    between atoms: C_11  and  C_13
REMARK    5  A    between atoms: C_18  and  O_19
REMARK                            x       y       z     vdW  Elec       q    Type
REMARK                         _______ _______ _______ _____ _____    ______ ____
ROOT
ATOM      1  C   UNL     1       8.197  10.074  17.832  0.00  0.00    +0.000 C 
ATOM      2  N   UNL     1       8.453   8.821  18.024  0.00  0.00    +0.000 NA
ENDROOT
BRANCH   1   9
ATOM      3  C   UNL     1      11.493  14.945  19.992  0.00  0.00    +0.000 C 
ATOM      4  C   UNL     1      10.319  14.393  19.237  0.00  0.00    +0.000 A 
ATOM      5  C   UNL     1       9.395  15.257  18.626  0.00  0.00    +0.000 A 
ATOM      6  C   UNL     1       8.301  14.773  17.913  0.00  0.00    +0.000 A 
ATOM      7  C   UNL     1       8.088  13.398  17.779  0.00  0.00    +0.000 A 
ATOM      8  C   UNL     1       8.990  12.491  18.375  0.00  0.00    +0.000 A 
ATOM      9  C   UNL     1       9.079  11.061  18.431  0.00  0.00    +0.000 A 
ATOM     10  C   UNL     1      10.201  10.766  19.184  0.00  0.00    +0.000 A 
ATOM     11  N   UNL     1      10.787  11.936  19.571  0.00  0.00    +0.000 N 
ATOM     12  C   UNL     1      10.076  13.013  19.090  0.00  0.00    +0.000 A 
ATOM     13  H   UNL     1      11.624  12.007  20.133  0.00  0.00    +0.000 HD
ENDBRANCH   1   9
BRANCH   2  14
ATOM     14  N   UNL     1       7.609   7.918  17.445  0.00  0.00    +0.000 N 
ATOM     15  C   UNL     1       7.456   6.665  18.019  0.00  0.00    +0.000 C 
ATOM     16  O   UNL     1       8.040   6.296  19.038  0.00  0.00    +0.000 OA
ATOM     17  H   UNL     1       7.092   8.149  16.600  0.00  0.00    +0.000 HD
BRANCH  15  18
ATOM     18  C   UNL     1       6.514   5.719  17.339  0.00  0.00    +0.000 A 
ATOM     19  C   UNL     1       5.423   5.253  18.096  0.00  0.00    +0.000 A 
ATOM     20  C   UNL     1       4.491   4.368  17.551  0.00  0.00    +0.000 A 
ATOM     21  C   UNL     1       4.633   3.937  16.235  0.00  0.00    +0.000 A 
ATOM     22  C   UNL     1       5.708   4.385  15.467  0.00  0.00    +0.000 A 
ATOM     23  C   UNL     1       6.648   5.267  16.018  0.00  0.00    +0.000 A 
BRANCH  23  24
ATOM     24  O   UNL     1       7.704   5.668  15.239  0.00  0.00    +0.000 OA
ATOM     25  H   UNL     1       8.092   6.467  15.640  0.00  0.00    +0.000 HD
ENDBRANCH  23  24
ENDBRANCH  15  18
ENDBRANCH   2  14
TORSDOF 4
ENDMDL
MODEL 8
REMARK VINA RESULT:      -7.3      5.854      8.798
REMARK  Name = 
REMARK  5 active torsions:
REMARK  status: ('A' for Active; 'I' for Inactive)
REMARK    1  A    between atoms: C_1  and  C_2
REMARK    2  A    between atoms: C_7  and  C_8
REMARK    3  A    between atoms: N_9  and  N_10
REMARK    4  A    between atoms: C_11  and  C_13
REMARK    5  A    between atoms: C_18  and  O_19
REMARK                            x       y       z     vdW  Elec       q    Type
REMARK                         _______ _______ _______ _____ _____    ______ ____
ROOT
ATOM      1  C   UNL     1       1.390   9.341  17.786  0.00  0.00    +0.000 C 
ATOM      2  N   UNL     1       2.165   8.584  18.493  0.00  0.00    +0.000 NA
ENDROOT
BRANCH   1   9
ATOM      3  C   UNL     1      -3.434  12.624  20.069  0.00  0.00    +0.000 C 
ATOM      4  C   UNL     1      -2.859  11.678  19.054  0.00  0.00    +0.000 A 
ATOM      5  C   UNL     1      -3.656  11.190  18.004  0.00  0.00    +0.000 A 
ATOM      6  C   UNL     1      -3.148  10.318  17.044  0.00  0.00    +0.000 A 
ATOM      7  C   UNL     1      -1.815   9.900  17.094  0.00  0.00    +0.000 A 
ATOM      8  C   UNL     1      -0.977  10.363  18.130  0.00  0.00    +0.000 A 
ATOM      9  C   UNL     1       0.400  10.152  18.473  0.00  0.00    +0.000 A 
ATOM     10  C   UNL     1       0.636  10.885  19.621  0.00  0.00    +0.000 A 
ATOM     11  N   UNL     1      -0.515  11.526  19.975  0.00  0.00    +0.000 N 
ATOM     12  C   UNL     1      -1.522  11.235  19.082  0.00  0.00    +0.000 A 
ATOM     13  H   UNL     1      -0.619  12.130  20.779  0.00  0.00    +0.000 HD
ENDBRANCH   1   9
BRANCH   2  14
ATOM     14  N   UNL     1       3.088   7.837  17.820  0.00  0.00    +0.000 N 
ATOM     15  C   UNL     1       3.325   6.530  18.215  0.00  0.00    +0.000 C 
ATOM     16  O   UNL     1       2.751   5.977  19.153  0.00  0.00    +0.000 OA
ATOM     17  H   UNL     1       3.605   8.225  17.033  0.00  0.00    +0.000 HD
BRANCH  15  18
ATOM     18  C   UNL     1       4.348   5.761  17.435  0.00  0.00    +0.000 A 
ATOM     19  C   UNL     1       5.552   6.423  17.137  0.00  0.00    +0.000 A 
ATOM     20  C   UNL     1       6.565   5.789  16.414  0.00  0.00    +0.000 A 
ATOM     21  C   UNL     1       6.390   4.478  15.982  0.00  0.00    +0.000 A 
ATOM     22  C   UNL     1       5.202   3.803  16.266  0.00  0.00    +0.000 A 
ATOM     23  C   UNL     1       4.183   4.442  16.983  0.00  0.00    +0.000 A 
BRANCH  23  24
ATOM     24  O   UNL     1       3.020   3.754  17.224  0.00  0.00    +0.000 OA
ATOM     25  H   UNL     1       2.458   4.300  17.803  0.00  0.00    +0.000 HD
ENDBRANCH  23  24
ENDBRANCH  15  18
ENDBRANCH   2  14
TORSDOF 4
ENDMDL
MODEL 9
REMARK VINA RESULT:      -7.3      6.034      9.087
REMARK  Name = 
REMARK  5 active torsions:
REMARK  status: ('A' for Active; 'I' for Inactive)
REMARK    1  A    between atoms: C_1  and  C_2
REMARK    2  A    between atoms: C_7  and  C_8
REMARK    3  A    between atoms: N_9  and  N_10
REMARK    4  A    between atoms: C_11  and  C_13
REMARK    5  A    between atoms: C_18  and  O_19
REMARK                            x       y       z     vdW  Elec       q    Type
REMARK                         _______ _______ _______ _____ _____    ______ ____
ROOT
ATOM      1  C   UNL     1       0.680   9.360  18.332  0.00  0.00    +0.000 C 
ATOM      2  N   UNL     1       1.954   9.261  18.537  0.00  0.00    +0.000 NA
ENDROOT
BRANCH   1   9
ATOM      3  C   UNL     1      -2.421  13.068  22.319  0.00  0.00    +0.000 C 
ATOM      4  C   UNL     1      -1.585  11.851  22.046  0.00  0.00    +0.000 A 
ATOM      5  C   UNL     1      -1.237  10.978  23.090  0.00  0.00    +0.000 A 
ATOM      6  C   UNL     1      -0.469   9.837  22.865  0.00  0.00    +0.000 A 
ATOM      7  C   UNL     1      -0.021   9.522  21.580  0.00  0.00    +0.000 A 
ATOM      8  C   UNL     1      -0.346  10.368  20.500  0.00  0.00    +0.000 A 
ATOM      9  C   UNL     1      -0.068  10.347  19.092  0.00  0.00    +0.000 A 
ATOM     10  C   UNL     1      -0.662  11.475  18.557  0.00  0.00    +0.000 A 
ATOM     11  N   UNL     1      -1.282  12.161  19.561  0.00  0.00    +0.000 N 
ATOM     12  C   UNL     1      -1.114  11.511  20.763  0.00  0.00    +0.000 A 
ATOM     13  H   UNL     1      -1.793  13.025  19.443  0.00  0.00    +0.000 HD
ENDBRANCH   1   9
BRANCH   2  14
ATOM     14  N   UNL     1       2.630   8.329  17.805  0.00  0.00    +0.000 N 
ATOM     15  C   UNL     1       2.981   7.125  18.394  0.00  0.00    +0.000 C 
ATOM     16  O   UNL     1       2.721   6.824  19.559  0.00  0.00    +0.000 OA
ATOM     17  H   UNL     1       2.882   8.504  16.835  0.00  0.00    +0.000 HD
BRANCH  15  18
ATOM     18  C   UNL     1       3.719   6.140  17.539  0.00  0.00    +0.000 A 
ATOM     19  C   UNL     1       4.665   6.663  16.638  0.00  0.00    +0.000 A 
ATOM     20  C   UNL     1       5.403   5.826  15.798  0.00  0.00    +0.000 A 
ATOM     21  C   UNL     1       5.209   4.449  15.851  0.00  0.00    +0.000 A 
ATOM     22  C   UNL     1       4.275   3.909  16.736  0.00  0.00    +0.000 A 
ATOM     23  C   UNL     1       3.529   4.750  17.572  0.00  0.00    +0.000 A 
BRANCH  23  24
ATOM     24  O   UNL     1       2.604   4.185  18.414  0.00  0.00    +0.000 OA
ATOM     25  H   UNL     1       1.885   4.828  18.552  0.00  0.00    +0.000 HD
ENDBRANCH  23  24
ENDBRANCH  15  18
ENDBRANCH   2  14
TORSDOF 4
ENDMDL
