MODEL 1
REMARK VINA RESULT:      -6.8      0.000      0.000
REMARK  Name = 
REMARK  9 active torsions:
REMARK  status: ('A' for Active; 'I' for Inactive)
REMARK    1  A    between atoms: C_1  and  C_2
REMARK    2  A    between atoms: C_4  and  C_5
REMARK    3  A    between atoms: N_7  and  S_8
REMARK    4  A    between atoms: S_8  and  N_11
REMARK    5  A    between atoms: N_11  and  C_12
REMARK    6  A    between atoms: C_12  and  C_13
REMARK    7  A    between atoms: C_13  and  O_14
REMARK    8  A    between atoms: O_14  and  C_15
REMARK    9  A    between atoms: C_15  and  C_16
REMARK                            x       y       z     vdW  Elec       q    Type
REMARK                         _______ _______ _______ _____ _____    ______ ____
ROOT
ATOM      1  S   UNL     1       7.015   5.424  16.939  0.00  0.00    +0.000 S 
ATOM      2  O   UNL     1       7.951   4.327  17.022  0.00  0.00    +0.000 OA
ATOM      3  O   UNL     1       6.727   6.078  15.690  0.00  0.00    +0.000 OA
ENDROOT
BRANCH   1  10
ATOM      4  C   UNL     1       3.690   2.468  18.224  0.00  0.00    +0.000 C 
ATOM      5  C   UNL     1       3.465   3.562  17.176  0.00  0.00    +0.000 C 
ATOM      6  C   UNL     1       2.620   4.717  17.714  0.00  0.00    +0.000 C 
ATOM      7  C   UNL     1       3.390   5.537  18.755  0.00  0.00    +0.000 C 
ATOM      8  C   UNL     1       2.534   6.704  19.245  0.00  0.00    +0.000 C 
ATOM      9  C   UNL     1       4.715   6.043  18.166  0.00  0.00    +0.000 C 
ATOM     10  N   UNL     1       5.536   4.913  17.622  0.00  0.00    +0.000 NA
ATOM     11  C   UNL     1       4.782   4.096  16.617  0.00  0.00    +0.000 C 
ENDBRANCH   1  10
BRANCH   1  12
ATOM     12  N   UNL     1       7.500   6.537  18.093  0.00  0.00    +0.000 NA
ATOM     13  H   UNL     1       8.355   6.168  18.508  0.00  0.00    +0.000 HD
BRANCH  12  14
ATOM     14  C   UNL     1       7.744   7.906  17.551  0.00  0.00    +0.000 C 
BRANCH  14  15
ATOM     15  C   UNL     1       8.505   8.821  18.518  0.00  0.00    +0.000 C 
BRANCH  15  16
ATOM     16  O   UNL     1       8.497  10.192  18.116  0.00  0.00    +0.000 OA
BRANCH  16  17
ATOM     17  C   UNL     1       9.611  10.926  18.610  0.00  0.00    +0.000 C 
BRANCH  17  18
ATOM     18  C   UNL     1       9.848  12.142  17.713  0.00  0.00    +0.000 C 
ATOM     19  C   UNL     1      11.318  12.471  17.543  0.00  0.00    +0.000 C 
ATOM     20  C   UNL     1      11.628  13.240  18.810  0.00  0.00    +0.000 C 
ATOM     21  O   UNL     1      10.408  13.879  19.221  0.00  0.00    +0.000 OA
ATOM     22  C   UNL     1       9.337  13.397  18.393  0.00  0.00    +0.000 C 
ENDBRANCH  17  18
ENDBRANCH  16  17
ENDBRANCH  15  16
ENDBRANCH  14  15
ENDBRANCH  12  14
ENDBRANCH   1  12
TORSDOF 7
ENDMDL
MODEL 2
REMARK VINA RESULT:      -6.7      0.834      1.060
REMARK  Name = 
REMARK  9 active torsions:
REMARK  status: ('A' for Active; 'I' for Inactive)
REMARK    1  A    between atoms: C_1  and  C_2
REMARK    2  A    between atoms: C_4  and  C_5
REMARK    3  A    between atoms: N_7  and  S_8
REMARK    4  A    between atoms: S_8  and  N_11
REMARK    5  A    between atoms: N_11  and  C_12
REMARK    6  A    between atoms: C_12  and  C_13
REMARK    7  A    between atoms: C_13  and  O_14
REMARK    8  A    between atoms: O_14  and  C_15
REMARK    9  A    between atoms: C_15  and  C_16
REMARK                            x       y       z     vdW  Elec       q    Type
REMARK                         _______ _______ _______ _____ _____    ______ ____
ROOT
ATOM      1  S   UNL     1       7.251   5.213  17.530  0.00  0.00    +0.000 S 
ATOM      2  O   UNL     1       8.192   4.289  18.122  0.00  0.00    +0.000 OA
ATOM      3  O   UNL     1       7.265   5.506  16.121  0.00  0.00    +0.000 OA
ENDROOT
BRANCH   1  10
ATOM      4  C   UNL     1       3.607   2.372  17.837  0.00  0.00    +0.000 C 
ATOM      5  C   UNL     1       3.573   3.679  17.038  0.00  0.00    +0.000 C 
ATOM      6  C   UNL     1       2.760   4.768  17.739  0.00  0.00    +0.000 C 
ATOM      7  C   UNL     1       3.471   5.275  18.998  0.00  0.00    +0.000 C 
ATOM      8  C   UNL     1       2.653   6.387  19.654  0.00  0.00    +0.000 C 
ATOM      9  C   UNL     1       4.884   5.769  18.654  0.00  0.00    +0.000 C 
ATOM     10  N   UNL     1       5.676   4.709  17.951  0.00  0.00    +0.000 NA
ATOM     11  C   UNL     1       4.977   4.195  16.729  0.00  0.00    +0.000 C 
ENDBRANCH   1  10
BRANCH   1  12
ATOM     12  N   UNL     1       7.356   6.622  18.429  0.00  0.00    +0.000 NA
ATOM     13  H   UNL     1       7.996   6.427  19.199  0.00  0.00    +0.000 HD
BRANCH  12  14
ATOM     14  C   UNL     1       7.836   7.803  17.652  0.00  0.00    +0.000 C 
BRANCH  14  15
ATOM     15  C   UNL     1       8.462   8.897  18.526  0.00  0.00    +0.000 C 
BRANCH  15  16
ATOM     16  O   UNL     1       8.887  10.038  17.777  0.00  0.00    +0.000 OA
BRANCH  16  17
ATOM     17  C   UNL     1       9.184  11.164  18.594  0.00  0.00    +0.000 C 
BRANCH  17  18
ATOM     18  C   UNL     1      10.691  11.213  18.851  0.00  0.00    +0.000 C 
ATOM     19  C   UNL     1      11.043  11.870  20.171  0.00  0.00    +0.000 C 
ATOM     20  C   UNL     1      10.968  13.343  19.831  0.00  0.00    +0.000 C 
ATOM     21  O   UNL     1      11.280  13.468  18.434  0.00  0.00    +0.000 OA
ATOM     22  C   UNL     1      11.356  12.151  17.863  0.00  0.00    +0.000 C 
ENDBRANCH  17  18
ENDBRANCH  16  17
ENDBRANCH  15  16
ENDBRANCH  14  15
ENDBRANCH  12  14
ENDBRANCH   1  12
TORSDOF 7
ENDMDL
MODEL 3
REMARK VINA RESULT:      -6.6      1.122      2.272
REMARK  Name = 
REMARK  9 active torsions:
REMARK  status: ('A' for Active; 'I' for Inactive)
REMARK    1  A    between atoms: C_1  and  C_2
REMARK    2  A    between atoms: C_4  and  C_5
REMARK    3  A    between atoms: N_7  and  S_8
REMARK    4  A    between atoms: S_8  and  N_11
REMARK    5  A    between atoms: N_11  and  C_12
REMARK    6  A    between atoms: C_12  and  C_13
REMARK    7  A    between atoms: C_13  and  O_14
REMARK    8  A    between atoms: O_14  and  C_15
REMARK    9  A    between atoms: C_15  and  C_16
REMARK                            x       y       z     vdW  Elec       q    Type
REMARK                         _______ _______ _______ _____ _____    ______ ____
ROOT
ATOM      1  S   UNL     1       7.161   5.454  17.333  0.00  0.00    +0.000 S 
ATOM      2  O   UNL     1       7.830   4.309  17.907  0.00  0.00    +0.000 OA
ATOM      3  O   UNL     1       7.310   5.798  15.944  0.00  0.00    +0.000 OA
ENDROOT
BRANCH   1  10
ATOM      4  C   UNL     1       2.971   6.757  18.814  0.00  0.00    +0.000 C 
ATOM      5  C   UNL     1       3.760   5.616  19.463  0.00  0.00    +0.000 C 
ATOM      6  C   UNL     1       3.189   4.241  19.113  0.00  0.00    +0.000 C 
ATOM      7  C   UNL     1       3.430   3.893  17.640  0.00  0.00    +0.000 C 
ATOM      8  C   UNL     1       2.882   2.500  17.331  0.00  0.00    +0.000 C 
ATOM      9  C   UNL     1       4.928   3.975  17.308  0.00  0.00    +0.000 C 
ATOM     10  N   UNL     1       5.493   5.316  17.668  0.00  0.00    +0.000 NA
ATOM     11  C   UNL     1       5.243   5.671  19.102  0.00  0.00    +0.000 C 
ENDBRANCH   1  10
BRANCH   1  12
ATOM     12  N   UNL     1       7.547   6.757  18.311  0.00  0.00    +0.000 NA
ATOM     13  H   UNL     1       8.399   6.500  18.811  0.00  0.00    +0.000 HD
BRANCH  12  14
ATOM     14  C   UNL     1       7.757   8.034  17.567  0.00  0.00    +0.000 C 
BRANCH  14  15
ATOM     15  C   UNL     1       8.489   9.106  18.384  0.00  0.00    +0.000 C 
BRANCH  15  16
ATOM     16  O   UNL     1       8.818  10.266  17.618  0.00  0.00    +0.000 OA
BRANCH  16  17
ATOM     17  C   UNL     1       9.131  11.397  18.423  0.00  0.00    +0.000 C 
BRANCH  17  18
ATOM     18  C   UNL     1      10.128  10.982  19.504  0.00  0.00    +0.000 C 
ATOM     19  C   UNL     1       9.812  11.580  20.860  0.00  0.00    +0.000 C 
ATOM     20  C   UNL     1      10.390  12.975  20.744  0.00  0.00    +0.000 C 
ATOM     21  O   UNL     1      11.483  12.899  19.815  0.00  0.00    +0.000 OA
ATOM     22  C   UNL     1      11.487  11.591  19.219  0.00  0.00    +0.000 C 
ENDBRANCH  17  18
ENDBRANCH  16  17
ENDBRANCH  15  16
ENDBRANCH  14  15
ENDBRANCH  12  14
ENDBRANCH   1  12
TORSDOF 7
ENDMDL
MODEL 4
REMARK VINA RESULT:      -6.5      1.081      2.130
REMARK  Name = 
REMARK  9 active torsions:
REMARK  status: ('A' for Active; 'I' for Inactive)
REMARK    1  A    between atoms: C_1  and  C_2
REMARK    2  A    between atoms: C_4  and  C_5
REMARK    3  A    between atoms: N_7  and  S_8
REMARK    4  A    between atoms: S_8  and  N_11
REMARK    5  A    between atoms: N_11  and  C_12
REMARK    6  A    between atoms: C_12  and  C_13
REMARK    7  A    between atoms: C_13  and  O_14
REMARK    8  A    between atoms: O_14  and  C_15
REMARK    9  A    between atoms: C_15  and  C_16
REMARK                            x       y       z     vdW  Elec       q    Type
REMARK                         _______ _______ _______ _____ _____    ______ ____
ROOT
ATOM      1  S   UNL     1       6.130   5.690  16.496  0.00  0.00    +0.000 S 
ATOM      2  O   UNL     1       6.790   4.449  16.162  0.00  0.00    +0.000 OA
ATOM      3  O   UNL     1       5.780   6.654  15.485  0.00  0.00    +0.000 OA
ENDROOT
BRANCH   1  10
ATOM      4  C   UNL     1       2.673   6.346  19.506  0.00  0.00    +0.000 C 
ATOM      5  C   UNL     1       3.746   5.271  19.700  0.00  0.00    +0.000 C 
ATOM      6  C   UNL     1       3.214   3.864  19.424  0.00  0.00    +0.000 C 
ATOM      7  C   UNL     1       2.930   3.654  17.932  0.00  0.00    +0.000 C 
ATOM      8  C   UNL     1       2.437   2.229  17.685  0.00  0.00    +0.000 C 
ATOM      9  C   UNL     1       4.188   3.948  17.101  0.00  0.00    +0.000 C 
ATOM     10  N   UNL     1       4.720   5.320  17.384  0.00  0.00    +0.000 NA
ATOM     11  C   UNL     1       4.982   5.537  18.843  0.00  0.00    +0.000 C 
ENDBRANCH   1  10
BRANCH   1  12
ATOM     12  N   UNL     1       7.054   6.401  17.697  0.00  0.00    +0.000 NA
ATOM     13  H   UNL     1       7.838   5.772  17.869  0.00  0.00    +0.000 HD
BRANCH  12  14
ATOM     14  C   UNL     1       7.557   7.763  17.352  0.00  0.00    +0.000 C 
BRANCH  14  15
ATOM     15  C   UNL     1       8.442   8.384  18.439  0.00  0.00    +0.000 C 
BRANCH  15  16
ATOM     16  O   UNL     1       8.639   9.789  18.267  0.00  0.00    +0.000 OA
BRANCH  16  17
ATOM     17  C   UNL     1       9.212  10.417  19.409  0.00  0.00    +0.000 C 
BRANCH  17  18
ATOM     18  C   UNL     1      10.520  11.097  19.003  0.00  0.00    +0.000 C 
ATOM     19  C   UNL     1      11.034  12.060  20.054  0.00  0.00    +0.000 C 
ATOM     20  C   UNL     1      10.209  13.301  19.790  0.00  0.00    +0.000 C 
ATOM     21  O   UNL     1       9.871  13.291  18.393  0.00  0.00    +0.000 OA
ATOM     22  C   UNL     1      10.278  12.031  17.833  0.00  0.00    +0.000 C 
ENDBRANCH  17  18
ENDBRANCH  16  17
ENDBRANCH  15  16
ENDBRANCH  14  15
ENDBRANCH  12  14
ENDBRANCH   1  12
TORSDOF 7
ENDMDL
MODEL 5
REMARK VINA RESULT:      -6.5      4.570      7.193
REMARK  Name = 
REMARK  9 active torsions:
REMARK  status: ('A' for Active; 'I' for Inactive)
REMARK    1  A    between atoms: C_1  and  C_2
REMARK    2  A    between atoms: C_4  and  C_5
REMARK    3  A    between atoms: N_7  and  S_8
REMARK    4  A    between atoms: S_8  and  N_11
REMARK    5  A    between atoms: N_11  and  C_12
REMARK    6  A    between atoms: C_12  and  C_13
REMARK    7  A    between atoms: C_13  and  O_14
REMARK    8  A    between atoms: O_14  and  C_15
REMARK    9  A    between atoms: C_15  and  C_16
REMARK                            x       y       z     vdW  Elec       q    Type
REMARK                         _______ _______ _______ _____ _____    ______ ____
ROOT
ATOM      1  S   UNL     1       3.982   4.003  19.018  0.00  0.00    +0.000 S 
ATOM      2  O   UNL     1       2.700   3.607  18.483  0.00  0.00    +0.000 OA
ATOM      3  O   UNL     1       4.848   3.061  19.678  0.00  0.00    +0.000 OA
ENDROOT
BRANCH   1  10
ATOM      4  C   UNL     1       5.409   4.845  14.694  0.00  0.00    +0.000 C 
ATOM      5  C   UNL     1       6.340   4.299  15.781  0.00  0.00    +0.000 C 
ATOM      6  C   UNL     1       7.321   5.355  16.291  0.00  0.00    +0.000 C 
ATOM      7  C   UNL     1       6.605   6.436  17.108  0.00  0.00    +0.000 C 
ATOM      8  C   UNL     1       7.616   7.454  17.635  0.00  0.00    +0.000 C 
ATOM      9  C   UNL     1       5.819   5.801  18.265  0.00  0.00    +0.000 C 
ATOM     10  N   UNL     1       4.870   4.753  17.768  0.00  0.00    +0.000 NA
ATOM     11  C   UNL     1       5.561   3.703  16.952  0.00  0.00    +0.000 C 
ENDBRANCH   1  10
BRANCH   1  12
ATOM     12  N   UNL     1       3.688   5.326  20.001  0.00  0.00    +0.000 NA
ATOM     13  H   UNL     1       4.458   5.977  19.849  0.00  0.00    +0.000 HD
BRANCH  12  14
ATOM     14  C   UNL     1       2.386   6.004  19.734  0.00  0.00    +0.000 C 
BRANCH  14  15
ATOM     15  C   UNL     1       2.536   7.458  19.271  0.00  0.00    +0.000 C 
BRANCH  15  16
ATOM     16  O   UNL     1       1.450   8.292  19.681  0.00  0.00    +0.000 OA
BRANCH  16  17
ATOM     17  C   UNL     1       1.295   8.352  21.095  0.00  0.00    +0.000 C 
BRANCH  17  18
ATOM     18  C   UNL     1      -0.121   8.824  21.424  0.00  0.00    +0.000 C 
ATOM     19  C   UNL     1      -0.521  10.070  20.658  0.00  0.00    +0.000 C 
ATOM     20  C   UNL     1       0.126  11.172  21.470  0.00  0.00    +0.000 C 
ATOM     21  O   UNL     1       0.202  10.704  22.826  0.00  0.00    +0.000 OA
ATOM     22  C   UNL     1      -0.184   9.320  22.855  0.00  0.00    +0.000 C 
ENDBRANCH  17  18
ENDBRANCH  16  17
ENDBRANCH  15  16
ENDBRANCH  14  15
ENDBRANCH  12  14
ENDBRANCH   1  12
TORSDOF 7
ENDMDL
MODEL 6
REMARK VINA RESULT:      -6.5      1.004      1.129
REMARK  Name = 
REMARK  9 active torsions:
REMARK  status: ('A' for Active; 'I' for Inactive)
REMARK    1  A    between atoms: C_1  and  C_2
REMARK    2  A    between atoms: C_4  and  C_5
REMARK    3  A    between atoms: N_7  and  S_8
REMARK    4  A    between atoms: S_8  and  N_11
REMARK    5  A    between atoms: N_11  and  C_12
REMARK    6  A    between atoms: C_12  and  C_13
REMARK    7  A    between atoms: C_13  and  O_14
REMARK    8  A    between atoms: O_14  and  C_15
REMARK    9  A    between atoms: C_15  and  C_16
REMARK                            x       y       z     vdW  Elec       q    Type
REMARK                         _______ _______ _______ _____ _____    ______ ____
ROOT
ATOM      1  S   UNL     1       7.214   5.286  18.265  0.00  0.00    +0.000 S 
ATOM      2  O   UNL     1       7.902   5.118  19.524  0.00  0.00    +0.000 OA
ATOM      3  O   UNL     1       7.761   4.780  17.033  0.00  0.00    +0.000 OA
ENDROOT
BRANCH   1  10
ATOM      4  C   UNL     1       3.743   2.247  17.865  0.00  0.00    +0.000 C 
ATOM      5  C   UNL     1       3.726   3.617  17.180  0.00  0.00    +0.000 C 
ATOM      6  C   UNL     1       2.768   4.595  17.861  0.00  0.00    +0.000 C 
ATOM      7  C   UNL     1       3.286   5.021  19.238  0.00  0.00    +0.000 C 
ATOM      8  C   UNL     1       2.326   6.026  19.875  0.00  0.00    +0.000 C 
ATOM      9  C   UNL     1       4.698   5.616  19.120  0.00  0.00    +0.000 C 
ATOM     10  N   UNL     1       5.634   4.665  18.437  0.00  0.00    +0.000 NA
ATOM     11  C   UNL     1       5.123   4.230  17.097  0.00  0.00    +0.000 C 
ENDBRANCH   1  10
BRANCH   1  12
ATOM     12  N   UNL     1       6.874   6.920  18.135  0.00  0.00    +0.000 NA
ATOM     13  H   UNL     1       6.912   7.299  19.081  0.00  0.00    +0.000 HD
BRANCH  12  14
ATOM     14  C   UNL     1       7.813   7.667  17.247  0.00  0.00    +0.000 C 
BRANCH  14  15
ATOM     15  C   UNL     1       8.123   9.086  17.738  0.00  0.00    +0.000 C 
BRANCH  15  16
ATOM     16  O   UNL     1       8.568   9.123  19.096  0.00  0.00    +0.000 OA
BRANCH  16  17
ATOM     17  C   UNL     1       9.520  10.152  19.344  0.00  0.00    +0.000 C 
BRANCH  17  18
ATOM     18  C   UNL     1       9.372  11.239  18.279  0.00  0.00    +0.000 C 
ATOM     19  C   UNL     1      10.684  11.586  17.603  0.00  0.00    +0.000 C 
ATOM     20  C   UNL     1      11.323  12.530  18.599  0.00  0.00    +0.000 C 
ATOM     21  O   UNL     1      10.254  13.183  19.303  0.00  0.00    +0.000 OA
ATOM     22  C   UNL     1       9.013  12.560  18.931  0.00  0.00    +0.000 C 
ENDBRANCH  17  18
ENDBRANCH  16  17
ENDBRANCH  15  16
ENDBRANCH  14  15
ENDBRANCH  12  14
ENDBRANCH   1  12
TORSDOF 7
ENDMDL
MODEL 7
REMARK VINA RESULT:      -6.4      1.514      2.370
REMARK  Name = 
REMARK  9 active torsions:
REMARK  status: ('A' for Active; 'I' for Inactive)
REMARK    1  A    between atoms: C_1  and  C_2
REMARK    2  A    between atoms: C_4  and  C_5
REMARK    3  A    between atoms: N_7  and  S_8
REMARK    4  A    between atoms: S_8  and  N_11
REMARK    5  A    between atoms: N_11  and  C_12
REMARK    6  A    between atoms: C_12  and  C_13
REMARK    7  A    between atoms: C_13  and  O_14
REMARK    8  A    between atoms: O_14  and  C_15
REMARK    9  A    between atoms: C_15  and  C_16
REMARK                            x       y       z     vdW  Elec       q    Type
REMARK                         _______ _______ _______ _____ _____    ______ ____
ROOT
ATOM      1  S   UNL     1       5.297   5.123  16.627  0.00  0.00    +0.000 S 
ATOM      2  O   UNL     1       5.703   3.741  16.512  0.00  0.00    +0.000 OA
ATOM      3  O   UNL     1       5.039   5.932  15.464  0.00  0.00    +0.000 OA
ENDROOT
BRANCH   1  10
ATOM      4  C   UNL     1       2.335   6.898  19.712  0.00  0.00    +0.000 C 
ATOM      5  C   UNL     1       3.158   5.636  19.987  0.00  0.00    +0.000 C 
ATOM      6  C   UNL     1       2.311   4.365  19.932  0.00  0.00    +0.000 C 
ATOM      7  C   UNL     1       1.863   4.052  18.500  0.00  0.00    +0.000 C 
ATOM      8  C   UNL     1       1.051   2.757  18.473  0.00  0.00    +0.000 C 
ATOM      9  C   UNL     1       3.079   3.952  17.567  0.00  0.00    +0.000 C 
ATOM     10  N   UNL     1       3.921   5.190  17.634  0.00  0.00    +0.000 NA
ATOM     11  C   UNL     1       4.346   5.512  19.034  0.00  0.00    +0.000 C 
ENDBRANCH   1  10
BRANCH   1  12
ATOM     12  N   UNL     1       6.424   5.859  17.622  0.00  0.00    +0.000 NA
ATOM     13  H   UNL     1       7.295   5.342  17.504  0.00  0.00    +0.000 HD
BRANCH  12  14
ATOM     14  C   UNL     1       6.644   7.305  17.326  0.00  0.00    +0.000 C 
BRANCH  14  15
ATOM     15  C   UNL     1       7.984   7.840  17.846  0.00  0.00    +0.000 C 
BRANCH  15  16
ATOM     16  O   UNL     1       8.031   9.267  17.909  0.00  0.00    +0.000 OA
BRANCH  16  17
ATOM     17  C   UNL     1       9.006   9.754  18.824  0.00  0.00    +0.000 C 
BRANCH  17  18
ATOM     18  C   UNL     1       9.223  11.247  18.578  0.00  0.00    +0.000 C 
ATOM     19  C   UNL     1      10.563  11.550  17.937  0.00  0.00    +0.000 C 
ATOM     20  C   UNL     1      11.504  11.523  19.123  0.00  0.00    +0.000 C 
ATOM     21  O   UNL     1      10.736  11.904  20.276  0.00  0.00    +0.000 OA
ATOM     22  C   UNL     1       9.352  11.978  19.899  0.00  0.00    +0.000 C 
ENDBRANCH  17  18
ENDBRANCH  16  17
ENDBRANCH  15  16
ENDBRANCH  14  15
ENDBRANCH  12  14
ENDBRANCH   1  12
TORSDOF 7
ENDMDL
MODEL 8
REMARK VINA RESULT:      -6.4      1.047      1.082
REMARK  Name = 
REMARK  9 active torsions:
REMARK  status: ('A' for Active; 'I' for Inactive)
REMARK    1  A    between atoms: C_1  and  C_2
REMARK    2  A    between atoms: C_4  and  C_5
REMARK    3  A    between atoms: N_7  and  S_8
REMARK    4  A    between atoms: S_8  and  N_11
REMARK    5  A    between atoms: N_11  and  C_12
REMARK    6  A    between atoms: C_12  and  C_13
REMARK    7  A    between atoms: C_13  and  O_14
REMARK    8  A    between atoms: O_14  and  C_15
REMARK    9  A    between atoms: C_15  and  C_16
REMARK                            x       y       z     vdW  Elec       q    Type
REMARK                         _______ _______ _______ _____ _____    ______ ____
ROOT
ATOM      1  S   UNL     1       6.812   5.044  17.489  0.00  0.00    +0.000 S 
ATOM      2  O   UNL     1       7.838   4.084  17.826  0.00  0.00    +0.000 OA
ATOM      3  O   UNL     1       6.656   5.542  16.147  0.00  0.00    +0.000 OA
ENDROOT
BRANCH   1  10
ATOM      4  C   UNL     1       3.377   1.966  17.893  0.00  0.00    +0.000 C 
ATOM      5  C   UNL     1       3.200   3.315  17.190  0.00  0.00    +0.000 C 
ATOM      6  C   UNL     1       2.388   4.304  18.027  0.00  0.00    +0.000 C 
ATOM      7  C   UNL     1       3.172   4.775  19.256  0.00  0.00    +0.000 C 
ATOM      8  C   UNL     1       2.349   5.790  20.050  0.00  0.00    +0.000 C 
ATOM      9  C   UNL     1       4.520   5.378  18.834  0.00  0.00    +0.000 C 
ATOM     10  N   UNL     1       5.310   4.416  17.999  0.00  0.00    +0.000 NA
ATOM     11  C   UNL     1       4.541   3.937  16.805  0.00  0.00    +0.000 C 
ENDBRANCH   1  10
BRANCH   1  12
ATOM     12  N   UNL     1       6.983   6.309  18.573  0.00  0.00    +0.000 NA
ATOM     13  H   UNL     1       7.104   5.885  19.493  0.00  0.00    +0.000 HD
BRANCH  12  14
ATOM     14  C   UNL     1       8.130   7.215  18.273  0.00  0.00    +0.000 C 
BRANCH  14  15
ATOM     15  C   UNL     1       7.702   8.601  17.777  0.00  0.00    +0.000 C 
BRANCH  15  16
ATOM     16  O   UNL     1       8.792   9.519  17.669  0.00  0.00    +0.000 OA
BRANCH  16  17
ATOM     17  C   UNL     1       8.996  10.286  18.850  0.00  0.00    +0.000 C 
BRANCH  17  18
ATOM     18  C   UNL     1       9.807  11.535  18.503  0.00  0.00    +0.000 C 
ATOM     19  C   UNL     1      11.190  11.532  19.124  0.00  0.00    +0.000 C 
ATOM     20  C   UNL     1      10.914  12.001  20.536  0.00  0.00    +0.000 C 
ATOM     21  O   UNL     1       9.747  12.837  20.480  0.00  0.00    +0.000 OA
ATOM     22  C   UNL     1       9.189  12.754  19.158  0.00  0.00    +0.000 C 
ENDBRANCH  17  18
ENDBRANCH  16  17
ENDBRANCH  15  16
ENDBRANCH  14  15
ENDBRANCH  12  14
ENDBRANCH   1  12
TORSDOF 7
ENDMDL
MODEL 9
REMARK VINA RESULT:      -6.3      4.902      6.162
REMARK  Name = 
REMARK  9 active torsions:
REMARK  status: ('A' for Active; 'I' for Inactive)
REMARK    1  A    between atoms: C_1  and  C_2
REMARK    2  A    between atoms: C_4  and  C_5
REMARK    3  A    between atoms: N_7  and  S_8
REMARK    4  A    between atoms: S_8  and  N_11
REMARK    5  A    between atoms: N_11  and  C_12
REMARK    6  A    between atoms: C_12  and  C_13
REMARK    7  A    between atoms: C_13  and  O_14
REMARK    8  A    between atoms: O_14  and  C_15
REMARK    9  A    between atoms: C_15  and  C_16
REMARK                            x       y       z     vdW  Elec       q    Type
REMARK                         _______ _______ _______ _____ _____    ______ ____
ROOT
ATOM      1  S   UNL     1       2.869   6.431  18.985  0.00  0.00    +0.000 S 
ATOM      2  O   UNL     1       2.417   6.762  17.653  0.00  0.00    +0.000 OA
ATOM      3  O   UNL     1       2.302   7.055  20.151  0.00  0.00    +0.000 OA
ENDROOT
BRANCH   1  10
ATOM      4  C   UNL     1       3.300   1.955  17.876  0.00  0.00    +0.000 C 
ATOM      5  C   UNL     1       1.941   2.630  18.080  0.00  0.00    +0.000 C 
ATOM      6  C   UNL     1       1.281   2.221  19.397  0.00  0.00    +0.000 C 
ATOM      7  C   UNL     1       2.023   2.809  20.602  0.00  0.00    +0.000 C 
ATOM      8  C   UNL     1       1.318   2.414  21.899  0.00  0.00    +0.000 C 
ATOM      9  C   UNL     1       2.121   4.337  20.478  0.00  0.00    +0.000 C 
ATOM     10  N   UNL     1       2.751   4.739  19.180  0.00  0.00    +0.000 NA
ATOM     11  C   UNL     1       2.041   4.152  17.998  0.00  0.00    +0.000 C 
ENDBRANCH   1  10
BRANCH   1  12
ATOM     12  N   UNL     1       4.534   6.608  18.969  0.00  0.00    +0.000 NA
ATOM     13  H   UNL     1       4.748   7.380  19.600  0.00  0.00    +0.000 HD
BRANCH  12  14
ATOM     14  C   UNL     1       5.279   5.384  19.388  0.00  0.00    +0.000 C 
BRANCH  14  15
ATOM     15  C   UNL     1       6.799   5.506  19.222  0.00  0.00    +0.000 C 
BRANCH  15  16
ATOM     16  O   UNL     1       7.201   5.693  17.864  0.00  0.00    +0.000 OA
BRANCH  16  17
ATOM     17  C   UNL     1       7.180   4.491  17.104  0.00  0.00    +0.000 C 
BRANCH  17  18
ATOM     18  C   UNL     1       5.885   4.434  16.292  0.00  0.00    +0.000 C 
ATOM     19  C   UNL     1       6.008   3.585  15.043  0.00  0.00    +0.000 C 
ATOM     20  C   UNL     1       6.675   4.533  14.070  0.00  0.00    +0.000 C 
ATOM     21  O   UNL     1       6.288   5.864  14.449  0.00  0.00    +0.000 OA
ATOM     22  C   UNL     1       5.583   5.796  15.699  0.00  0.00    +0.000 C 
ENDBRANCH  17  18
ENDBRANCH  16  17
ENDBRANCH  15  16
ENDBRANCH  14  15
ENDBRANCH  12  14
ENDBRANCH   1  12
TORSDOF 7
ENDMDL
