MODEL 1
REMARK VINA RESULT:      -8.0      0.000      0.000
REMARK  Name = 
REMARK  7 active torsions:
REMARK  status: ('A' for Active; 'I' for Inactive)
REMARK    1  A    between atoms: C_1  and  C_2
REMARK    2  A    between atoms: C_2  and  C_18
REMARK    3  A    between atoms: C_3  and  S_4
REMARK    4  A    between atoms: S_4  and  N_7
REMARK    5  A    between atoms: N_7  and  C_8
REMARK    6  A    between atoms: C_13  and  S_14
REMARK    7  A    between atoms: S_14  and  N_15
REMARK                            x       y       z     vdW  Elec       q    Type
REMARK                         _______ _______ _______ _____ _____    ______ ____
ROOT
ATOM      1  N   UNL     1       5.561   3.515  17.650  0.00  0.00    +0.000 N 
ATOM      2  H   UNL     1       5.201   3.435  16.684  0.00  0.00    +0.000 HD
ENDROOT
BRANCH   1   3
ATOM      3  C   UNL     1       6.397   4.683  17.824  0.00  0.00    +0.000 A 
ATOM      4  C   UNL     1       7.003   4.858  19.074  0.00  0.00    +0.000 A 
ATOM      5  C   UNL     1       7.785   5.987  19.337  0.00  0.00    +0.000 A 
ATOM      6  C   UNL     1       7.976   6.953  18.353  0.00  0.00    +0.000 A 
ATOM      7  C   UNL     1       7.358   6.807  17.111  0.00  0.00    +0.000 A 
ATOM      8  C   UNL     1       6.548   5.690  16.860  0.00  0.00    +0.000 A 
BRANCH   8   9
ATOM      9  S   UNL     1       5.756   5.598  15.287  0.00  0.00    +0.000 S 
ATOM     10  O   UNL     1       5.020   4.359  15.199  0.00  0.00    +0.000 OA
ATOM     11  O   UNL     1       5.139   6.874  15.007  0.00  0.00    +0.000 OA
BRANCH   9  12
ATOM     12  N   UNL     1       7.068   5.439  14.258  0.00  0.00    +0.000 NA
ATOM     13  H   UNL     1       7.920   5.217  14.768  0.00  0.00    +0.000 HD
ATOM     14  H   UNL     1       6.865   4.827  13.464  0.00  0.00    +0.000 HD
ENDBRANCH   9  12
ENDBRANCH   8   9
ENDBRANCH   1   3
BRANCH   1  15
ATOM     15  S   UNL     1       4.181   3.442  18.661  0.00  0.00    +0.000 S 
ATOM     16  O   UNL     1       4.706   3.272  20.000  0.00  0.00    +0.000 OA
ATOM     17  O   UNL     1       3.283   2.449  18.108  0.00  0.00    +0.000 OA
BRANCH  15  20
ATOM     18  C   UNL     1       1.889   4.679  20.571  0.00  0.00    +0.000 C 
ATOM     19  C   UNL     1       2.543   5.442  19.452  0.00  0.00    +0.000 C 
ATOM     20  C   UNL     1       3.466   5.013  18.568  0.00  0.00    +0.000 C 
BRANCH  19  21
ATOM     21  C   UNL     1       2.164   6.865  19.384  0.00  0.00    +0.000 A 
ATOM     22  C   UNL     1       1.592   7.518  20.481  0.00  0.00    +0.000 A 
ATOM     23  C   UNL     1       1.209   8.859  20.376  0.00  0.00    +0.000 A 
ATOM     24  C   UNL     1       1.399   9.546  19.176  0.00  0.00    +0.000 A 
ATOM     25 CL   UNL     1       0.905  11.189  19.040  0.00  0.00    +0.000 Cl
ATOM     26  C   UNL     1       1.979   8.906  18.081  0.00  0.00    +0.000 A 
ATOM     27  C   UNL     1       2.361   7.568  18.187  0.00  0.00    +0.000 A 
ENDBRANCH  19  21
ENDBRANCH  15  20
ENDBRANCH   1  15
TORSDOF 6
ENDMDL
MODEL 2
REMARK VINA RESULT:      -7.5      3.355      4.787
REMARK  Name = 
REMARK  7 active torsions:
REMARK  status: ('A' for Active; 'I' for Inactive)
REMARK    1  A    between atoms: C_1  and  C_2
REMARK    2  A    between atoms: C_2  and  C_18
REMARK    3  A    between atoms: C_3  and  S_4
REMARK    4  A    between atoms: S_4  and  N_7
REMARK    5  A    between atoms: N_7  and  C_8
REMARK    6  A    between atoms: C_13  and  S_14
REMARK    7  A    between atoms: S_14  and  N_15
REMARK                            x       y       z     vdW  Elec       q    Type
REMARK                         _______ _______ _______ _____ _____    ______ ____
ROOT
ATOM      1  N   UNL     1       3.785   5.578  19.368  0.00  0.00    +0.000 N 
ATOM      2  H   UNL     1       4.241   6.128  20.116  0.00  0.00    +0.000 HD
ENDROOT
BRANCH   1   3
ATOM      3  C   UNL     1       3.012   4.475  19.898  0.00  0.00    +0.000 A 
ATOM      4  C   UNL     1       2.461   4.633  21.176  0.00  0.00    +0.000 A 
ATOM      5  C   UNL     1       1.742   3.594  21.777  0.00  0.00    +0.000 A 
ATOM      6  C   UNL     1       1.562   2.387  21.108  0.00  0.00    +0.000 A 
ATOM      7  C   UNL     1       2.126   2.205  19.846  0.00  0.00    +0.000 A 
ATOM      8  C   UNL     1       2.874   3.236  19.258  0.00  0.00    +0.000 A 
BRANCH   8   9
ATOM      9  S   UNL     1       3.603   2.914  17.685  0.00  0.00    +0.000 S 
ATOM     10  O   UNL     1       2.572   2.929  16.673  0.00  0.00    +0.000 OA
ATOM     11  O   UNL     1       4.804   3.707  17.563  0.00  0.00    +0.000 OA
BRANCH   9  12
ATOM     12  N   UNL     1       4.073   1.315  17.851  0.00  0.00    +0.000 NA
ATOM     13  H   UNL     1       3.796   0.934  18.754  0.00  0.00    +0.000 HD
ATOM     14  H   UNL     1       3.810   0.748  17.042  0.00  0.00    +0.000 HD
ENDBRANCH   9  12
ENDBRANCH   8   9
ENDBRANCH   1   3
BRANCH   1  15
ATOM     15  S   UNL     1       2.905   6.711  18.436  0.00  0.00    +0.000 S 
ATOM     16  O   UNL     1       1.861   5.940  17.795  0.00  0.00    +0.000 OA
ATOM     17  O   UNL     1       3.854   7.449  17.629  0.00  0.00    +0.000 OA
BRANCH  15  20
ATOM     18  C   UNL     1       1.258   9.427  17.847  0.00  0.00    +0.000 C 
ATOM     19  C   UNL     1       1.451   8.851  19.222  0.00  0.00    +0.000 C 
ATOM     20  C   UNL     1       2.155   7.761  19.587  0.00  0.00    +0.000 C 
BRANCH  19  21
ATOM     21  C   UNL     1       0.696   9.544  20.282  0.00  0.00    +0.000 A 
ATOM     22  C   UNL     1       0.314   8.883  21.455  0.00  0.00    +0.000 A 
ATOM     23  C   UNL     1      -0.434   9.556  22.426  0.00  0.00    +0.000 A 
ATOM     24  C   UNL     1      -0.799  10.887  22.226  0.00  0.00    +0.000 A 
ATOM     25 CL   UNL     1      -1.740  11.706  23.411  0.00  0.00    +0.000 Cl
ATOM     26  C   UNL     1      -0.413  11.558  21.066  0.00  0.00    +0.000 A 
ATOM     27  C   UNL     1       0.333  10.886  20.096  0.00  0.00    +0.000 A 
ENDBRANCH  19  21
ENDBRANCH  15  20
ENDBRANCH   1  15
TORSDOF 6
ENDMDL
MODEL 3
REMARK VINA RESULT:      -7.4      2.055      2.572
REMARK  Name = 
REMARK  7 active torsions:
REMARK  status: ('A' for Active; 'I' for Inactive)
REMARK    1  A    between atoms: C_1  and  C_2
REMARK    2  A    between atoms: C_2  and  C_18
REMARK    3  A    between atoms: C_3  and  S_4
REMARK    4  A    between atoms: S_4  and  N_7
REMARK    5  A    between atoms: N_7  and  C_8
REMARK    6  A    between atoms: C_13  and  S_14
REMARK    7  A    between atoms: S_14  and  N_15
REMARK                            x       y       z     vdW  Elec       q    Type
REMARK                         _______ _______ _______ _____ _____    ______ ____
ROOT
ATOM      1  N   UNL     1       5.447   3.216  18.407  0.00  0.00    +0.000 N 
ATOM      2  H   UNL     1       5.590   2.226  18.145  0.00  0.00    +0.000 HD
ENDROOT
BRANCH   1   3
ATOM      3  C   UNL     1       5.601   4.105  17.276  0.00  0.00    +0.000 A 
ATOM      4  C   UNL     1       4.841   3.829  16.133  0.00  0.00    +0.000 A 
ATOM      5  C   UNL     1       4.971   4.614  14.982  0.00  0.00    +0.000 A 
ATOM      6  C   UNL     1       5.858   5.686  14.960  0.00  0.00    +0.000 A 
ATOM      7  C   UNL     1       6.641   5.958  16.081  0.00  0.00    +0.000 A 
ATOM      8  C   UNL     1       6.533   5.152  17.224  0.00  0.00    +0.000 A 
BRANCH   8   9
ATOM      9  S   UNL     1       7.593   5.523  18.583  0.00  0.00    +0.000 S 
ATOM     10  O   UNL     1       8.542   4.447  18.752  0.00  0.00    +0.000 OA
ATOM     11  O   UNL     1       8.012   6.901  18.478  0.00  0.00    +0.000 OA
BRANCH   9  12
ATOM     12  N   UNL     1       6.533   5.419  19.876  0.00  0.00    +0.000 NA
ATOM     13  H   UNL     1       7.027   5.337  20.762  0.00  0.00    +0.000 HD
ATOM     14  H   UNL     1       5.814   6.145  19.846  0.00  0.00    +0.000 HD
ENDBRANCH   9  12
ENDBRANCH   8   9
ENDBRANCH   1   3
BRANCH   1  15
ATOM     15  S   UNL     1       3.922   3.269  19.181  0.00  0.00    +0.000 S 
ATOM     16  O   UNL     1       4.211   3.121  20.592  0.00  0.00    +0.000 OA
ATOM     17  O   UNL     1       3.058   2.313  18.520  0.00  0.00    +0.000 OA
BRANCH  15  20
ATOM     18  C   UNL     1       1.393   4.696  20.596  0.00  0.00    +0.000 C 
ATOM     19  C   UNL     1       2.294   5.386  19.610  0.00  0.00    +0.000 C 
ATOM     20  C   UNL     1       3.340   4.877  18.927  0.00  0.00    +0.000 C 
BRANCH  19  21
ATOM     21  C   UNL     1       2.028   6.826  19.448  0.00  0.00    +0.000 A 
ATOM     22  C   UNL     1       1.499   7.591  20.493  0.00  0.00    +0.000 A 
ATOM     23  C   UNL     1       1.222   8.948  20.298  0.00  0.00    +0.000 A 
ATOM     24  C   UNL     1       1.474   9.539  19.059  0.00  0.00    +0.000 A 
ATOM     25 CL   UNL     1       1.110  11.203  18.813  0.00  0.00    +0.000 Cl
ATOM     26  C   UNL     1       2.011   8.788  18.015  0.00  0.00    +0.000 A 
ATOM     27  C   UNL     1       2.287   7.434  18.211  0.00  0.00    +0.000 A 
ENDBRANCH  19  21
ENDBRANCH  15  20
ENDBRANCH   1  15
TORSDOF 6
ENDMDL
MODEL 4
REMARK VINA RESULT:      -7.4      3.353      4.886
REMARK  Name = 
REMARK  7 active torsions:
REMARK  status: ('A' for Active; 'I' for Inactive)
REMARK    1  A    between atoms: C_1  and  C_2
REMARK    2  A    between atoms: C_2  and  C_18
REMARK    3  A    between atoms: C_3  and  S_4
REMARK    4  A    between atoms: S_4  and  N_7
REMARK    5  A    between atoms: N_7  and  C_8
REMARK    6  A    between atoms: C_13  and  S_14
REMARK    7  A    between atoms: S_14  and  N_15
REMARK                            x       y       z     vdW  Elec       q    Type
REMARK                         _______ _______ _______ _____ _____    ______ ____
ROOT
ATOM      1  N   UNL     1       3.811   5.474  19.400  0.00  0.00    +0.000 N 
ATOM      2  H   UNL     1       4.272   6.035  20.135  0.00  0.00    +0.000 HD
ENDROOT
BRANCH   1   3
ATOM      3  C   UNL     1       3.007   4.406  19.953  0.00  0.00    +0.000 A 
ATOM      4  C   UNL     1       2.414   4.629  21.202  0.00  0.00    +0.000 A 
ATOM      5  C   UNL     1       1.663   3.627  21.826  0.00  0.00    +0.000 A 
ATOM      6  C   UNL     1       1.491   2.392  21.208  0.00  0.00    +0.000 A 
ATOM      7  C   UNL     1       2.097   2.144  19.976  0.00  0.00    +0.000 A 
ATOM      8  C   UNL     1       2.876   3.139  19.367  0.00  0.00    +0.000 A 
BRANCH   8   9
ATOM      9  S   UNL     1       3.655   2.736  17.837  0.00  0.00    +0.000 S 
ATOM     10  O   UNL     1       4.774   3.625  17.627  0.00  0.00    +0.000 OA
ATOM     11  O   UNL     1       3.794   1.301  17.754  0.00  0.00    +0.000 OA
BRANCH   9  12
ATOM     12  N   UNL     1       2.481   3.191  16.731  0.00  0.00    +0.000 NA
ATOM     13  H   UNL     1       1.618   2.668  16.864  0.00  0.00    +0.000 HD
ATOM     14  H   UNL     1       2.371   4.206  16.681  0.00  0.00    +0.000 HD
ENDBRANCH   9  12
ENDBRANCH   8   9
ENDBRANCH   1   3
BRANCH   1  15
ATOM     15  S   UNL     1       2.965   6.601  18.428  0.00  0.00    +0.000 S 
ATOM     16  O   UNL     1       1.949   5.824  17.750  0.00  0.00    +0.000 OA
ATOM     17  O   UNL     1       3.944   7.336  17.653  0.00  0.00    +0.000 OA
BRANCH  15  20
ATOM     18  C   UNL     1       1.433   9.368  17.772  0.00  0.00    +0.000 C 
ATOM     19  C   UNL     1       1.520   8.770  19.148  0.00  0.00    +0.000 C 
ATOM     20  C   UNL     1       2.170   7.656  19.542  0.00  0.00    +0.000 C 
BRANCH  19  21
ATOM     21  C   UNL     1       0.716   9.469  20.166  0.00  0.00    +0.000 A 
ATOM     22  C   UNL     1       0.162  10.730  19.917  0.00  0.00    +0.000 A 
ATOM     23  C   UNL     1      -0.566  11.386  20.915  0.00  0.00    +0.000 A 
ATOM     24  C   UNL     1      -0.741  10.781  22.160  0.00  0.00    +0.000 A 
ATOM     25 CL   UNL     1      -1.616  11.599  23.395  0.00  0.00    +0.000 Cl
ATOM     26  C   UNL     1      -0.203   9.520  22.414  0.00  0.00    +0.000 A 
ATOM     27  C   UNL     1       0.523   8.866  21.418  0.00  0.00    +0.000 A 
ENDBRANCH  19  21
ENDBRANCH  15  20
ENDBRANCH   1  15
TORSDOF 6
ENDMDL
MODEL 5
REMARK VINA RESULT:      -7.4      0.994      1.196
REMARK  Name = 
REMARK  7 active torsions:
REMARK  status: ('A' for Active; 'I' for Inactive)
REMARK    1  A    between atoms: C_1  and  C_2
REMARK    2  A    between atoms: C_2  and  C_18
REMARK    3  A    between atoms: C_3  and  S_4
REMARK    4  A    between atoms: S_4  and  N_7
REMARK    5  A    between atoms: N_7  and  C_8
REMARK    6  A    between atoms: C_13  and  S_14
REMARK    7  A    between atoms: S_14  and  N_15
REMARK                            x       y       z     vdW  Elec       q    Type
REMARK                         _______ _______ _______ _____ _____    ______ ____
ROOT
ATOM      1  N   UNL     1       4.950   3.384  17.221  0.00  0.00    +0.000 N 
ATOM      2  H   UNL     1       4.643   3.555  16.249  0.00  0.00    +0.000 HD
ENDROOT
BRANCH   1   3
ATOM      3  C   UNL     1       5.929   4.355  17.662  0.00  0.00    +0.000 A 
ATOM      4  C   UNL     1       6.022   4.594  19.038  0.00  0.00    +0.000 A 
ATOM      5  C   UNL     1       6.909   5.553  19.539  0.00  0.00    +0.000 A 
ATOM      6  C   UNL     1       7.716   6.282  18.671  0.00  0.00    +0.000 A 
ATOM      7  C   UNL     1       7.617   6.075  17.295  0.00  0.00    +0.000 A 
ATOM      8  C   UNL     1       6.704   5.136  16.793  0.00  0.00    +0.000 A 
BRANCH   8   9
ATOM      9  S   UNL     1       6.595   4.966  15.041  0.00  0.00    +0.000 S 
ATOM     10  O   UNL     1       7.763   5.561  14.434  0.00  0.00    +0.000 OA
ATOM     11  O   UNL     1       6.178   3.618  14.734  0.00  0.00    +0.000 OA
BRANCH   9  12
ATOM     12  N   UNL     1       5.312   5.981  14.683  0.00  0.00    +0.000 NA
ATOM     13  H   UNL     1       4.905   5.767  13.775  0.00  0.00    +0.000 HD
ATOM     14  H   UNL     1       4.643   6.046  15.454  0.00  0.00    +0.000 HD
ENDBRANCH   9  12
ENDBRANCH   8   9
ENDBRANCH   1   3
BRANCH   1  15
ATOM     15  S   UNL     1       3.513   3.317  18.150  0.00  0.00    +0.000 S 
ATOM     16  O   UNL     1       3.950   3.002  19.494  0.00  0.00    +0.000 OA
ATOM     17  O   UNL     1       2.590   2.433  17.468  0.00  0.00    +0.000 OA
BRANCH  15  20
ATOM     18  C   UNL     1       2.244   4.932  20.643  0.00  0.00    +0.000 C 
ATOM     19  C   UNL     1       2.431   5.525  19.274  0.00  0.00    +0.000 C 
ATOM     20  C   UNL     1       2.901   4.933  18.157  0.00  0.00    +0.000 C 
BRANCH  19  21
ATOM     21  C   UNL     1       2.129   6.965  19.190  0.00  0.00    +0.000 A 
ATOM     22  C   UNL     1       1.579   7.658  20.274  0.00  0.00    +0.000 A 
ATOM     23  C   UNL     1       1.268   9.016  20.152  0.00  0.00    +0.000 A 
ATOM     24  C   UNL     1       1.508   9.681  18.949  0.00  0.00    +0.000 A 
ATOM     25 CL   UNL     1       1.104  11.346  18.794  0.00  0.00    +0.000 Cl
ATOM     26  C   UNL     1       2.067   9.002  17.867  0.00  0.00    +0.000 A 
ATOM     27  C   UNL     1       2.376   7.646  17.989  0.00  0.00    +0.000 A 
ENDBRANCH  19  21
ENDBRANCH  15  20
ENDBRANCH   1  15
TORSDOF 6
ENDMDL
MODEL 6
REMARK VINA RESULT:      -7.4      2.121      2.680
REMARK  Name = 
REMARK  7 active torsions:
REMARK  status: ('A' for Active; 'I' for Inactive)
REMARK    1  A    between atoms: C_1  and  C_2
REMARK    2  A    between atoms: C_2  and  C_18
REMARK    3  A    between atoms: C_3  and  S_4
REMARK    4  A    between atoms: S_4  and  N_7
REMARK    5  A    between atoms: N_7  and  C_8
REMARK    6  A    between atoms: C_13  and  S_14
REMARK    7  A    between atoms: S_14  and  N_15
REMARK                            x       y       z     vdW  Elec       q    Type
REMARK                         _______ _______ _______ _____ _____    ______ ____
ROOT
ATOM      1  N   UNL     1       5.490   3.191  18.541  0.00  0.00    +0.000 N 
ATOM      2  H   UNL     1       5.667   2.219  18.237  0.00  0.00    +0.000 HD
ENDROOT
BRANCH   1   3
ATOM      3  C   UNL     1       5.556   4.126  17.439  0.00  0.00    +0.000 A 
ATOM      4  C   UNL     1       4.812   3.823  16.293  0.00  0.00    +0.000 A 
ATOM      5  C   UNL     1       4.863   4.652  15.168  0.00  0.00    +0.000 A 
ATOM      6  C   UNL     1       5.655   5.797  15.175  0.00  0.00    +0.000 A 
ATOM      7  C   UNL     1       6.422   6.099  16.299  0.00  0.00    +0.000 A 
ATOM      8  C   UNL     1       6.395   5.250  17.415  0.00  0.00    +0.000 A 
BRANCH   8   9
ATOM      9  S   UNL     1       7.433   5.667  18.778  0.00  0.00    +0.000 S 
ATOM     10  O   UNL     1       8.089   6.925  18.507  0.00  0.00    +0.000 OA
ATOM     11  O   UNL     1       6.702   5.435  20.002  0.00  0.00    +0.000 OA
BRANCH   9  12
ATOM     12  N   UNL     1       8.619   4.488  18.672  0.00  0.00    +0.000 NA
ATOM     13  H   UNL     1       9.388   4.782  18.074  0.00  0.00    +0.000 HD
ATOM     14  H   UNL     1       8.894   4.132  19.590  0.00  0.00    +0.000 HD
ENDBRANCH   9  12
ENDBRANCH   8   9
ENDBRANCH   1   3
BRANCH   1  15
ATOM     15  S   UNL     1       3.997   3.145  19.377  0.00  0.00    +0.000 S 
ATOM     16  O   UNL     1       4.317   2.622  20.689  0.00  0.00    +0.000 OA
ATOM     17  O   UNL     1       3.043   2.450  18.538  0.00  0.00    +0.000 OA
BRANCH  15  20
ATOM     18  C   UNL     1       1.690   4.741  17.775  0.00  0.00    +0.000 C 
ATOM     19  C   UNL     1       2.519   5.352  18.871  0.00  0.00    +0.000 C 
ATOM     20  C   UNL     1       3.533   4.799  19.567  0.00  0.00    +0.000 C 
BRANCH  19  21
ATOM     21  C   UNL     1       2.094   6.706  19.271  0.00  0.00    +0.000 A 
ATOM     22  C   UNL     1       1.658   6.977  20.572  0.00  0.00    +0.000 A 
ATOM     23  C   UNL     1       1.225   8.263  20.912  0.00  0.00    +0.000 A 
ATOM     24  C   UNL     1       1.231   9.276  19.953  0.00  0.00    +0.000 A 
ATOM     25 CL   UNL     1       0.677  10.852  20.366  0.00  0.00    +0.000 Cl
ATOM     26  C   UNL     1       1.676   9.018  18.657  0.00  0.00    +0.000 A 
ATOM     27  C   UNL     1       2.106   7.735  18.318  0.00  0.00    +0.000 A 
ENDBRANCH  19  21
ENDBRANCH  15  20
ENDBRANCH   1  15
TORSDOF 6
ENDMDL
MODEL 7
REMARK VINA RESULT:      -7.4      3.251      5.277
REMARK  Name = 
REMARK  7 active torsions:
REMARK  status: ('A' for Active; 'I' for Inactive)
REMARK    1  A    between atoms: C_1  and  C_2
REMARK    2  A    between atoms: C_2  and  C_18
REMARK    3  A    between atoms: C_3  and  S_4
REMARK    4  A    between atoms: S_4  and  N_7
REMARK    5  A    between atoms: N_7  and  C_8
REMARK    6  A    between atoms: C_13  and  S_14
REMARK    7  A    between atoms: S_14  and  N_15
REMARK                            x       y       z     vdW  Elec       q    Type
REMARK                         _______ _______ _______ _____ _____    ______ ____
ROOT
ATOM      1  N   UNL     1       3.722   5.723  19.531  0.00  0.00    +0.000 N 
ATOM      2  H   UNL     1       3.294   5.816  20.467  0.00  0.00    +0.000 HD
ENDROOT
BRANCH   1   3
ATOM      3  C   UNL     1       3.704   4.356  19.058  0.00  0.00    +0.000 A 
ATOM      4  C   UNL     1       4.379   4.080  17.863  0.00  0.00    +0.000 A 
ATOM      5  C   UNL     1       4.366   2.793  17.315  0.00  0.00    +0.000 A 
ATOM      6  C   UNL     1       3.683   1.764  17.957  0.00  0.00    +0.000 A 
ATOM      7  C   UNL     1       2.984   2.028  19.134  0.00  0.00    +0.000 A 
ATOM      8  C   UNL     1       2.971   3.326  19.665  0.00  0.00    +0.000 A 
BRANCH   8   9
ATOM      9  S   UNL     1       2.022   3.596  21.127  0.00  0.00    +0.000 S 
ATOM     10  O   UNL     1       2.556   2.783  22.195  0.00  0.00    +0.000 OA
ATOM     11  O   UNL     1       1.808   5.016  21.282  0.00  0.00    +0.000 OA
BRANCH   9  12
ATOM     12  N   UNL     1       0.552   2.911  20.707  0.00  0.00    +0.000 NA
ATOM     13  H   UNL     1      -0.032   3.564  20.189  0.00  0.00    +0.000 HD
ATOM     14  H   UNL     1       0.664   1.992  20.273  0.00  0.00    +0.000 HD
ENDBRANCH   9  12
ENDBRANCH   8   9
ENDBRANCH   1   3
BRANCH   1  15
ATOM     15  S   UNL     1       2.904   6.853  18.539  0.00  0.00    +0.000 S 
ATOM     16  O   UNL     1       1.904   6.079  17.833  0.00  0.00    +0.000 OA
ATOM     17  O   UNL     1       3.904   7.589  17.792  0.00  0.00    +0.000 OA
BRANCH  15  20
ATOM     18  C   UNL     1       1.225   9.519  17.823  0.00  0.00    +0.000 C 
ATOM     19  C   UNL     1       1.370   8.974  19.217  0.00  0.00    +0.000 C 
ATOM     20  C   UNL     1       2.081   7.907  19.635  0.00  0.00    +0.000 C 
BRANCH  19  21
ATOM     21  C   UNL     1       0.553   9.669  20.229  0.00  0.00    +0.000 A 
ATOM     22  C   UNL     1      -0.087  10.880  19.941  0.00  0.00    +0.000 A 
ATOM     23  C   UNL     1      -0.825  11.535  20.932  0.00  0.00    +0.000 A 
ATOM     24  C   UNL     1      -0.924  10.980  22.208  0.00  0.00    +0.000 A 
ATOM     25 CL   UNL     1      -1.812  11.799  23.433  0.00  0.00    +0.000 Cl
ATOM     26  C   UNL     1      -0.300   9.768  22.501  0.00  0.00    +0.000 A 
ATOM     27  C   UNL     1       0.437   9.115  21.512  0.00  0.00    +0.000 A 
ENDBRANCH  19  21
ENDBRANCH  15  20
ENDBRANCH   1  15
TORSDOF 6
ENDMDL
MODEL 8
REMARK VINA RESULT:      -7.4      0.707      1.237
REMARK  Name = 
REMARK  7 active torsions:
REMARK  status: ('A' for Active; 'I' for Inactive)
REMARK    1  A    between atoms: C_1  and  C_2
REMARK    2  A    between atoms: C_2  and  C_18
REMARK    3  A    between atoms: C_3  and  S_4
REMARK    4  A    between atoms: S_4  and  N_7
REMARK    5  A    between atoms: N_7  and  C_8
REMARK    6  A    between atoms: C_13  and  S_14
REMARK    7  A    between atoms: S_14  and  N_15
REMARK                            x       y       z     vdW  Elec       q    Type
REMARK                         _______ _______ _______ _____ _____    ______ ____
ROOT
ATOM      1  N   UNL     1       5.772   3.545  18.033  0.00  0.00    +0.000 N 
ATOM      2  H   UNL     1       5.364   3.399  17.095  0.00  0.00    +0.000 HD
ENDROOT
BRANCH   1   3
ATOM      3  C   UNL     1       6.548   4.764  18.106  0.00  0.00    +0.000 A 
ATOM      4  C   UNL     1       7.239   5.016  19.297  0.00  0.00    +0.000 A 
ATOM      5  C   UNL     1       7.971   6.197  19.462  0.00  0.00    +0.000 A 
ATOM      6  C   UNL     1       8.025   7.138  18.438  0.00  0.00    +0.000 A 
ATOM      7  C   UNL     1       7.322   6.914  17.255  0.00  0.00    +0.000 A 
ATOM      8  C   UNL     1       6.562   5.745  17.103  0.00  0.00    +0.000 A 
BRANCH   8   9
ATOM      9  S   UNL     1       5.655   5.555  15.602  0.00  0.00    +0.000 S 
ATOM     10  O   UNL     1       4.638   4.546  15.788  0.00  0.00    +0.000 OA
ATOM     11  O   UNL     1       5.345   6.866  15.083  0.00  0.00    +0.000 OA
BRANCH   9  12
ATOM     12  N   UNL     1       6.809   4.877  14.595  0.00  0.00    +0.000 NA
ATOM     13  H   UNL     1       6.640   5.111  13.619  0.00  0.00    +0.000 HD
ATOM     14  H   UNL     1       7.761   5.052  14.924  0.00  0.00    +0.000 HD
ENDBRANCH   9  12
ENDBRANCH   8   9
ENDBRANCH   1   3
BRANCH   1  15
ATOM     15  S   UNL     1       4.457   3.446  19.125  0.00  0.00    +0.000 S 
ATOM     16  O   UNL     1       5.050   3.086  20.396  0.00  0.00    +0.000 OA
ATOM     17  O   UNL     1       3.454   2.587  18.529  0.00  0.00    +0.000 OA
BRANCH  15  20
ATOM     18  C   UNL     1       1.763   4.663  17.821  0.00  0.00    +0.000 C 
ATOM     19  C   UNL     1       2.690   5.450  18.706  0.00  0.00    +0.000 C 
ATOM     20  C   UNL     1       3.856   5.061  19.260  0.00  0.00    +0.000 C 
BRANCH  19  21
ATOM     21  C   UNL     1       2.194   6.791  19.064  0.00  0.00    +0.000 A 
ATOM     22  C   UNL     1       2.089   7.807  18.108  0.00  0.00    +0.000 A 
ATOM     23  C   UNL     1       1.650   9.081  18.485  0.00  0.00    +0.000 A 
ATOM     24  C   UNL     1       1.317   9.337  19.815  0.00  0.00    +0.000 A 
ATOM     25 CL   UNL     1       0.800  10.911  20.281  0.00  0.00    +0.000 Cl
ATOM     26  C   UNL     1       1.407   8.328  20.772  0.00  0.00    +0.000 A 
ATOM     27  C   UNL     1       1.845   7.057  20.396  0.00  0.00    +0.000 A 
ENDBRANCH  19  21
ENDBRANCH  15  20
ENDBRANCH   1  15
TORSDOF 6
ENDMDL
MODEL 9
REMARK VINA RESULT:      -7.3      3.220      4.864
REMARK  Name = 
REMARK  7 active torsions:
REMARK  status: ('A' for Active; 'I' for Inactive)
REMARK    1  A    between atoms: C_1  and  C_2
REMARK    2  A    between atoms: C_2  and  C_18
REMARK    3  A    between atoms: C_3  and  S_4
REMARK    4  A    between atoms: S_4  and  N_7
REMARK    5  A    between atoms: N_7  and  C_8
REMARK    6  A    between atoms: C_13  and  S_14
REMARK    7  A    between atoms: S_14  and  N_15
REMARK                            x       y       z     vdW  Elec       q    Type
REMARK                         _______ _______ _______ _____ _____    ______ ____
ROOT
ATOM      1  N   UNL     1       3.657   5.857  19.588  0.00  0.00    +0.000 N 
ATOM      2  H   UNL     1       3.919   6.388  20.435  0.00  0.00    +0.000 HD
ENDROOT
BRANCH   1   3
ATOM      3  C   UNL     1       2.934   4.645  19.908  0.00  0.00    +0.000 A 
ATOM      4  C   UNL     1       2.083   4.679  21.018  0.00  0.00    +0.000 A 
ATOM      5  C   UNL     1       1.387   3.534  21.421  0.00  0.00    +0.000 A 
ATOM      6  C   UNL     1       1.531   2.342  20.716  0.00  0.00    +0.000 A 
ATOM      7  C   UNL     1       2.395   2.285  19.624  0.00  0.00    +0.000 A 
ATOM      8  C   UNL     1       3.116   3.425  19.241  0.00  0.00    +0.000 A 
BRANCH   8   9
ATOM      9  S   UNL     1       4.231   3.264  17.883  0.00  0.00    +0.000 S 
ATOM     10  O   UNL     1       4.296   1.876  17.487  0.00  0.00    +0.000 OA
ATOM     11  O   UNL     1       3.956   4.317  16.934  0.00  0.00    +0.000 OA
BRANCH   9  12
ATOM     12  N   UNL     1       5.699   3.614  18.609  0.00  0.00    +0.000 NA
ATOM     13  H   UNL     1       6.080   2.805  19.096  0.00  0.00    +0.000 HD
ATOM     14  H   UNL     1       6.346   4.079  17.969  0.00  0.00    +0.000 HD
ENDBRANCH   9  12
ENDBRANCH   8   9
ENDBRANCH   1   3
BRANCH   1  15
ATOM     15  S   UNL     1       2.822   6.969  18.590  0.00  0.00    +0.000 S 
ATOM     16  O   UNL     1       1.842   6.174  17.881  0.00  0.00    +0.000 OA
ATOM     17  O   UNL     1       3.811   7.722  17.847  0.00  0.00    +0.000 OA
BRANCH  15  20
ATOM     18  C   UNL     1       1.388   9.783  17.914  0.00  0.00    +0.000 C 
ATOM     19  C   UNL     1       1.372   9.145  19.275  0.00  0.00    +0.000 C 
ATOM     20  C   UNL     1       1.973   8.008  19.679  0.00  0.00    +0.000 C 
BRANCH  19  21
ATOM     21  C   UNL     1       0.513   9.832  20.257  0.00  0.00    +0.000 A 
ATOM     22  C   UNL     1      -0.352  10.863  19.873  0.00  0.00    +0.000 A 
ATOM     23  C   UNL     1      -1.127  11.521  20.833  0.00  0.00    +0.000 A 
ATOM     24  C   UNL     1      -1.039  11.149  22.174  0.00  0.00    +0.000 A 
ATOM     25 CL   UNL     1      -1.975  11.975  23.357  0.00  0.00    +0.000 Cl
ATOM     26  C   UNL     1      -0.189  10.115  22.565  0.00  0.00    +0.000 A 
ATOM     27  C   UNL     1       0.585   9.458  21.607  0.00  0.00    +0.000 A 
ENDBRANCH  19  21
ENDBRANCH  15  20
ENDBRANCH   1  15
TORSDOF 6
ENDMDL
