MODEL 1
REMARK VINA RESULT:      -6.6      0.000      0.000
REMARK  Name = 
REMARK  4 active torsions:
REMARK  status: ('A' for Active; 'I' for Inactive)
REMARK    1  A    between atoms: C_1  and  C_2
REMARK    2  A    between atoms: C_4  and  C_5
REMARK    3  A    between atoms: C_6  and  N_7
REMARK    4  A    between atoms: C_13  and  C_14
REMARK                            x       y       z     vdW  Elec       q    Type
REMARK                         _______ _______ _______ _____ _____    ______ ____
ROOT
ATOM      1  C   UNL     1       0.925   2.460  18.690  0.00  0.00    +0.000 C 
ATOM      2  C   UNL     1       1.928   3.489  18.261  0.00  0.00    +0.000 A 
ATOM      3  C   UNL     1       1.765   4.841  18.568  0.00  0.00    +0.000 A 
ATOM      4  C   UNL     1       2.702   5.797  18.139  0.00  0.00    +0.000 A 
ATOM      5  C   UNL     1       2.453   7.249  18.455  0.00  0.00    +0.000 C 
ATOM      6  C   UNL     1       3.834   5.401  17.387  0.00  0.00    +0.000 A 
ATOM      7  C   UNL     1       3.959   4.042  17.020  0.00  0.00    +0.000 A 
ATOM      8  C   UNL     1       5.032   3.508  16.108  0.00  0.00    +0.000 C 
ATOM      9  C   UNL     1       3.029   3.100  17.498  0.00  0.00    +0.000 A 
ENDROOT
BRANCH   6  10
ATOM     10  N   UNL     1       4.716   6.406  16.929  0.00  0.00    +0.000 NA
ATOM     11  C   UNL     1       5.819   6.652  17.539  0.00  0.00    +0.000 C 
ATOM     12  N   UNL     1       6.751   7.543  17.064  0.00  0.00    +0.000 N 
ATOM     13  C   UNL     1       7.949   7.606  17.874  0.00  0.00    +0.000 C 
ATOM     14  C   UNL     1       7.832   6.289  18.658  0.00  0.00    +0.000 C 
ATOM     15  N   UNL     1       6.391   6.106  18.666  0.00  0.00    +0.000 N 
ATOM     16  H   UNL     1       6.458   8.272  16.430  0.00  0.00    +0.000 HD
ATOM     17  H   UNL     1       5.988   5.259  19.035  0.00  0.00    +0.000 HD
ENDBRANCH   6  10
TORSDOF 1
ENDMDL
MODEL 2
REMARK VINA RESULT:      -6.5      0.192      2.250
REMARK  Name = 
REMARK  4 active torsions:
REMARK  status: ('A' for Active; 'I' for Inactive)
REMARK    1  A    between atoms: C_1  and  C_2
REMARK    2  A    between atoms: C_4  and  C_5
REMARK    3  A    between atoms: C_6  and  N_7
REMARK    4  A    between atoms: C_13  and  C_14
REMARK                            x       y       z     vdW  Elec       q    Type
REMARK                         _______ _______ _______ _____ _____    ______ ____
ROOT
ATOM      1  C   UNL     1       1.076   2.292  18.834  0.00  0.00    +0.000 C 
ATOM      2  C   UNL     1       2.003   3.343  18.299  0.00  0.00    +0.000 A 
ATOM      3  C   UNL     1       3.068   3.019  17.457  0.00  0.00    +0.000 A 
ATOM      4  C   UNL     1       3.942   4.014  16.983  0.00  0.00    +0.000 A 
ATOM      5  C   UNL     1       5.105   3.603  16.116  0.00  0.00    +0.000 C 
ATOM      6  C   UNL     1       3.754   5.367  17.351  0.00  0.00    +0.000 A 
ATOM      7  C   UNL     1       2.716   5.680  18.259  0.00  0.00    +0.000 A 
ATOM      8  C   UNL     1       2.491   7.050  18.843  0.00  0.00    +0.000 C 
ATOM      9  C   UNL     1       1.831   4.673  18.685  0.00  0.00    +0.000 A 
ENDROOT
BRANCH   6  10
ATOM     10  N   UNL     1       4.693   6.320  16.896  0.00  0.00    +0.000 NA
ATOM     11  C   UNL     1       5.781   6.542  17.542  0.00  0.00    +0.000 C 
ATOM     12  N   UNL     1       6.765   7.379  17.075  0.00  0.00    +0.000 N 
ATOM     13  C   UNL     1       7.934   7.421  17.929  0.00  0.00    +0.000 C 
ATOM     14  C   UNL     1       7.734   6.136  18.748  0.00  0.00    +0.000 C 
ATOM     15  N   UNL     1       6.287   6.011  18.706  0.00  0.00    +0.000 N 
ATOM     16  H   UNL     1       6.527   8.098  16.408  0.00  0.00    +0.000 HD
ATOM     17  H   UNL     1       5.837   5.193  19.085  0.00  0.00    +0.000 HD
ENDBRANCH   6  10
TORSDOF 1
ENDMDL
MODEL 3
REMARK VINA RESULT:      -6.3      1.633      1.792
REMARK  Name = 
REMARK  4 active torsions:
REMARK  status: ('A' for Active; 'I' for Inactive)
REMARK    1  A    between atoms: C_1  and  C_2
REMARK    2  A    between atoms: C_4  and  C_5
REMARK    3  A    between atoms: C_6  and  N_7
REMARK    4  A    between atoms: C_13  and  C_14
REMARK                            x       y       z     vdW  Elec       q    Type
REMARK                         _______ _______ _______ _____ _____    ______ ____
ROOT
ATOM      1  C   UNL     1       1.228   2.577  21.798  0.00  0.00    +0.000 C 
ATOM      2  C   UNL     1       1.960   3.398  20.778  0.00  0.00    +0.000 A 
ATOM      3  C   UNL     1       1.871   4.791  20.762  0.00  0.00    +0.000 A 
ATOM      4  C   UNL     1       2.545   5.546  19.784  0.00  0.00    +0.000 A 
ATOM      5  C   UNL     1       2.377   7.043  19.781  0.00  0.00    +0.000 C 
ATOM      6  C   UNL     1       3.331   4.901  18.799  0.00  0.00    +0.000 A 
ATOM      7  C   UNL     1       3.361   3.488  18.779  0.00  0.00    +0.000 A 
ATOM      8  C   UNL     1       4.039   2.674  17.707  0.00  0.00    +0.000 C 
ATOM      9  C   UNL     1       2.712   2.760  19.793  0.00  0.00    +0.000 A 
ENDROOT
BRANCH   6  10
ATOM     10  N   UNL     1       3.941   5.699  17.805  0.00  0.00    +0.000 NA
ATOM     11  C   UNL     1       5.182   6.020  17.878  0.00  0.00    +0.000 C 
ATOM     12  N   UNL     1       5.836   6.700  16.879  0.00  0.00    +0.000 N 
ATOM     13  C   UNL     1       7.247   6.888  17.142  0.00  0.00    +0.000 C 
ATOM     14  C   UNL     1       7.479   5.822  18.224  0.00  0.00    +0.000 C 
ATOM     15  N   UNL     1       6.153   5.740  18.812  0.00  0.00    +0.000 N 
ATOM     16  H   UNL     1       5.301   7.262  16.233  0.00  0.00    +0.000 HD
ATOM     17  H   UNL     1       5.949   5.041  19.509  0.00  0.00    +0.000 HD
ENDBRANCH   6  10
TORSDOF 1
ENDMDL
MODEL 4
REMARK VINA RESULT:      -6.2      1.471      2.736
REMARK  Name = 
REMARK  4 active torsions:
REMARK  status: ('A' for Active; 'I' for Inactive)
REMARK    1  A    between atoms: C_1  and  C_2
REMARK    2  A    between atoms: C_4  and  C_5
REMARK    3  A    between atoms: C_6  and  N_7
REMARK    4  A    between atoms: C_13  and  C_14
REMARK                            x       y       z     vdW  Elec       q    Type
REMARK                         _______ _______ _______ _____ _____    ______ ____
ROOT
ATOM      1  C   UNL     1       1.273   2.680  21.537  0.00  0.00    +0.000 C 
ATOM      2  C   UNL     1       1.928   3.505  20.469  0.00  0.00    +0.000 A 
ATOM      3  C   UNL     1       2.696   2.921  19.462  0.00  0.00    +0.000 A 
ATOM      4  C   UNL     1       3.323   3.711  18.481  0.00  0.00    +0.000 A 
ATOM      5  C   UNL     1       4.182   3.034  17.445  0.00  0.00    +0.000 C 
ATOM      6  C   UNL     1       3.180   5.119  18.498  0.00  0.00    +0.000 A 
ATOM      7  C   UNL     1       2.459   5.711  19.560  0.00  0.00    +0.000 A 
ATOM      8  C   UNL     1       2.347   7.197  19.780  0.00  0.00    +0.000 C 
ATOM      9  C   UNL     1       1.807   4.895  20.504  0.00  0.00    +0.000 A 
ENDROOT
BRANCH   6  10
ATOM     10  N   UNL     1       3.877   5.873  17.527  0.00  0.00    +0.000 NA
ATOM     11  C   UNL     1       5.118   6.167  17.677  0.00  0.00    +0.000 C 
ATOM     12  N   UNL     1       5.855   6.803  16.708  0.00  0.00    +0.000 N 
ATOM     13  C   UNL     1       7.249   6.966  17.062  0.00  0.00    +0.000 C 
ATOM     14  C   UNL     1       7.380   5.926  18.187  0.00  0.00    +0.000 C 
ATOM     15  N   UNL     1       6.015   5.892  18.684  0.00  0.00    +0.000 N 
ATOM     16  H   UNL     1       5.380   7.358  16.011  0.00  0.00    +0.000 HD
ATOM     17  H   UNL     1       5.746   5.219  19.383  0.00  0.00    +0.000 HD
ENDBRANCH   6  10
TORSDOF 1
ENDMDL
MODEL 5
REMARK VINA RESULT:      -6.2      1.990      2.471
REMARK  Name = 
REMARK  4 active torsions:
REMARK  status: ('A' for Active; 'I' for Inactive)
REMARK    1  A    between atoms: C_1  and  C_2
REMARK    2  A    between atoms: C_4  and  C_5
REMARK    3  A    between atoms: C_6  and  N_7
REMARK    4  A    between atoms: C_13  and  C_14
REMARK                            x       y       z     vdW  Elec       q    Type
REMARK                         _______ _______ _______ _____ _____    ______ ____
ROOT
ATOM      1  C   UNL     1       1.358   2.937  21.949  0.00  0.00    +0.000 C 
ATOM      2  C   UNL     1       2.005   3.275  20.639  0.00  0.00    +0.000 A 
ATOM      3  C   UNL     1       1.929   4.558  20.096  0.00  0.00    +0.000 A 
ATOM      4  C   UNL     1       2.522   4.854  18.855  0.00  0.00    +0.000 A 
ATOM      5  C   UNL     1       2.368   6.242  18.291  0.00  0.00    +0.000 C 
ATOM      6  C   UNL     1       3.212   3.850  18.135  0.00  0.00    +0.000 A 
ATOM      7  C   UNL     1       3.226   2.536  18.656  0.00  0.00    +0.000 A 
ATOM      8  C   UNL     1       3.799   1.346  17.930  0.00  0.00    +0.000 C 
ATOM      9  C   UNL     1       2.662   2.277  19.919  0.00  0.00    +0.000 A 
ENDROOT
BRANCH   6  10
ATOM     10  N   UNL     1       3.739   4.181  16.866  0.00  0.00    +0.000 NA
ATOM     11  C   UNL     1       4.963   4.547  16.730  0.00  0.00    +0.000 C 
ATOM     12  N   UNL     1       5.541   4.771  15.504  0.00  0.00    +0.000 N 
ATOM     13  C   UNL     1       6.948   5.102  15.585  0.00  0.00    +0.000 C 
ATOM     14  C   UNL     1       7.279   4.593  16.997  0.00  0.00    +0.000 C 
ATOM     15  N   UNL     1       5.981   4.717  17.640  0.00  0.00    +0.000 N 
ATOM     16  H   UNL     1       4.952   4.993  14.714  0.00  0.00    +0.000 HD
ATOM     17  H   UNL     1       5.841   4.366  18.574  0.00  0.00    +0.000 HD
ENDBRANCH   6  10
TORSDOF 1
ENDMDL
MODEL 6
REMARK VINA RESULT:      -6.1      2.390      4.963
REMARK  Name = 
REMARK  4 active torsions:
REMARK  status: ('A' for Active; 'I' for Inactive)
REMARK    1  A    between atoms: C_1  and  C_2
REMARK    2  A    between atoms: C_4  and  C_5
REMARK    3  A    between atoms: C_6  and  N_7
REMARK    4  A    between atoms: C_13  and  C_14
REMARK                            x       y       z     vdW  Elec       q    Type
REMARK                         _______ _______ _______ _____ _____    ______ ____
ROOT
ATOM      1  C   UNL     1       1.510   9.678  17.845  0.00  0.00    +0.000 C 
ATOM      2  C   UNL     1       2.249   8.427  18.214  0.00  0.00    +0.000 A 
ATOM      3  C   UNL     1       3.297   7.939  17.432  0.00  0.00    +0.000 A 
ATOM      4  C   UNL     1       3.965   6.751  17.780  0.00  0.00    +0.000 A 
ATOM      5  C   UNL     1       5.057   6.242  16.875  0.00  0.00    +0.000 C 
ATOM      6  C   UNL     1       3.585   6.029  18.936  0.00  0.00    +0.000 A 
ATOM      7  C   UNL     1       2.479   6.490  19.686  0.00  0.00    +0.000 A 
ATOM      8  C   UNL     1       1.881   5.747  20.852  0.00  0.00    +0.000 C 
ATOM      9  C   UNL     1       1.856   7.703  19.340  0.00  0.00    +0.000 A 
ENDROOT
BRANCH   6  10
ATOM     10  N   UNL     1       4.247   4.811  19.211  0.00  0.00    +0.000 NA
ATOM     11  C   UNL     1       3.733   3.683  18.874  0.00  0.00    +0.000 C 
ATOM     12  N   UNL     1       4.394   2.488  19.025  0.00  0.00    +0.000 N 
ATOM     13  C   UNL     1       3.655   1.355  18.509  0.00  0.00    +0.000 C 
ATOM     14  C   UNL     1       2.648   2.066  17.592  0.00  0.00    +0.000 C 
ATOM     15  N   UNL     1       2.551   3.360  18.247  0.00  0.00    +0.000 N 
ATOM     16  H   UNL     1       5.135   2.417  19.707  0.00  0.00    +0.000 HD
ATOM     17  H   UNL     1       2.024   4.106  17.823  0.00  0.00    +0.000 HD
ENDBRANCH   6  10
TORSDOF 1
ENDMDL
MODEL 7
REMARK VINA RESULT:      -6.1      1.975      3.279
REMARK  Name = 
REMARK  4 active torsions:
REMARK  status: ('A' for Active; 'I' for Inactive)
REMARK    1  A    between atoms: C_1  and  C_2
REMARK    2  A    between atoms: C_4  and  C_5
REMARK    3  A    between atoms: C_6  and  N_7
REMARK    4  A    between atoms: C_13  and  C_14
REMARK                            x       y       z     vdW  Elec       q    Type
REMARK                         _______ _______ _______ _____ _____    ______ ____
ROOT
ATOM      1  C   UNL     1       1.307   2.924  21.895  0.00  0.00    +0.000 C 
ATOM      2  C   UNL     1       1.910   3.175  20.546  0.00  0.00    +0.000 A 
ATOM      3  C   UNL     1       2.557   2.163  19.834  0.00  0.00    +0.000 A 
ATOM      4  C   UNL     1       3.138   2.421  18.579  0.00  0.00    +0.000 A 
ATOM      5  C   UNL     1       3.866   1.305  17.875  0.00  0.00    +0.000 C 
ATOM      6  C   UNL     1       3.073   3.716  18.013  0.00  0.00    +0.000 A 
ATOM      7  C   UNL     1       2.478   4.753  18.768  0.00  0.00    +0.000 A 
ATOM      8  C   UNL     1       2.466   6.201  18.351  0.00  0.00    +0.000 C 
ATOM      9  C   UNL     1       1.868   4.459  20.002  0.00  0.00    +0.000 A 
ENDROOT
BRANCH   6  10
ATOM     10  N   UNL     1       3.722   3.939  16.778  0.00  0.00    +0.000 NA
ATOM     11  C   UNL     1       4.940   4.343  16.730  0.00  0.00    +0.000 C 
ATOM     12  N   UNL     1       5.638   4.466  15.553  0.00  0.00    +0.000 N 
ATOM     13  C   UNL     1       7.016   4.866  15.743  0.00  0.00    +0.000 C 
ATOM     14  C   UNL     1       7.211   4.519  17.228  0.00  0.00    +0.000 C 
ATOM     15  N   UNL     1       5.849   4.651  17.717  0.00  0.00    +0.000 N 
ATOM     16  H   UNL     1       5.130   4.580  14.688  0.00  0.00    +0.000 HD
ATOM     17  H   UNL     1       5.622   4.391  18.663  0.00  0.00    +0.000 HD
ENDBRANCH   6  10
TORSDOF 1
ENDMDL
MODEL 8
REMARK VINA RESULT:      -5.9      2.422      4.583
REMARK  Name = 
REMARK  4 active torsions:
REMARK  status: ('A' for Active; 'I' for Inactive)
REMARK    1  A    between atoms: C_1  and  C_2
REMARK    2  A    between atoms: C_4  and  C_5
REMARK    3  A    between atoms: C_6  and  N_7
REMARK    4  A    between atoms: C_13  and  C_14
REMARK                            x       y       z     vdW  Elec       q    Type
REMARK                         _______ _______ _______ _____ _____    ______ ____
ROOT
ATOM      1  C   UNL     1       1.512   9.470  17.846  0.00  0.00    +0.000 C 
ATOM      2  C   UNL     1       2.238   8.215  18.230  0.00  0.00    +0.000 A 
ATOM      3  C   UNL     1       1.866   7.471  19.351  0.00  0.00    +0.000 A 
ATOM      4  C   UNL     1       2.571   6.308  19.711  0.00  0.00    +0.000 A 
ATOM      5  C   UNL     1       2.160   5.568  20.958  0.00  0.00    +0.000 C 
ATOM      6  C   UNL     1       3.672   5.870  18.937  0.00  0.00    +0.000 A 
ATOM      7  C   UNL     1       4.087   6.665  17.844  0.00  0.00    +0.000 A 
ATOM      8  C   UNL     1       5.322   6.395  17.025  0.00  0.00    +0.000 C 
ATOM      9  C   UNL     1       3.338   7.800  17.481  0.00  0.00    +0.000 A 
ENDROOT
BRANCH   6  10
ATOM     10  N   UNL     1       4.384   4.730  19.373  0.00  0.00    +0.000 NA
ATOM     11  C   UNL     1       3.988   3.545  19.076  0.00  0.00    +0.000 C 
ATOM     12  N   UNL     1       4.710   2.418  19.388  0.00  0.00    +0.000 N 
ATOM     13  C   UNL     1       4.111   1.197  18.892  0.00  0.00    +0.000 C 
ATOM     14  C   UNL     1       3.160   1.761  17.823  0.00  0.00    +0.000 C 
ATOM     15  N   UNL     1       2.905   3.087  18.361  0.00  0.00    +0.000 N 
ATOM     16  H   UNL     1       5.377   2.454  20.145  0.00  0.00    +0.000 HD
ATOM     17  H   UNL     1       2.375   3.758  17.828  0.00  0.00    +0.000 HD
ENDBRANCH   6  10
TORSDOF 1
ENDMDL
MODEL 9
REMARK VINA RESULT:      -5.9      2.031      5.454
REMARK  Name = 
REMARK  4 active torsions:
REMARK  status: ('A' for Active; 'I' for Inactive)
REMARK    1  A    between atoms: C_1  and  C_2
REMARK    2  A    between atoms: C_4  and  C_5
REMARK    3  A    between atoms: C_6  and  N_7
REMARK    4  A    between atoms: C_13  and  C_14
REMARK                            x       y       z     vdW  Elec       q    Type
REMARK                         _______ _______ _______ _____ _____    ______ ____
ROOT
ATOM      1  C   UNL     1       7.791   8.047  17.423  0.00  0.00    +0.000 C 
ATOM      2  C   UNL     1       6.712   7.012  17.302  0.00  0.00    +0.000 A 
ATOM      3  C   UNL     1       6.919   5.817  16.612  0.00  0.00    +0.000 A 
ATOM      4  C   UNL     1       5.889   4.867  16.487  0.00  0.00    +0.000 A 
ATOM      5  C   UNL     1       6.150   3.616  15.689  0.00  0.00    +0.000 C 
ATOM      6  C   UNL     1       4.620   5.108  17.066  0.00  0.00    +0.000 A 
ATOM      7  C   UNL     1       4.395   6.348  17.705  0.00  0.00    +0.000 A 
ATOM      8  C   UNL     1       3.058   6.792  18.238  0.00  0.00    +0.000 C 
ATOM      9  C   UNL     1       5.454   7.263  17.851  0.00  0.00    +0.000 A 
ENDROOT
BRANCH   6  10
ATOM     10  N   UNL     1       3.601   4.149  16.864  0.00  0.00    +0.000 NA
ATOM     11  C   UNL     1       3.223   3.371  17.812  0.00  0.00    +0.000 C 
ATOM     12  N   UNL     1       2.164   2.504  17.686  0.00  0.00    +0.000 N 
ATOM     13  C   UNL     1       1.869   1.779  18.904  0.00  0.00    +0.000 C 
ATOM     14  C   UNL     1       2.590   2.657  19.940  0.00  0.00    +0.000 C 
ATOM     15  N   UNL     1       3.637   3.239  19.118  0.00  0.00    +0.000 N 
ATOM     16  H   UNL     1       1.881   2.202  16.766  0.00  0.00    +0.000 HD
ATOM     17  H   UNL     1       4.241   3.953  19.495  0.00  0.00    +0.000 HD
ENDBRANCH   6  10
TORSDOF 1
ENDMDL
