MODEL 1
REMARK VINA RESULT:      -9.2      0.000      0.000
REMARK  Name = 
REMARK  6 active torsions:
REMARK  status: ('A' for Active; 'I' for Inactive)
REMARK    1  A    between atoms: C_1  and  C_2
REMARK    2  A    between atoms: C_2  and  C_3
REMARK    3  A    between atoms: C_3  and  N_4
REMARK    4  A    between atoms: C_7  and  C_9
REMARK    5  A    between atoms: C_9  and  S_10
REMARK    6  A    between atoms: S_10  and  C_11
REMARK                            x       y       z     vdW  Elec       q    Type
REMARK                         _______ _______ _______ _____ _____    ______ ____
ROOT
ATOM      1  S   UNL     1       1.313   9.268  22.175  0.00  0.00    +0.000 S 
ENDROOT
BRANCH   1   2
ATOM      2  C   UNL     1       0.260  10.483  21.428  0.00  0.00    +0.000 A 
ATOM      3  C   UNL     1       0.157  10.773  20.068  0.00  0.00    +0.000 A 
ATOM      4  C   UNL     1      -0.050  12.103  19.616  0.00  0.00    +0.000 A 
ATOM      5  C   UNL     1      -0.104  13.161  20.530  0.00  0.00    +0.000 A 
ATOM      6  C   UNL     1      -0.320  12.745  21.868  0.00  0.00    +0.000 A 
ATOM      7  C   UNL     1      -0.911  13.611  22.739  0.00  0.00    +0.000 A 
ATOM      8  C   UNL     1      -2.225  13.290  22.978  0.00  0.00    +0.000 A 
ATOM      9  C   UNL     1      -2.487  11.949  23.145  0.00  0.00    +0.000 A 
ATOM     10  C   UNL     1      -1.386  11.087  23.158  0.00  0.00    +0.000 A 
ATOM     11  C   UNL     1      -0.357  11.418  22.257  0.00  0.00    +0.000 A 
ATOM     12  C   UNL     1      -0.462  14.970  22.630  0.00  0.00    +0.000 C 
ATOM     13  O   UNL     1       0.172  15.528  23.510  0.00  0.00    +0.000 OA
ATOM     14  C   UNL     1      -0.632  15.497  21.298  0.00  0.00    +0.000 A 
ATOM     15  C   UNL     1      -1.115  16.792  21.200  0.00  0.00    +0.000 A 
ATOM     16  C   UNL     1      -1.172  17.346  19.946  0.00  0.00    +0.000 A 
ATOM     17  C   UNL     1      -0.684  16.607  18.861  0.00  0.00    +0.000 A 
ATOM     18  C   UNL     1      -0.274  15.256  18.984  0.00  0.00    +0.000 A 
ATOM     19  C   UNL     1      -0.315  14.628  20.222  0.00  0.00    +0.000 A 
ENDBRANCH   1   2
BRANCH   1  20
ATOM     20  C   UNL     1       1.023   7.740  21.240  0.00  0.00    +0.000 C 
BRANCH  20  24
ATOM     21  N   UNL     1       3.709   4.575  18.605  0.00  0.00    +0.000 N 
ATOM     22  C   UNL     1       3.282   5.861  18.887  0.00  0.00    +0.000 A 
ATOM     23  N   UNL     1       2.458   6.217  19.945  0.00  0.00    +0.000 N 
ATOM     24  C   UNL     1       1.885   7.457  20.015  0.00  0.00    +0.000 C 
ATOM     25  O   UNL     1       1.951   8.351  19.161  0.00  0.00    +0.000 OA
ATOM     26  N   UNL     1       3.754   6.696  17.987  0.00  0.00    +0.000 NA
ATOM     27  C   UNL     1       4.454   5.946  17.096  0.00  0.00    +0.000 A 
ATOM     28  C   UNL     1       5.130   6.357  15.948  0.00  0.00    +0.000 A 
ATOM     29  C   UNL     1       5.789   5.424  15.151  0.00  0.00    +0.000 A 
ATOM     30  C   UNL     1       5.762   4.073  15.501  0.00  0.00    +0.000 A 
ATOM     31  C   UNL     1       5.079   3.641  16.641  0.00  0.00    +0.000 A 
ATOM     32  C   UNL     1       4.435   4.607  17.425  0.00  0.00    +0.000 A 
ATOM     33  H   UNL     1       2.286   5.536  20.688  0.00  0.00    +0.000 HD
BRANCH  21  34
ATOM     34  C   UNL     1       3.350   3.356  19.299  0.00  0.00    +0.000 C 
BRANCH  34  36
ATOM     35  C   UNL     1       0.853   2.891  19.492  0.00  0.00    +0.000 C 
ATOM     36  C   UNL     1       2.135   2.625  18.721  0.00  0.00    +0.000 C 
ENDBRANCH  34  36
ENDBRANCH  21  34
ENDBRANCH  20  24
ENDBRANCH   1  20
TORSDOF 5
ENDMDL
MODEL 2
REMARK VINA RESULT:      -9.1      2.095      3.073
REMARK  Name = 
REMARK  6 active torsions:
REMARK  status: ('A' for Active; 'I' for Inactive)
REMARK    1  A    between atoms: C_1  and  C_2
REMARK    2  A    between atoms: C_2  and  C_3
REMARK    3  A    between atoms: C_3  and  N_4
REMARK    4  A    between atoms: C_7  and  C_9
REMARK    5  A    between atoms: C_9  and  S_10
REMARK    6  A    between atoms: S_10  and  C_11
REMARK                            x       y       z     vdW  Elec       q    Type
REMARK                         _______ _______ _______ _____ _____    ______ ____
ROOT
ATOM      1  S   UNL     1      -0.745  10.351  18.797  0.00  0.00    +0.000 S 
ENDROOT
BRANCH   1   2
ATOM      2  C   UNL     1      -1.114  11.894  19.585  0.00  0.00    +0.000 A 
ATOM      3  C   UNL     1      -0.219  12.930  19.852  0.00  0.00    +0.000 A 
ATOM      4  C   UNL     1      -0.325  13.705  21.036  0.00  0.00    +0.000 A 
ATOM      5  C   UNL     1      -1.307  13.409  21.989  0.00  0.00    +0.000 A 
ATOM      6  C   UNL     1      -2.349  12.586  21.495  0.00  0.00    +0.000 A 
ATOM      7  C   UNL     1      -3.577  12.654  22.082  0.00  0.00    +0.000 A 
ATOM      8  C   UNL     1      -4.478  13.358  21.320  0.00  0.00    +0.000 A 
ATOM      9  C   UNL     1      -4.438  13.101  19.968  0.00  0.00    +0.000 A 
ATOM     10  C   UNL     1      -3.569  12.091  19.541  0.00  0.00    +0.000 A 
ATOM     11  C   UNL     1      -2.344  12.026  20.229  0.00  0.00    +0.000 A 
ATOM     12  C   UNL     1      -3.553  12.744  23.515  0.00  0.00    +0.000 C 
ATOM     13  O   UNL     1      -3.969  11.855  24.238  0.00  0.00    +0.000 OA
ATOM     14  C   UNL     1      -2.776  13.868  23.979  0.00  0.00    +0.000 A 
ATOM     15  C   UNL     1      -3.309  14.600  25.027  0.00  0.00    +0.000 A 
ATOM     16  C   UNL     1      -2.529  15.599  25.554  0.00  0.00    +0.000 A 
ATOM     17  C   UNL     1      -1.233  15.775  25.055  0.00  0.00    +0.000 A 
ATOM     18  C   UNL     1      -0.749  15.065  23.929  0.00  0.00    +0.000 A 
ATOM     19  C   UNL     1      -1.558  14.128  23.298  0.00  0.00    +0.000 A 
ENDBRANCH   1   2
BRANCH   1  20
ATOM     20  C   UNL     1       0.866   9.844  19.462  0.00  0.00    +0.000 C 
BRANCH  20  24
ATOM     21  N   UNL     1       3.271   5.651  18.567  0.00  0.00    +0.000 N 
ATOM     22  C   UNL     1       3.035   6.990  18.312  0.00  0.00    +0.000 A 
ATOM     23  N   UNL     1       2.167   7.800  19.030  0.00  0.00    +0.000 N 
ATOM     24  C   UNL     1       1.803   9.037  18.571  0.00  0.00    +0.000 C 
ATOM     25  O   UNL     1       2.113   9.542  17.484  0.00  0.00    +0.000 OA
ATOM     26  N   UNL     1       3.738   7.378  17.271  0.00  0.00    +0.000 NA
ATOM     27  C   UNL     1       4.400   6.279  16.823  0.00  0.00    +0.000 A 
ATOM     28  C   UNL     1       5.261   6.162  15.733  0.00  0.00    +0.000 A 
ATOM     29  C   UNL     1       5.842   4.933  15.428  0.00  0.00    +0.000 A 
ATOM     30  C   UNL     1       5.552   3.816  16.214  0.00  0.00    +0.000 A 
ATOM     31  C   UNL     1       4.682   3.913  17.302  0.00  0.00    +0.000 A 
ATOM     32  C   UNL     1       4.122   5.166  17.586  0.00  0.00    +0.000 A 
ATOM     33  H   UNL     1       1.801   7.463  19.923  0.00  0.00    +0.000 HD
BRANCH  21  34
ATOM     34  C   UNL     1       2.639   4.820  19.569  0.00  0.00    +0.000 C 
BRANCH  34  36
ATOM     35  C   UNL     1       1.426   2.760  18.687  0.00  0.00    +0.000 C 
ATOM     36  C   UNL     1       1.304   4.205  19.141  0.00  0.00    +0.000 C 
ENDBRANCH  34  36
ENDBRANCH  21  34
ENDBRANCH  20  24
ENDBRANCH   1  20
TORSDOF 5
ENDMDL
MODEL 3
REMARK VINA RESULT:      -9.1      3.566      4.527
REMARK  Name = 
REMARK  6 active torsions:
REMARK  status: ('A' for Active; 'I' for Inactive)
REMARK    1  A    between atoms: C_1  and  C_2
REMARK    2  A    between atoms: C_2  and  C_3
REMARK    3  A    between atoms: C_3  and  N_4
REMARK    4  A    between atoms: C_7  and  C_9
REMARK    5  A    between atoms: C_9  and  S_10
REMARK    6  A    between atoms: S_10  and  C_11
REMARK                            x       y       z     vdW  Elec       q    Type
REMARK                         _______ _______ _______ _____ _____    ______ ____
ROOT
ATOM      1  S   UNL     1      -1.283  10.023  17.739  0.00  0.00    +0.000 S 
ENDROOT
BRANCH   1   2
ATOM      2  C   UNL     1      -2.187  11.432  18.322  0.00  0.00    +0.000 A 
ATOM      3  C   UNL     1      -1.686  12.486  19.084  0.00  0.00    +0.000 A 
ATOM      4  C   UNL     1      -2.475  13.105  20.089  0.00  0.00    +0.000 A 
ATOM      5  C   UNL     1      -3.761  12.631  20.370  0.00  0.00    +0.000 A 
ATOM      6  C   UNL     1      -4.296  11.803  19.352  0.00  0.00    +0.000 A 
ATOM      7  C   UNL     1      -5.650  11.716  19.217  0.00  0.00    +0.000 A 
ATOM      8  C   UNL     1      -6.112  12.442  18.147  0.00  0.00    +0.000 A 
ATOM      9  C   UNL     1      -5.357  12.352  16.999  0.00  0.00    +0.000 A 
ATOM     10  C   UNL     1      -4.278  11.463  17.020  0.00  0.00    +0.000 A 
ATOM     11  C   UNL     1      -3.578  11.400  18.240  0.00  0.00    +0.000 A 
ATOM     12  C   UNL     1      -6.372  11.635  20.456  0.00  0.00    +0.000 C 
ATOM     13  O   UNL     1      -6.988  10.639  20.796  0.00  0.00    +0.000 OA
ATOM     14  C   UNL     1      -6.084  12.746  21.330  0.00  0.00    +0.000 A 
ATOM     15  C   UNL     1      -7.161  13.308  21.994  0.00  0.00    +0.000 A 
ATOM     16  C   UNL     1      -6.887  14.288  22.915  0.00  0.00    +0.000 A 
ATOM     17  C   UNL     1      -5.550  14.611  23.176  0.00  0.00    +0.000 A 
ATOM     18  C   UNL     1      -4.477  14.076  22.422  0.00  0.00    +0.000 A 
ATOM     19  C   UNL     1      -4.730  13.169  21.401  0.00  0.00    +0.000 A 
ENDBRANCH   1   2
BRANCH   1  20
ATOM     20  C   UNL     1       0.245   9.994  18.718  0.00  0.00    +0.000 C 
BRANCH  20  24
ATOM     21  N   UNL     1       2.811   5.829  18.222  0.00  0.00    +0.000 N 
ATOM     22  C   UNL     1       2.694   7.202  18.098  0.00  0.00    +0.000 A 
ATOM     23  N   UNL     1       1.612   7.955  18.530  0.00  0.00    +0.000 N 
ATOM     24  C   UNL     1       1.459   9.263  18.156  0.00  0.00    +0.000 C 
ATOM     25  O   UNL     1       2.174   9.893  17.366  0.00  0.00    +0.000 OA
ATOM     26  N   UNL     1       3.751   7.688  17.485  0.00  0.00    +0.000 NA
ATOM     27  C   UNL     1       4.538   6.624  17.174  0.00  0.00    +0.000 A 
ATOM     28  C   UNL     1       5.760   6.607  16.504  0.00  0.00    +0.000 A 
ATOM     29  C   UNL     1       6.415   5.400  16.271  0.00  0.00    +0.000 A 
ATOM     30  C   UNL     1       5.838   4.205  16.705  0.00  0.00    +0.000 A 
ATOM     31  C   UNL     1       4.608   4.202  17.366  0.00  0.00    +0.000 A 
ATOM     32  C   UNL     1       3.981   5.434  17.592  0.00  0.00    +0.000 A 
ATOM     33  H   UNL     1       0.922   7.520  19.148  0.00  0.00    +0.000 HD
BRANCH  21  34
ATOM     34  C   UNL     1       1.834   4.906  18.760  0.00  0.00    +0.000 C 
BRANCH  34  36
ATOM     35  C   UNL     1       1.125   3.395  20.684  0.00  0.00    +0.000 C 
ATOM     36  C   UNL     1       2.128   4.419  20.181  0.00  0.00    +0.000 C 
ENDBRANCH  34  36
ENDBRANCH  21  34
ENDBRANCH  20  24
ENDBRANCH   1  20
TORSDOF 5
ENDMDL
MODEL 4
REMARK VINA RESULT:      -9.0      2.296      3.810
REMARK  Name = 
REMARK  6 active torsions:
REMARK  status: ('A' for Active; 'I' for Inactive)
REMARK    1  A    between atoms: C_1  and  C_2
REMARK    2  A    between atoms: C_2  and  C_3
REMARK    3  A    between atoms: C_3  and  N_4
REMARK    4  A    between atoms: C_7  and  C_9
REMARK    5  A    between atoms: C_9  and  S_10
REMARK    6  A    between atoms: S_10  and  C_11
REMARK                            x       y       z     vdW  Elec       q    Type
REMARK                         _______ _______ _______ _____ _____    ______ ____
ROOT
ATOM      1  S   UNL     1       1.369  11.621  18.950  0.00  0.00    +0.000 S 
ENDROOT
BRANCH   1   2
ATOM      2  C   UNL     1      -0.300  11.363  19.486  0.00  0.00    +0.000 A 
ATOM      3  C   UNL     1      -1.387  11.010  18.687  0.00  0.00    +0.000 A 
ATOM      4  C   UNL     1      -2.684  11.526  18.945  0.00  0.00    +0.000 A 
ATOM      5  C   UNL     1      -2.887  12.444  19.982  0.00  0.00    +0.000 A 
ATOM      6  C   UNL     1      -1.827  12.483  20.921  0.00  0.00    +0.000 A 
ATOM      7  C   UNL     1      -2.092  12.885  22.197  0.00  0.00    +0.000 A 
ATOM      8  C   UNL     1      -2.136  11.829  23.074  0.00  0.00    +0.000 A 
ATOM      9  C   UNL     1      -1.158  10.875  22.903  0.00  0.00    +0.000 A 
ATOM     10  C   UNL     1      -0.181  11.137  21.936  0.00  0.00    +0.000 A 
ATOM     11  C   UNL     1      -0.648  11.774  20.772  0.00  0.00    +0.000 A 
ATOM     12  C   UNL     1      -2.986  14.003  22.299  0.00  0.00    +0.000 C 
ATOM     13  O   UNL     1      -2.633  15.094  22.715  0.00  0.00    +0.000 OA
ATOM     14  C   UNL     1      -4.247  13.758  21.641  0.00  0.00    +0.000 A 
ATOM     15  C   UNL     1      -5.387  14.174  22.309  0.00  0.00    +0.000 A 
ATOM     16  C   UNL     1      -6.582  14.052  21.644  0.00  0.00    +0.000 A 
ATOM     17  C   UNL     1      -6.573  13.583  20.325  0.00  0.00    +0.000 A 
ATOM     18  C   UNL     1      -5.401  13.088  19.701  0.00  0.00    +0.000 A 
ATOM     19  C   UNL     1      -4.194  13.089  20.390  0.00  0.00    +0.000 A 
ENDBRANCH   1   2
BRANCH   1  20
ATOM     20  C   UNL     1       1.811  10.129  18.015  0.00  0.00    +0.000 C 
BRANCH  20  24
ATOM     21  N   UNL     1       3.768   5.636  18.409  0.00  0.00    +0.000 N 
ATOM     22  C   UNL     1       2.824   6.583  18.768  0.00  0.00    +0.000 A 
ATOM     23  N   UNL     1       2.689   7.837  18.190  0.00  0.00    +0.000 N 
ATOM     24  C   UNL     1       1.902   8.801  18.757  0.00  0.00    +0.000 C 
ATOM     25  O   UNL     1       1.302   8.723  19.837  0.00  0.00    +0.000 OA
ATOM     26  N   UNL     1       2.087   6.127  19.757  0.00  0.00    +0.000 NA
ATOM     27  C   UNL     1       2.579   4.899  20.069  0.00  0.00    +0.000 A 
ATOM     28  C   UNL     1       2.156   4.014  21.060  0.00  0.00    +0.000 A 
ATOM     29  C   UNL     1       2.803   2.792  21.230  0.00  0.00    +0.000 A 
ATOM     30  C   UNL     1       3.882   2.460  20.410  0.00  0.00    +0.000 A 
ATOM     31  C   UNL     1       4.327   3.340  19.420  0.00  0.00    +0.000 A 
ATOM     32  C   UNL     1       3.649   4.557  19.270  0.00  0.00    +0.000 A 
ATOM     33  H   UNL     1       3.185   8.035  17.318  0.00  0.00    +0.000 HD
BRANCH  21  34
ATOM     34  C   UNL     1       4.821   5.771  17.425  0.00  0.00    +0.000 C 
BRANCH  34  36
ATOM     35  C   UNL     1       6.068   4.074  15.991  0.00  0.00    +0.000 C 
ATOM     36  C   UNL     1       4.747   4.771  16.268  0.00  0.00    +0.000 C 
ENDBRANCH  34  36
ENDBRANCH  21  34
ENDBRANCH  20  24
ENDBRANCH   1  20
TORSDOF 5
ENDMDL
MODEL 5
REMARK VINA RESULT:      -9.0      2.241      3.722
REMARK  Name = 
REMARK  6 active torsions:
REMARK  status: ('A' for Active; 'I' for Inactive)
REMARK    1  A    between atoms: C_1  and  C_2
REMARK    2  A    between atoms: C_2  and  C_3
REMARK    3  A    between atoms: C_3  and  N_4
REMARK    4  A    between atoms: C_7  and  C_9
REMARK    5  A    between atoms: C_9  and  S_10
REMARK    6  A    between atoms: S_10  and  C_11
REMARK                            x       y       z     vdW  Elec       q    Type
REMARK                         _______ _______ _______ _____ _____    ______ ____
ROOT
ATOM      1  S   UNL     1       1.569  11.465  18.841  0.00  0.00    +0.000 S 
ENDROOT
BRANCH   1   2
ATOM      2  C   UNL     1      -0.067  11.301  19.504  0.00  0.00    +0.000 A 
ATOM      3  C   UNL     1      -1.262  11.306  18.786  0.00  0.00    +0.000 A 
ATOM      4  C   UNL     1      -2.433  11.906  19.317  0.00  0.00    +0.000 A 
ATOM      5  C   UNL     1      -2.398  12.553  20.557  0.00  0.00    +0.000 A 
ATOM      6  C   UNL     1      -1.266  12.217  21.340  0.00  0.00    +0.000 A 
ATOM      7  C   UNL     1      -1.351  12.317  22.697  0.00  0.00    +0.000 A 
ATOM      8  C   UNL     1      -1.483  11.091  23.301  0.00  0.00    +0.000 A 
ATOM      9  C   UNL     1      -0.687  10.090  22.790  0.00  0.00    +0.000 A 
ATOM     10  C   UNL     1       0.230  10.456  21.799  0.00  0.00    +0.000 A 
ATOM     11  C   UNL     1      -0.232  11.419  20.884  0.00  0.00    +0.000 A 
ATOM     12  C   UNL     1      -2.046  13.481  23.170  0.00  0.00    +0.000 C 
ATOM     13  O   UNL     1      -1.491  14.377  23.783  0.00  0.00    +0.000 OA
ATOM     14  C   UNL     1      -3.382  13.576  22.634  0.00  0.00    +0.000 A 
ATOM     15  C   UNL     1      -4.379  13.958  23.516  0.00  0.00    +0.000 A 
ATOM     16  C   UNL     1      -5.632  14.163  22.995  0.00  0.00    +0.000 A 
ATOM     17  C   UNL     1      -5.814  14.043  21.612  0.00  0.00    +0.000 A 
ATOM     18  C   UNL     1      -4.794  13.571  20.749  0.00  0.00    +0.000 A 
ATOM     19  C   UNL     1      -3.546  13.241  21.264  0.00  0.00    +0.000 A 
ENDBRANCH   1   2
BRANCH   1  20
ATOM     20  C   UNL     1       1.839   9.966  17.854  0.00  0.00    +0.000 C 
BRANCH  20  24
ATOM     21  N   UNL     1       3.880   5.498  18.067  0.00  0.00    +0.000 N 
ATOM     22  C   UNL     1       2.952   6.428  18.501  0.00  0.00    +0.000 A 
ATOM     23  N   UNL     1       2.759   7.685  17.945  0.00  0.00    +0.000 N 
ATOM     24  C   UNL     1       2.002   8.634  18.577  0.00  0.00    +0.000 C 
ATOM     25  O   UNL     1       1.484   8.540  19.697  0.00  0.00    +0.000 OA
ATOM     26  N   UNL     1       2.296   5.955  19.538  0.00  0.00    +0.000 NA
ATOM     27  C   UNL     1       2.826   4.732  19.803  0.00  0.00    +0.000 A 
ATOM     28  C   UNL     1       2.489   3.834  20.815  0.00  0.00    +0.000 A 
ATOM     29  C   UNL     1       3.162   2.620  20.927  0.00  0.00    +0.000 A 
ATOM     30  C   UNL     1       4.183   2.308  20.027  0.00  0.00    +0.000 A 
ATOM     31  C   UNL     1       4.542   3.202  19.015  0.00  0.00    +0.000 A 
ATOM     32  C   UNL     1       3.839   4.410  18.925  0.00  0.00    +0.000 A 
ATOM     33  H   UNL     1       3.187   7.896  17.041  0.00  0.00    +0.000 HD
BRANCH  21  34
ATOM     34  C   UNL     1       4.856   5.654  17.009  0.00  0.00    +0.000 C 
BRANCH  34  36
ATOM     35  C   UNL     1       7.135   5.823  18.135  0.00  0.00    +0.000 C 
ATOM     36  C   UNL     1       6.046   6.550  17.364  0.00  0.00    +0.000 C 
ENDBRANCH  34  36
ENDBRANCH  21  34
ENDBRANCH  20  24
ENDBRANCH   1  20
TORSDOF 5
ENDMDL
MODEL 6
REMARK VINA RESULT:      -9.0      3.824      4.653
REMARK  Name = 
REMARK  6 active torsions:
REMARK  status: ('A' for Active; 'I' for Inactive)
REMARK    1  A    between atoms: C_1  and  C_2
REMARK    2  A    between atoms: C_2  and  C_3
REMARK    3  A    between atoms: C_3  and  N_4
REMARK    4  A    between atoms: C_7  and  C_9
REMARK    5  A    between atoms: C_9  and  S_10
REMARK    6  A    between atoms: S_10  and  C_11
REMARK                            x       y       z     vdW  Elec       q    Type
REMARK                         _______ _______ _______ _____ _____    ______ ____
ROOT
ATOM      1  S   UNL     1      -0.630   9.262  19.354  0.00  0.00    +0.000 S 
ENDROOT
BRANCH   1   2
ATOM      2  C   UNL     1      -1.570  10.720  18.994  0.00  0.00    +0.000 A 
ATOM      3  C   UNL     1      -1.482  11.950  19.644  0.00  0.00    +0.000 A 
ATOM      4  C   UNL     1      -2.635  12.749  19.863  0.00  0.00    +0.000 A 
ATOM      5  C   UNL     1      -3.898  12.289  19.472  0.00  0.00    +0.000 A 
ATOM      6  C   UNL     1      -3.851  11.217  18.547  0.00  0.00    +0.000 A 
ATOM      7  C   UNL     1      -4.903  11.031  17.700  0.00  0.00    +0.000 A 
ATOM      8  C   UNL     1      -4.623  11.457  16.425  0.00  0.00    +0.000 A 
ATOM      9  C   UNL     1      -3.369  11.136  15.955  0.00  0.00    +0.000 A 
ATOM     10  C   UNL     1      -2.572  10.333  16.777  0.00  0.00    +0.000 A 
ATOM     11  C   UNL     1      -2.677  10.599  18.155  0.00  0.00    +0.000 A 
ATOM     12  C   UNL     1      -6.195  11.210  18.301  0.00  0.00    +0.000 C 
ATOM     13  O   UNL     1      -6.985  10.293  18.450  0.00  0.00    +0.000 OA
ATOM     14  C   UNL     1      -6.340  12.510  18.909  0.00  0.00    +0.000 A 
ATOM     15  C   UNL     1      -7.547  13.158  18.707  0.00  0.00    +0.000 A 
ATOM     16  C   UNL     1      -7.742  14.342  19.374  0.00  0.00    +0.000 A 
ATOM     17  C   UNL     1      -6.752  14.786  20.259  0.00  0.00    +0.000 A 
ATOM     18  C   UNL     1      -5.496  14.143  20.380  0.00  0.00    +0.000 A 
ATOM     19  C   UNL     1      -5.222  13.007  19.629  0.00  0.00    +0.000 A 
ENDBRANCH   1   2
BRANCH   1  20
ATOM     20  C   UNL     1       1.109   9.772  19.245  0.00  0.00    +0.000 C 
BRANCH  20  24
ATOM     21  N   UNL     1       3.413   5.544  18.251  0.00  0.00    +0.000 N 
ATOM     22  C   UNL     1       3.227   6.900  18.046  0.00  0.00    +0.000 A 
ATOM     23  N   UNL     1       2.360   7.706  18.769  0.00  0.00    +0.000 N 
ATOM     24  C   UNL     1       2.050   8.972  18.352  0.00  0.00    +0.000 C 
ATOM     25  O   UNL     1       2.413   9.512  17.298  0.00  0.00    +0.000 OA
ATOM     26  N   UNL     1       3.976   7.308  17.046  0.00  0.00    +0.000 NA
ATOM     27  C   UNL     1       4.619   6.208  16.573  0.00  0.00    +0.000 A 
ATOM     28  C   UNL     1       5.513   6.109  15.508  0.00  0.00    +0.000 A 
ATOM     29  C   UNL     1       6.066   4.876  15.170  0.00  0.00    +0.000 A 
ATOM     30  C   UNL     1       5.715   3.737  15.897  0.00  0.00    +0.000 A 
ATOM     31  C   UNL     1       4.812   3.816  16.959  0.00  0.00    +0.000 A 
ATOM     32  C   UNL     1       4.281   5.073  17.278  0.00  0.00    +0.000 A 
ATOM     33  H   UNL     1       1.953   7.344  19.635  0.00  0.00    +0.000 HD
BRANCH  21  34
ATOM     34  C   UNL     1       2.721   4.692  19.195  0.00  0.00    +0.000 C 
BRANCH  34  36
ATOM     35  C   UNL     1       1.619   2.508  18.484  0.00  0.00    +0.000 C 
ATOM     36  C   UNL     1       1.466   4.012  18.642  0.00  0.00    +0.000 C 
ENDBRANCH  34  36
ENDBRANCH  21  34
ENDBRANCH  20  24
ENDBRANCH   1  20
TORSDOF 5
ENDMDL
MODEL 7
REMARK VINA RESULT:      -8.9      7.394      8.563
REMARK  Name = 
REMARK  6 active torsions:
REMARK  status: ('A' for Active; 'I' for Inactive)
REMARK    1  A    between atoms: C_1  and  C_2
REMARK    2  A    between atoms: C_2  and  C_3
REMARK    3  A    between atoms: C_3  and  N_4
REMARK    4  A    between atoms: C_7  and  C_9
REMARK    5  A    between atoms: C_9  and  S_10
REMARK    6  A    between atoms: S_10  and  C_11
REMARK                            x       y       z     vdW  Elec       q    Type
REMARK                         _______ _______ _______ _____ _____    ______ ____
ROOT
ATOM      1  S   UNL     1       8.210   9.050  18.199  0.00  0.00    +0.000 S 
ENDROOT
BRANCH   1   2
ATOM      2  C   UNL     1       9.084  10.311  19.086  0.00  0.00    +0.000 A 
ATOM      3  C   UNL     1       9.203  10.427  20.471  0.00  0.00    +0.000 A 
ATOM      4  C   UNL     1       9.210  11.698  21.102  0.00  0.00    +0.000 A 
ATOM      5  C   UNL     1       9.048  12.865  20.346  0.00  0.00    +0.000 A 
ATOM      6  C   UNL     1       9.267  12.677  18.959  0.00  0.00    +0.000 A 
ATOM      7  C   UNL     1       9.667  13.741  18.205  0.00  0.00    +0.000 A 
ATOM      8  C   UNL     1      11.003  13.681  17.893  0.00  0.00    +0.000 A 
ATOM      9  C   UNL     1      11.472  12.439  17.531  0.00  0.00    +0.000 A 
ATOM     10  C   UNL     1      10.528  11.413  17.422  0.00  0.00    +0.000 A 
ATOM     11  C   UNL     1       9.501  11.441  18.384  0.00  0.00    +0.000 A 
ATOM     12  C   UNL     1       9.008  14.977  18.516  0.00  0.00    +0.000 C 
ATOM     13  O   UNL     1       8.251  15.535  17.740  0.00  0.00    +0.000 OA
ATOM     14  C   UNL     1       9.151  15.340  19.906  0.00  0.00    +0.000 A 
ATOM     15  C   UNL     1       9.420  16.671  20.175  0.00  0.00    +0.000 A 
ATOM     16  C   UNL     1       9.444  17.051  21.494  0.00  0.00    +0.000 A 
ATOM     17  C   UNL     1       9.135  16.100  22.474  0.00  0.00    +0.000 A 
ATOM     18  C   UNL     1       8.946  14.729  22.170  0.00  0.00    +0.000 A 
ATOM     19  C   UNL     1       9.031  14.290  20.855  0.00  0.00    +0.000 A 
ENDBRANCH   1   2
BRANCH   1  20
ATOM     20  C   UNL     1       8.723   7.484  18.960  0.00  0.00    +0.000 C 
BRANCH  20  24
ATOM     21  N   UNL     1       4.881   4.999  17.162  0.00  0.00    +0.000 N 
ATOM     22  C   UNL     1       5.732   5.328  18.202  0.00  0.00    +0.000 A 
ATOM     23  N   UNL     1       6.737   6.282  18.143  0.00  0.00    +0.000 N 
ATOM     24  C   UNL     1       7.688   6.377  19.122  0.00  0.00    +0.000 C 
ATOM     25  O   UNL     1       7.824   5.623  20.094  0.00  0.00    +0.000 OA
ATOM     26  N   UNL     1       5.464   4.582  19.252  0.00  0.00    +0.000 NA
ATOM     27  C   UNL     1       4.465   3.739  18.880  0.00  0.00    +0.000 A 
ATOM     28  C   UNL     1       3.839   2.742  19.627  0.00  0.00    +0.000 A 
ATOM     29  C   UNL     1       2.829   1.969  19.058  0.00  0.00    +0.000 A 
ATOM     30  C   UNL     1       2.451   2.192  17.733  0.00  0.00    +0.000 A 
ATOM     31  C   UNL     1       3.075   3.179  16.966  0.00  0.00    +0.000 A 
ATOM     32  C   UNL     1       4.081   3.944  17.572  0.00  0.00    +0.000 A 
ATOM     33  H   UNL     1       6.756   6.930  17.352  0.00  0.00    +0.000 HD
BRANCH  21  34
ATOM     34  C   UNL     1       4.895   5.524  15.813  0.00  0.00    +0.000 C 
BRANCH  34  36
ATOM     35  C   UNL     1       7.003   4.676  14.661  0.00  0.00    +0.000 C 
ATOM     36  C   UNL     1       5.490   4.579  14.765  0.00  0.00    +0.000 C 
ENDBRANCH  34  36
ENDBRANCH  21  34
ENDBRANCH  20  24
ENDBRANCH   1  20
TORSDOF 5
ENDMDL
MODEL 8
REMARK VINA RESULT:      -8.8      2.785      4.164
REMARK  Name = 
REMARK  6 active torsions:
REMARK  status: ('A' for Active; 'I' for Inactive)
REMARK    1  A    between atoms: C_1  and  C_2
REMARK    2  A    between atoms: C_2  and  C_3
REMARK    3  A    between atoms: C_3  and  N_4
REMARK    4  A    between atoms: C_7  and  C_9
REMARK    5  A    between atoms: C_9  and  S_10
REMARK    6  A    between atoms: S_10  and  C_11
REMARK                            x       y       z     vdW  Elec       q    Type
REMARK                         _______ _______ _______ _____ _____    ______ ____
ROOT
ATOM      1  S   UNL     1       1.265  11.561  18.842  0.00  0.00    +0.000 S 
ENDROOT
BRANCH   1   2
ATOM      2  C   UNL     1      -0.408  11.203  19.301  0.00  0.00    +0.000 A 
ATOM      3  C   UNL     1      -1.342  10.486  18.554  0.00  0.00    +0.000 A 
ATOM      4  C   UNL     1      -2.715  10.846  18.555  0.00  0.00    +0.000 A 
ATOM      5  C   UNL     1      -3.152  11.967  19.270  0.00  0.00    +0.000 A 
ATOM      6  C   UNL     1      -2.222  12.421  20.238  0.00  0.00    +0.000 A 
ATOM      7  C   UNL     1      -2.681  13.107  21.323  0.00  0.00    +0.000 A 
ATOM      8  C   UNL     1      -2.693  12.333  22.458  0.00  0.00    +0.000 A 
ATOM      9  C   UNL     1      -1.589  11.531  22.639  0.00  0.00    +0.000 A 
ATOM     10  C   UNL     1      -0.548  11.669  21.716  0.00  0.00    +0.000 A 
ATOM     11  C   UNL     1      -0.953  11.888  20.386  0.00  0.00    +0.000 A 
ATOM     12  C   UNL     1      -3.716  14.060  21.035  0.00  0.00    +0.000 C 
ATOM     13  O   UNL     1      -3.554  15.263  21.150  0.00  0.00    +0.000 OA
ATOM     14  C   UNL     1      -4.850  13.455  20.380  0.00  0.00    +0.000 A 
ATOM     15  C   UNL     1      -6.103  13.855  20.813  0.00  0.00    +0.000 A 
ATOM     16  C   UNL     1      -7.188  13.376  20.121  0.00  0.00    +0.000 A 
ATOM     17  C   UNL     1      -6.967  12.575  18.994  0.00  0.00    +0.000 A 
ATOM     18  C   UNL     1      -5.677  12.117  18.628  0.00  0.00    +0.000 A 
ATOM     19  C   UNL     1      -4.569  12.490  19.378  0.00  0.00    +0.000 A 
ENDBRANCH   1   2
BRANCH   1  20
ATOM     20  C   UNL     1       1.846  10.088  17.954  0.00  0.00    +0.000 C 
BRANCH  20  24
ATOM     21  N   UNL     1       3.600   5.504  18.229  0.00  0.00    +0.000 N 
ATOM     22  C   UNL     1       2.756   6.507  18.672  0.00  0.00    +0.000 A 
ATOM     23  N   UNL     1       2.619   7.755  18.083  0.00  0.00    +0.000 N 
ATOM     24  C   UNL     1       1.956   8.772  18.714  0.00  0.00    +0.000 C 
ATOM     25  O   UNL     1       1.486   8.748  19.859  0.00  0.00    +0.000 OA
ATOM     26  N   UNL     1       2.120   6.112  19.753  0.00  0.00    +0.000 NA
ATOM     27  C   UNL     1       2.581   4.865  20.036  0.00  0.00    +0.000 A 
ATOM     28  C   UNL     1       2.234   4.024  21.092  0.00  0.00    +0.000 A 
ATOM     29  C   UNL     1       2.831   2.771  21.216  0.00  0.00    +0.000 A 
ATOM     30  C   UNL     1       3.786   2.365  20.283  0.00  0.00    +0.000 A 
ATOM     31  C   UNL     1       4.155   3.200  19.226  0.00  0.00    +0.000 A 
ATOM     32  C   UNL     1       3.528   4.449  19.125  0.00  0.00    +0.000 A 
ATOM     33  H   UNL     1       3.017   7.909  17.153  0.00  0.00    +0.000 HD
BRANCH  21  34
ATOM     34  C   UNL     1       4.533   5.562  17.124  0.00  0.00    +0.000 C 
BRANCH  34  36
ATOM     35  C   UNL     1       7.051   5.752  16.782  0.00  0.00    +0.000 C 
ATOM     36  C   UNL     1       5.807   6.364  17.404  0.00  0.00    +0.000 C 
ENDBRANCH  34  36
ENDBRANCH  21  34
ENDBRANCH  20  24
ENDBRANCH   1  20
TORSDOF 5
ENDMDL
MODEL 9
REMARK VINA RESULT:      -8.7      6.808      8.694
REMARK  Name = 
REMARK  6 active torsions:
REMARK  status: ('A' for Active; 'I' for Inactive)
REMARK    1  A    between atoms: C_1  and  C_2
REMARK    2  A    between atoms: C_2  and  C_3
REMARK    3  A    between atoms: C_3  and  N_4
REMARK    4  A    between atoms: C_7  and  C_9
REMARK    5  A    between atoms: C_9  and  S_10
REMARK    6  A    between atoms: S_10  and  C_11
REMARK                            x       y       z     vdW  Elec       q    Type
REMARK                         _______ _______ _______ _____ _____    ______ ____
ROOT
ATOM      1  S   UNL     1       7.931   9.078  17.921  0.00  0.00    +0.000 S 
ENDROOT
BRANCH   1   2
ATOM      2  C   UNL     1       8.935  10.107  18.958  0.00  0.00    +0.000 A 
ATOM      3  C   UNL     1       9.021  10.058  20.348  0.00  0.00    +0.000 A 
ATOM      4  C   UNL     1       9.177  11.242  21.115  0.00  0.00    +0.000 A 
ATOM      5  C   UNL     1       9.198  12.493  20.489  0.00  0.00    +0.000 A 
ATOM      6  C   UNL     1       9.436  12.426  19.094  0.00  0.00    +0.000 A 
ATOM      7  C   UNL     1       9.999  13.499  18.469  0.00  0.00    +0.000 A 
ATOM      8  C   UNL     1      11.326  13.291  18.178  0.00  0.00    +0.000 A 
ATOM      9  C   UNL     1      11.637  12.042  17.691  0.00  0.00    +0.000 A 
ATOM     10  C   UNL     1      10.568  11.172  17.452  0.00  0.00    +0.000 A 
ATOM     11  C   UNL     1       9.523  11.237  18.391  0.00  0.00    +0.000 A 
ATOM     12  C   UNL     1       9.501  14.774  18.902  0.00  0.00    +0.000 C 
ATOM     13  O   UNL     1       8.852  15.509  18.176  0.00  0.00    +0.000 OA
ATOM     14  C   UNL     1       9.645  14.963  20.325  0.00  0.00    +0.000 A 
ATOM     15  C   UNL     1      10.080  16.210  20.744  0.00  0.00    +0.000 A 
ATOM     16  C   UNL     1      10.111  16.441  22.097  0.00  0.00    +0.000 A 
ATOM     17  C   UNL     1       9.645  15.442  22.960  0.00  0.00    +0.000 A 
ATOM     18  C   UNL     1       9.284  14.150  22.505  0.00  0.00    +0.000 A 
ATOM     19  C   UNL     1       9.355  13.846  21.151  0.00  0.00    +0.000 A 
ENDBRANCH   1   2
BRANCH   1  20
ATOM     20  C   UNL     1       8.492   7.381  18.239  0.00  0.00    +0.000 C 
BRANCH  20  24
ATOM     21  N   UNL     1       3.789   5.974  17.979  0.00  0.00    +0.000 N 
ATOM     22  C   UNL     1       5.114   5.722  18.288  0.00  0.00    +0.000 A 
ATOM     23  N   UNL     1       6.142   6.650  18.218  0.00  0.00    +0.000 N 
ATOM     24  C   UNL     1       7.454   6.268  18.301  0.00  0.00    +0.000 C 
ATOM     25  O   UNL     1       7.882   5.108  18.365  0.00  0.00    +0.000 OA
ATOM     26  N   UNL     1       5.260   4.462  18.636  0.00  0.00    +0.000 NA
ATOM     27  C   UNL     1       4.036   3.885  18.512  0.00  0.00    +0.000 A 
ATOM     28  C   UNL     1       3.667   2.560  18.744  0.00  0.00    +0.000 A 
ATOM     29  C   UNL     1       2.347   2.156  18.552  0.00  0.00    +0.000 A 
ATOM     30  C   UNL     1       1.397   3.082  18.117  0.00  0.00    +0.000 A 
ATOM     31  C   UNL     1       1.752   4.409  17.867  0.00  0.00    +0.000 A 
ATOM     32  C   UNL     1       3.085   4.784  18.080  0.00  0.00    +0.000 A 
ATOM     33  H   UNL     1       5.908   7.640  18.110  0.00  0.00    +0.000 HD
BRANCH  21  34
ATOM     34  C   UNL     1       3.221   7.207  17.476  0.00  0.00    +0.000 C 
BRANCH  34  36
ATOM     35  C   UNL     1       1.821   9.285  17.938  0.00  0.00    +0.000 C 
ATOM     36  C   UNL     1       2.444   8.023  18.512  0.00  0.00    +0.000 C 
ENDBRANCH  34  36
ENDBRANCH  21  34
ENDBRANCH  20  24
ENDBRANCH   1  20
TORSDOF 5
ENDMDL
