MODEL 1
REMARK VINA RESULT:      -6.9      0.000      0.000
REMARK  Name = 
REMARK  11 active torsions:
REMARK  status: ('A' for Active; 'I' for Inactive)
REMARK    1  A    between atoms: C_1  and  C_2
REMARK    2  A    between atoms: C_2  and  C_3
REMARK    3  A    between atoms: C_8  and  O_9
REMARK    4  A    between atoms: O_9  and  C_10
REMARK    5  A    between atoms: C_12  and  N_13
REMARK    6  A    between atoms: N_13  and  C_14
REMARK    7  A    between atoms: C_14  and  C_15
REMARK    8  A    between atoms: C_14  and  C_16
REMARK    9  A    between atoms: C_16  and  C_17
REMARK   10  A    between atoms: C_17  and  C_18
REMARK   11  A    between atoms: C_18  and  N_19
REMARK                            x       y       z     vdW  Elec       q    Type
REMARK                         _______ _______ _______ _____ _____    ______ ____
ROOT
ATOM      1  C   UNL     1       2.491   6.724  19.578  0.00  0.00    +0.000 A 
ATOM      2  C   UNL     1       2.400   7.726  18.619  0.00  0.00    +0.000 A 
ATOM      3  C   UNL     1       3.245   7.668  17.520  0.00  0.00    +0.000 A 
ATOM      4  C   UNL     1       4.157   6.616  17.398  0.00  0.00    +0.000 A 
ATOM      5  C   UNL     1       5.007   6.546  16.280  0.00  0.00    +0.000 A 
ATOM      6  C   UNL     1       5.898   5.488  16.142  0.00  0.00    +0.000 A 
ATOM      7  C   UNL     1       5.923   4.496  17.114  0.00  0.00    +0.000 A 
ATOM      8  C   UNL     1       5.120   4.571  18.268  0.00  0.00    +0.000 A 
ATOM      9  C   UNL     1       4.210   5.641  18.418  0.00  0.00    +0.000 A 
ATOM     10  N   UNL     1       3.385   5.705  19.495  0.00  0.00    +0.000 NA
ENDROOT
BRANCH   1  12
ATOM     11  C   UNL     1       1.182   8.188  21.119  0.00  0.00    +0.000 C 
ATOM     12  C   UNL     1       1.604   6.765  20.791  0.00  0.00    +0.000 C 
ENDBRANCH   1  12
BRANCH   6  13
ATOM     13  O   UNL     1       6.685   5.525  15.024  0.00  0.00    +0.000 OA
ATOM     14  C   UNL     1       6.566   4.421  14.130  0.00  0.00    +0.000 C 
ENDBRANCH   6  13
BRANCH   8  15
ATOM     15  N   UNL     1       5.293   3.635  19.314  0.00  0.00    +0.000 N 
ATOM     16  H   UNL     1       5.406   4.121  20.206  0.00  0.00    +0.000 HD
BRANCH  15  17
ATOM     17  C   UNL     1       4.520   2.391  19.337  0.00  0.00    +0.000 C 
ATOM     18  C   UNL     1       3.863   2.242  20.714  0.00  0.00    +0.000 C 
BRANCH  17  19
ATOM     19  C   UNL     1       3.422   2.422  18.258  0.00  0.00    +0.000 C 
BRANCH  19  20
ATOM     20  C   UNL     1       2.028   1.997  18.740  0.00  0.00    +0.000 C 
BRANCH  20  21
ATOM     21  C   UNL     1       0.980   3.110  18.801  0.00  0.00    +0.000 C 
BRANCH  21  22
ATOM     22  N   UNL     1       0.498   3.339  20.158  0.00  0.00    +0.000 NA
ATOM     23  H   UNL     1       0.731   2.550  20.757  0.00  0.00    +0.000 HD
ATOM     24  H   UNL     1      -0.522   3.392  20.147  0.00  0.00    +0.000 HD
ENDBRANCH  21  22
ENDBRANCH  20  21
ENDBRANCH  19  20
ENDBRANCH  17  19
ENDBRANCH  15  17
ENDBRANCH   8  15
TORSDOF 8
ENDMDL
MODEL 2
REMARK VINA RESULT:      -6.7      2.114      4.702
REMARK  Name = 
REMARK  11 active torsions:
REMARK  status: ('A' for Active; 'I' for Inactive)
REMARK    1  A    between atoms: C_1  and  C_2
REMARK    2  A    between atoms: C_2  and  C_3
REMARK    3  A    between atoms: C_8  and  O_9
REMARK    4  A    between atoms: O_9  and  C_10
REMARK    5  A    between atoms: C_12  and  N_13
REMARK    6  A    between atoms: N_13  and  C_14
REMARK    7  A    between atoms: C_14  and  C_15
REMARK    8  A    between atoms: C_14  and  C_16
REMARK    9  A    between atoms: C_16  and  C_17
REMARK   10  A    between atoms: C_17  and  C_18
REMARK   11  A    between atoms: C_18  and  N_19
REMARK                            x       y       z     vdW  Elec       q    Type
REMARK                         _______ _______ _______ _____ _____    ______ ____
ROOT
ATOM      1  C   UNL     1       5.397   4.942  15.920  0.00  0.00    +0.000 A 
ATOM      2  C   UNL     1       5.395   6.240  15.423  0.00  0.00    +0.000 A 
ATOM      3  C   UNL     1       4.631   7.197  16.075  0.00  0.00    +0.000 A 
ATOM      4  C   UNL     1       3.888   6.843  17.204  0.00  0.00    +0.000 A 
ATOM      5  C   UNL     1       3.120   7.812  17.875  0.00  0.00    +0.000 A 
ATOM      6  C   UNL     1       2.401   7.471  19.014  0.00  0.00    +0.000 A 
ATOM      7  C   UNL     1       2.465   6.166  19.487  0.00  0.00    +0.000 A 
ATOM      8  C   UNL     1       3.182   5.166  18.804  0.00  0.00    +0.000 A 
ATOM      9  C   UNL     1       3.919   5.502  17.646  0.00  0.00    +0.000 A 
ATOM     10  N   UNL     1       4.664   4.567  17.001  0.00  0.00    +0.000 NA
ENDROOT
BRANCH   1  12
ATOM     11  C   UNL     1       6.001   3.925  13.722  0.00  0.00    +0.000 C 
ATOM     12  C   UNL     1       6.199   3.875  15.228  0.00  0.00    +0.000 C 
ENDBRANCH   1  12
BRANCH   6  13
ATOM     13  O   UNL     1       1.681   8.487  19.580  0.00  0.00    +0.000 OA
ATOM     14  C   UNL     1       1.288   8.303  20.938  0.00  0.00    +0.000 C 
ENDBRANCH   6  13
BRANCH   8  15
ATOM     15  N   UNL     1       3.088   3.817  19.217  0.00  0.00    +0.000 N 
ATOM     16  H   UNL     1       2.974   3.767  20.231  0.00  0.00    +0.000 HD
BRANCH  15  17
ATOM     17  C   UNL     1       2.336   2.844  18.422  0.00  0.00    +0.000 C 
ATOM     18  C   UNL     1       3.102   1.516  18.411  0.00  0.00    +0.000 C 
BRANCH  17  19
ATOM     19  C   UNL     1       0.942   2.614  19.035  0.00  0.00    +0.000 C 
BRANCH  19  20
ATOM     20  C   UNL     1       0.739   3.222  20.429  0.00  0.00    +0.000 C 
BRANCH  20  21
ATOM     21  C   UNL     1       1.416   2.479  21.582  0.00  0.00    +0.000 C 
BRANCH  21  22
ATOM     22  N   UNL     1       2.432   3.293  22.241  0.00  0.00    +0.000 NA
ATOM     23  H   UNL     1       3.228   2.719  22.511  0.00  0.00    +0.000 HD
ATOM     24  H   UNL     1       2.049   3.668  23.109  0.00  0.00    +0.000 HD
ENDBRANCH  21  22
ENDBRANCH  20  21
ENDBRANCH  19  20
ENDBRANCH  17  19
ENDBRANCH  15  17
ENDBRANCH   8  15
TORSDOF 8
ENDMDL
MODEL 3
REMARK VINA RESULT:      -6.7      2.622      5.017
REMARK  Name = 
REMARK  11 active torsions:
REMARK  status: ('A' for Active; 'I' for Inactive)
REMARK    1  A    between atoms: C_1  and  C_2
REMARK    2  A    between atoms: C_2  and  C_3
REMARK    3  A    between atoms: C_8  and  O_9
REMARK    4  A    between atoms: O_9  and  C_10
REMARK    5  A    between atoms: C_12  and  N_13
REMARK    6  A    between atoms: N_13  and  C_14
REMARK    7  A    between atoms: C_14  and  C_15
REMARK    8  A    between atoms: C_14  and  C_16
REMARK    9  A    between atoms: C_16  and  C_17
REMARK   10  A    between atoms: C_17  and  C_18
REMARK   11  A    between atoms: C_18  and  N_19
REMARK                            x       y       z     vdW  Elec       q    Type
REMARK                         _______ _______ _______ _____ _____    ______ ____
ROOT
ATOM      1  C   UNL     1       2.056   8.656  18.749  0.00  0.00    +0.000 A 
ATOM      2  C   UNL     1       1.379   8.550  19.958  0.00  0.00    +0.000 A 
ATOM      3  C   UNL     1       1.416   7.339  20.634  0.00  0.00    +0.000 A 
ATOM      4  C   UNL     1       2.126   6.263  20.094  0.00  0.00    +0.000 A 
ATOM      5  C   UNL     1       2.177   5.037  20.781  0.00  0.00    +0.000 A 
ATOM      6  C   UNL     1       2.904   3.972  20.261  0.00  0.00    +0.000 A 
ATOM      7  C   UNL     1       3.590   4.144  19.066  0.00  0.00    +0.000 A 
ATOM      8  C   UNL     1       3.512   5.343  18.333  0.00  0.00    +0.000 A 
ATOM      9  C   UNL     1       2.777   6.433  18.852  0.00  0.00    +0.000 A 
ATOM     10  N   UNL     1       2.732   7.618  18.192  0.00  0.00    +0.000 NA
ENDROOT
BRANCH   1  12
ATOM     11  C   UNL     1       1.316  11.040  18.768  0.00  0.00    +0.000 C 
ATOM     12  C   UNL     1       2.021   9.948  17.980  0.00  0.00    +0.000 C 
ENDBRANCH   1  12
BRANCH   6  13
ATOM     13  O   UNL     1       2.876   2.824  21.004  0.00  0.00    +0.000 OA
ATOM     14  C   UNL     1       1.659   2.544  21.691  0.00  0.00    +0.000 C 
ENDBRANCH   6  13
BRANCH   8  15
ATOM     15  N   UNL     1       4.083   5.424  17.042  0.00  0.00    +0.000 N 
ATOM     16  H   UNL     1       3.768   6.275  16.571  0.00  0.00    +0.000 HD
BRANCH  15  17
ATOM     17  C   UNL     1       5.473   5.024  16.814  0.00  0.00    +0.000 C 
ATOM     18  C   UNL     1       5.552   4.235  15.502  0.00  0.00    +0.000 C 
BRANCH  17  19
ATOM     19  C   UNL     1       6.378   6.265  16.707  0.00  0.00    +0.000 C 
BRANCH  19  20
ATOM     20  C   UNL     1       7.220   6.562  17.955  0.00  0.00    +0.000 C 
BRANCH  20  21
ATOM     21  C   UNL     1       7.725   5.337  18.720  0.00  0.00    +0.000 C 
BRANCH  21  22
ATOM     22  N   UNL     1       7.825   5.585  20.154  0.00  0.00    +0.000 NA
ATOM     23  H   UNL     1       7.403   6.480  20.390  0.00  0.00    +0.000 HD
ATOM     24  H   UNL     1       8.810   5.661  20.413  0.00  0.00    +0.000 HD
ENDBRANCH  21  22
ENDBRANCH  20  21
ENDBRANCH  19  20
ENDBRANCH  17  19
ENDBRANCH  15  17
ENDBRANCH   8  15
TORSDOF 8
ENDMDL
MODEL 4
REMARK VINA RESULT:      -6.6      1.832      2.794
REMARK  Name = 
REMARK  11 active torsions:
REMARK  status: ('A' for Active; 'I' for Inactive)
REMARK    1  A    between atoms: C_1  and  C_2
REMARK    2  A    between atoms: C_2  and  C_3
REMARK    3  A    between atoms: C_8  and  O_9
REMARK    4  A    between atoms: O_9  and  C_10
REMARK    5  A    between atoms: C_12  and  N_13
REMARK    6  A    between atoms: N_13  and  C_14
REMARK    7  A    between atoms: C_14  and  C_15
REMARK    8  A    between atoms: C_14  and  C_16
REMARK    9  A    between atoms: C_16  and  C_17
REMARK   10  A    between atoms: C_17  and  C_18
REMARK   11  A    between atoms: C_18  and  N_19
REMARK                            x       y       z     vdW  Elec       q    Type
REMARK                         _______ _______ _______ _____ _____    ______ ____
ROOT
ATOM      1  C   UNL     1       0.815   9.058  20.251  0.00  0.00    +0.000 A 
ATOM      2  C   UNL     1       1.094   9.893  19.176  0.00  0.00    +0.000 A 
ATOM      3  C   UNL     1       1.974   9.446  18.201  0.00  0.00    +0.000 A 
ATOM      4  C   UNL     1       2.554   8.180  18.316  0.00  0.00    +0.000 A 
ATOM      5  C   UNL     1       3.438   7.718  17.325  0.00  0.00    +0.000 A 
ATOM      6  C   UNL     1       3.998   6.449  17.421  0.00  0.00    +0.000 A 
ATOM      7  C   UNL     1       3.659   5.643  18.500  0.00  0.00    +0.000 A 
ATOM      8  C   UNL     1       2.819   6.102  19.532  0.00  0.00    +0.000 A 
ATOM      9  C   UNL     1       2.243   7.389  19.444  0.00  0.00    +0.000 A 
ATOM     10  N   UNL     1       1.386   7.834  20.398  0.00  0.00    +0.000 NA
ENDROOT
BRANCH   1  12
ATOM     11  C   UNL     1      -0.634  10.921  21.062  0.00  0.00    +0.000 C 
ATOM     12  C   UNL     1      -0.120   9.517  21.335  0.00  0.00    +0.000 C 
ENDBRANCH   1  12
BRANCH   6  13
ATOM     13  O   UNL     1       4.852   6.105  16.409  0.00  0.00    +0.000 OA
ATOM     14  C   UNL     1       6.244   6.212  16.693  0.00  0.00    +0.000 C 
ENDBRANCH   6  13
BRANCH   8  15
ATOM     15  N   UNL     1       2.631   5.320  20.695  0.00  0.00    +0.000 N 
ATOM     16  H   UNL     1       2.120   5.855  21.400  0.00  0.00    +0.000 HD
BRANCH  15  17
ATOM     17  C   UNL     1       2.309   3.895  20.592  0.00  0.00    +0.000 C 
ATOM     18  C   UNL     1       2.200   3.309  22.004  0.00  0.00    +0.000 C 
BRANCH  17  19
ATOM     19  C   UNL     1       0.968   3.699  19.862  0.00  0.00    +0.000 C 
BRANCH  19  20
ATOM     20  C   UNL     1       0.934   2.529  18.870  0.00  0.00    +0.000 C 
BRANCH  20  21
ATOM     21  C   UNL     1       2.124   2.439  17.912  0.00  0.00    +0.000 C 
BRANCH  21  22
ATOM     22  N   UNL     1       3.047   1.369  18.279  0.00  0.00    +0.000 NA
ATOM     23  H   UNL     1       3.293   0.817  17.461  0.00  0.00    +0.000 HD
ATOM     24  H   UNL     1       2.578   0.729  18.921  0.00  0.00    +0.000 HD
ENDBRANCH  21  22
ENDBRANCH  20  21
ENDBRANCH  19  20
ENDBRANCH  17  19
ENDBRANCH  15  17
ENDBRANCH   8  15
TORSDOF 8
ENDMDL
MODEL 5
REMARK VINA RESULT:      -6.5      1.589      2.770
REMARK  Name = 
REMARK  11 active torsions:
REMARK  status: ('A' for Active; 'I' for Inactive)
REMARK    1  A    between atoms: C_1  and  C_2
REMARK    2  A    between atoms: C_2  and  C_3
REMARK    3  A    between atoms: C_8  and  O_9
REMARK    4  A    between atoms: O_9  and  C_10
REMARK    5  A    between atoms: C_12  and  N_13
REMARK    6  A    between atoms: N_13  and  C_14
REMARK    7  A    between atoms: C_14  and  C_15
REMARK    8  A    between atoms: C_14  and  C_16
REMARK    9  A    between atoms: C_16  and  C_17
REMARK   10  A    between atoms: C_17  and  C_18
REMARK   11  A    between atoms: C_18  and  N_19
REMARK                            x       y       z     vdW  Elec       q    Type
REMARK                         _______ _______ _______ _____ _____    ______ ____
ROOT
ATOM      1  C   UNL     1       1.076   9.007  20.017  0.00  0.00    +0.000 A 
ATOM      2  C   UNL     1       1.327   9.684  18.830  0.00  0.00    +0.000 A 
ATOM      3  C   UNL     1       2.154   9.086  17.889  0.00  0.00    +0.000 A 
ATOM      4  C   UNL     1       2.708   7.829  18.149  0.00  0.00    +0.000 A 
ATOM      5  C   UNL     1       3.537   7.213  17.195  0.00  0.00    +0.000 A 
ATOM      6  C   UNL     1       4.070   5.953  17.438  0.00  0.00    +0.000 A 
ATOM      7  C   UNL     1       3.758   5.307  18.627  0.00  0.00    +0.000 A 
ATOM      8  C   UNL     1       2.975   5.924  19.621  0.00  0.00    +0.000 A 
ATOM      9  C   UNL     1       2.427   7.204  19.384  0.00  0.00    +0.000 A 
ATOM     10  N   UNL     1       1.622   7.797  20.304  0.00  0.00    +0.000 NA
ENDROOT
BRANCH   1  12
ATOM     11  C   UNL     1       0.639   9.229  22.465  0.00  0.00    +0.000 C 
ATOM     12  C   UNL     1       0.200   9.633  21.067  0.00  0.00    +0.000 C 
ENDBRANCH   1  12
BRANCH   6  13
ATOM     13  O   UNL     1       4.871   5.453  16.448  0.00  0.00    +0.000 OA
ATOM     14  C   UNL     1       5.464   4.181  16.697  0.00  0.00    +0.000 C 
ENDBRANCH   6  13
BRANCH   8  15
ATOM     15  N   UNL     1       2.818   5.309  20.885  0.00  0.00    +0.000 N 
ATOM     16  H   UNL     1       2.823   6.016  21.623  0.00  0.00    +0.000 HD
BRANCH  15  17
ATOM     17  C   UNL     1       1.896   4.184  21.059  0.00  0.00    +0.000 C 
ATOM     18  C   UNL     1       0.771   4.303  20.025  0.00  0.00    +0.000 C 
BRANCH  17  19
ATOM     19  C   UNL     1       2.634   2.849  20.846  0.00  0.00    +0.000 C 
BRANCH  19  20
ATOM     20  C   UNL     1       2.202   2.061  19.602  0.00  0.00    +0.000 C 
BRANCH  20  21
ATOM     21  C   UNL     1       3.325   1.684  18.634  0.00  0.00    +0.000 C 
BRANCH  21  22
ATOM     22  N   UNL     1       4.623   1.609  19.298  0.00  0.00    +0.000 NA
ATOM     23  H   UNL     1       5.232   0.954  18.813  0.00  0.00    +0.000 HD
ATOM     24  H   UNL     1       4.496   1.233  20.238  0.00  0.00    +0.000 HD
ENDBRANCH  21  22
ENDBRANCH  20  21
ENDBRANCH  19  20
ENDBRANCH  17  19
ENDBRANCH  15  17
ENDBRANCH   8  15
TORSDOF 8
ENDMDL
MODEL 6
REMARK VINA RESULT:      -6.5      1.139      1.361
REMARK  Name = 
REMARK  11 active torsions:
REMARK  status: ('A' for Active; 'I' for Inactive)
REMARK    1  A    between atoms: C_1  and  C_2
REMARK    2  A    between atoms: C_2  and  C_3
REMARK    3  A    between atoms: C_8  and  O_9
REMARK    4  A    between atoms: O_9  and  C_10
REMARK    5  A    between atoms: C_12  and  N_13
REMARK    6  A    between atoms: N_13  and  C_14
REMARK    7  A    between atoms: C_14  and  C_15
REMARK    8  A    between atoms: C_14  and  C_16
REMARK    9  A    between atoms: C_16  and  C_17
REMARK   10  A    between atoms: C_17  and  C_18
REMARK   11  A    between atoms: C_18  and  N_19
REMARK                            x       y       z     vdW  Elec       q    Type
REMARK                         _______ _______ _______ _____ _____    ______ ____
ROOT
ATOM      1  C   UNL     1       1.957   7.712  19.855  0.00  0.00    +0.000 A 
ATOM      2  C   UNL     1       1.978   8.601  18.787  0.00  0.00    +0.000 A 
ATOM      3  C   UNL     1       2.774   8.301  17.691  0.00  0.00    +0.000 A 
ATOM      4  C   UNL     1       3.527   7.124  17.680  0.00  0.00    +0.000 A 
ATOM      5  C   UNL     1       4.326   6.809  16.566  0.00  0.00    +0.000 A 
ATOM      6  C   UNL     1       5.057   5.627  16.540  0.00  0.00    +0.000 A 
ATOM      7  C   UNL     1       4.973   4.758  17.619  0.00  0.00    +0.000 A 
ATOM      8  C   UNL     1       4.223   5.075  18.768  0.00  0.00    +0.000 A 
ATOM      9  C   UNL     1       3.474   6.273  18.805  0.00  0.00    +0.000 A 
ATOM     10  N   UNL     1       2.699   6.575  19.879  0.00  0.00    +0.000 NA
ENDROOT
BRANCH   1  12
ATOM     11  C   UNL     1       0.284   9.267  20.862  0.00  0.00    +0.000 C 
ATOM     12  C   UNL     1       1.121   8.014  21.067  0.00  0.00    +0.000 C 
ENDBRANCH   1  12
BRANCH   6  13
ATOM     13  O   UNL     1       5.808   5.426  15.414  0.00  0.00    +0.000 OA
ATOM     14  C   UNL     1       6.212   4.085  15.155  0.00  0.00    +0.000 C 
ENDBRANCH   6  13
BRANCH   8  15
ATOM     15  N   UNL     1       4.295   4.248  19.913  0.00  0.00    +0.000 N 
ATOM     16  H   UNL     1       4.213   4.814  20.760  0.00  0.00    +0.000 HD
BRANCH  15  17
ATOM     17  C   UNL     1       3.638   2.939  19.931  0.00  0.00    +0.000 C 
ATOM     18  C   UNL     1       4.656   1.881  20.371  0.00  0.00    +0.000 C 
BRANCH  17  19
ATOM     19  C   UNL     1       2.460   2.945  20.923  0.00  0.00    +0.000 C 
BRANCH  19  20
ATOM     20  C   UNL     1       1.099   3.304  20.311  0.00  0.00    +0.000 C 
BRANCH  20  21
ATOM     21  C   UNL     1       0.993   3.146  18.793  0.00  0.00    +0.000 C 
BRANCH  21  22
ATOM     22  N   UNL     1       0.389   1.874  18.412  0.00  0.00    +0.000 NA
ATOM     23  H   UNL     1       0.530   1.696  17.421  0.00  0.00    +0.000 HD
ATOM     24  H   UNL     1      -0.622   1.930  18.547  0.00  0.00    +0.000 HD
ENDBRANCH  21  22
ENDBRANCH  20  21
ENDBRANCH  19  20
ENDBRANCH  17  19
ENDBRANCH  15  17
ENDBRANCH   8  15
TORSDOF 8
ENDMDL
MODEL 7
REMARK VINA RESULT:      -6.5      1.599      2.256
REMARK  Name = 
REMARK  11 active torsions:
REMARK  status: ('A' for Active; 'I' for Inactive)
REMARK    1  A    between atoms: C_1  and  C_2
REMARK    2  A    between atoms: C_2  and  C_3
REMARK    3  A    between atoms: C_8  and  O_9
REMARK    4  A    between atoms: O_9  and  C_10
REMARK    5  A    between atoms: C_12  and  N_13
REMARK    6  A    between atoms: N_13  and  C_14
REMARK    7  A    between atoms: C_14  and  C_15
REMARK    8  A    between atoms: C_14  and  C_16
REMARK    9  A    between atoms: C_16  and  C_17
REMARK   10  A    between atoms: C_17  and  C_18
REMARK   11  A    between atoms: C_18  and  N_19
REMARK                            x       y       z     vdW  Elec       q    Type
REMARK                         _______ _______ _______ _____ _____    ______ ____
ROOT
ATOM      1  C   UNL     1       1.250   8.602  19.823  0.00  0.00    +0.000 A 
ATOM      2  C   UNL     1       1.577   9.375  18.716  0.00  0.00    +0.000 A 
ATOM      3  C   UNL     1       2.524   8.889  17.825  0.00  0.00    +0.000 A 
ATOM      4  C   UNL     1       3.120   7.646  18.054  0.00  0.00    +0.000 A 
ATOM      5  C   UNL     1       4.071   7.143  17.149  0.00  0.00    +0.000 A 
ATOM      6  C   UNL     1       4.648   5.896  17.359  0.00  0.00    +0.000 A 
ATOM      7  C   UNL     1       4.258   5.150  18.464  0.00  0.00    +0.000 A 
ATOM      8  C   UNL     1       3.349   5.653  19.413  0.00  0.00    +0.000 A 
ATOM      9  C   UNL     1       2.755   6.919  19.209  0.00  0.00    +0.000 A 
ATOM     10  N   UNL     1       1.833   7.403  20.081  0.00  0.00    +0.000 NA
ENDROOT
BRANCH   1  12
ATOM     11  C   UNL     1       0.841   9.195  22.213  0.00  0.00    +0.000 C 
ATOM     12  C   UNL     1       0.242   9.106  20.819  0.00  0.00    +0.000 C 
ENDBRANCH   1  12
BRANCH   6  13
ATOM     13  O   UNL     1       5.568   5.509  16.423  0.00  0.00    +0.000 OA
ATOM     14  C   UNL     1       5.124   4.565  15.453  0.00  0.00    +0.000 C 
ENDBRANCH   6  13
BRANCH   8  15
ATOM     15  N   UNL     1       3.104   4.941  20.610  0.00  0.00    +0.000 N 
ATOM     16  H   UNL     1       2.694   5.561  21.311  0.00  0.00    +0.000 HD
BRANCH  15  17
ATOM     17  C   UNL     1       2.598   3.567  20.570  0.00  0.00    +0.000 C 
ATOM     18  C   UNL     1       2.094   3.185  21.966  0.00  0.00    +0.000 C 
BRANCH  17  19
ATOM     19  C   UNL     1       1.434   3.454  19.568  0.00  0.00    +0.000 C 
BRANCH  19  20
ATOM     20  C   UNL     1       1.487   2.226  18.650  0.00  0.00    +0.000 C 
BRANCH  20  21
ATOM     21  C   UNL     1       2.732   2.112  17.767  0.00  0.00    +0.000 C 
BRANCH  21  22
ATOM     22  N   UNL     1       3.678   1.123  18.273  0.00  0.00    +0.000 NA
ATOM     23  H   UNL     1       4.623   1.351  17.975  0.00  0.00    +0.000 HD
ATOM     24  H   UNL     1       3.463   0.214  17.861  0.00  0.00    +0.000 HD
ENDBRANCH  21  22
ENDBRANCH  20  21
ENDBRANCH  19  20
ENDBRANCH  17  19
ENDBRANCH  15  17
ENDBRANCH   8  15
TORSDOF 8
ENDMDL
MODEL 8
REMARK VINA RESULT:      -6.4      2.371      4.620
REMARK  Name = 
REMARK  11 active torsions:
REMARK  status: ('A' for Active; 'I' for Inactive)
REMARK    1  A    between atoms: C_1  and  C_2
REMARK    2  A    between atoms: C_2  and  C_3
REMARK    3  A    between atoms: C_8  and  O_9
REMARK    4  A    between atoms: O_9  and  C_10
REMARK    5  A    between atoms: C_12  and  N_13
REMARK    6  A    between atoms: N_13  and  C_14
REMARK    7  A    between atoms: C_14  and  C_15
REMARK    8  A    between atoms: C_14  and  C_16
REMARK    9  A    between atoms: C_16  and  C_17
REMARK   10  A    between atoms: C_17  and  C_18
REMARK   11  A    between atoms: C_18  and  N_19
REMARK                            x       y       z     vdW  Elec       q    Type
REMARK                         _______ _______ _______ _____ _____    ______ ____
ROOT
ATOM      1  C   UNL     1       2.541   7.808  18.407  0.00  0.00    +0.000 A 
ATOM      2  C   UNL     1       1.955   7.533  19.637  0.00  0.00    +0.000 A 
ATOM      3  C   UNL     1       2.088   6.256  20.162  0.00  0.00    +0.000 A 
ATOM      4  C   UNL     1       2.803   5.284  19.456  0.00  0.00    +0.000 A 
ATOM      5  C   UNL     1       2.951   3.991  19.989  0.00  0.00    +0.000 A 
ATOM      6  C   UNL     1       3.682   3.030  19.303  0.00  0.00    +0.000 A 
ATOM      7  C   UNL     1       4.276   3.369  18.094  0.00  0.00    +0.000 A 
ATOM      8  C   UNL     1       4.098   4.639  17.513  0.00  0.00    +0.000 A 
ATOM      9  C   UNL     1       3.358   5.626  18.203  0.00  0.00    +0.000 A 
ATOM     10  N   UNL     1       3.218   6.875  17.690  0.00  0.00    +0.000 NA
ENDROOT
BRANCH   1  12
ATOM     11  C   UNL     1       1.125   9.859  18.266  0.00  0.00    +0.000 C 
ATOM     12  C   UNL     1       2.400   9.176  17.799  0.00  0.00    +0.000 C 
ENDBRANCH   1  12
BRANCH   6  13
ATOM     13  O   UNL     1       3.754   1.804  19.907  0.00  0.00    +0.000 OA
ATOM     14  C   UNL     1       4.849   1.600  20.796  0.00  0.00    +0.000 C 
ENDBRANCH   6  13
BRANCH   8  15
ATOM     15  N   UNL     1       4.574   4.895  16.206  0.00  0.00    +0.000 N 
ATOM     16  H   UNL     1       4.443   5.881  15.972  0.00  0.00    +0.000 HD
BRANCH  15  17
ATOM     17  C   UNL     1       5.802   4.261  15.722  0.00  0.00    +0.000 C 
ATOM     18  C   UNL     1       5.756   4.200  14.191  0.00  0.00    +0.000 C 
BRANCH  17  19
ATOM     19  C   UNL     1       7.033   5.078  16.154  0.00  0.00    +0.000 C 
BRANCH  19  20
ATOM     20  C   UNL     1       7.620   4.692  17.519  0.00  0.00    +0.000 C 
BRANCH  20  21
ATOM     21  C   UNL     1       7.601   5.792  18.583  0.00  0.00    +0.000 C 
BRANCH  21  22
ATOM     22  N   UNL     1       6.899   5.376  19.792  0.00  0.00    +0.000 NA
ATOM     23  H   UNL     1       6.600   4.407  19.715  0.00  0.00    +0.000 HD
ATOM     24  H   UNL     1       6.045   5.927  19.890  0.00  0.00    +0.000 HD
ENDBRANCH  21  22
ENDBRANCH  20  21
ENDBRANCH  19  20
ENDBRANCH  17  19
ENDBRANCH  15  17
ENDBRANCH   8  15
TORSDOF 8
ENDMDL
MODEL 9
REMARK VINA RESULT:      -6.4      2.193      4.928
REMARK  Name = 
REMARK  11 active torsions:
REMARK  status: ('A' for Active; 'I' for Inactive)
REMARK    1  A    between atoms: C_1  and  C_2
REMARK    2  A    between atoms: C_2  and  C_3
REMARK    3  A    between atoms: C_8  and  O_9
REMARK    4  A    between atoms: O_9  and  C_10
REMARK    5  A    between atoms: C_12  and  N_13
REMARK    6  A    between atoms: N_13  and  C_14
REMARK    7  A    between atoms: C_14  and  C_15
REMARK    8  A    between atoms: C_14  and  C_16
REMARK    9  A    between atoms: C_16  and  C_17
REMARK   10  A    between atoms: C_17  and  C_18
REMARK   11  A    between atoms: C_18  and  N_19
REMARK                            x       y       z     vdW  Elec       q    Type
REMARK                         _______ _______ _______ _____ _____    ______ ____
ROOT
ATOM      1  C   UNL     1       2.293   3.666  19.701  0.00  0.00    +0.000 A 
ATOM      2  C   UNL     1       3.428   2.872  19.590  0.00  0.00    +0.000 A 
ATOM      3  C   UNL     1       4.541   3.395  18.948  0.00  0.00    +0.000 A 
ATOM      4  C   UNL     1       4.502   4.694  18.434  0.00  0.00    +0.000 A 
ATOM      5  C   UNL     1       5.632   5.233  17.793  0.00  0.00    +0.000 A 
ATOM      6  C   UNL     1       5.606   6.533  17.304  0.00  0.00    +0.000 A 
ATOM      7  C   UNL     1       4.457   7.295  17.472  0.00  0.00    +0.000 A 
ATOM      8  C   UNL     1       3.296   6.761  18.062  0.00  0.00    +0.000 A 
ATOM      9  C   UNL     1       3.310   5.441  18.565  0.00  0.00    +0.000 A 
ATOM     10  N   UNL     1       2.221   4.922  19.188  0.00  0.00    +0.000 NA
ENDROOT
BRANCH   1  12
ATOM     11  C   UNL     1       1.387   2.554  21.743  0.00  0.00    +0.000 C 
ATOM     12  C   UNL     1       1.062   3.126  20.373  0.00  0.00    +0.000 C 
ENDBRANCH   1  12
BRANCH   6  13
ATOM     13  O   UNL     1       6.754   6.952  16.689  0.00  0.00    +0.000 OA
ATOM     14  C   UNL     1       7.639   7.746  17.475  0.00  0.00    +0.000 C 
ENDBRANCH   6  13
BRANCH   8  15
ATOM     15  N   UNL     1       2.094   7.507  18.064  0.00  0.00    +0.000 N 
ATOM     16  H   UNL     1       1.292   6.882  17.957  0.00  0.00    +0.000 HD
BRANCH  15  17
ATOM     17  C   UNL     1       1.923   8.644  18.970  0.00  0.00    +0.000 C 
ATOM     18  C   UNL     1       0.902   9.612  18.363  0.00  0.00    +0.000 C 
BRANCH  17  19
ATOM     19  C   UNL     1       1.407   8.166  20.340  0.00  0.00    +0.000 C 
BRANCH  19  20
ATOM     20  C   UNL     1       1.173   9.279  21.370  0.00  0.00    +0.000 C 
BRANCH  20  21
ATOM     21  C   UNL     1      -0.070   9.120  22.248  0.00  0.00    +0.000 C 
BRANCH  21  22
ATOM     22  N   UNL     1       0.067   9.808  23.527  0.00  0.00    +0.000 NA
ATOM     23  H   UNL     1      -0.712   9.579  24.139  0.00  0.00    +0.000 HD
ATOM     24  H   UNL     1       0.018  10.816  23.372  0.00  0.00    +0.000 HD
ENDBRANCH  21  22
ENDBRANCH  20  21
ENDBRANCH  19  20
ENDBRANCH  17  19
ENDBRANCH  15  17
ENDBRANCH   8  15
TORSDOF 8
ENDMDL
