MODEL 1
REMARK VINA RESULT:      -8.1      0.000      0.000
REMARK  Name = 
REMARK  4 active torsions:
REMARK  status: ('A' for Active; 'I' for Inactive)
REMARK    1  A    between atoms: C_1  and  C_2
REMARK    2  A    between atoms: C_5  and  N_6
REMARK    3  A    between atoms: C_8  and  C_9
REMARK    4  A    between atoms: C_30  and  C_31
REMARK                            x       y       z     vdW  Elec       q    Type
REMARK                         _______ _______ _______ _____ _____    ______ ____
ROOT
ATOM      1  N   UNL     1      -0.812  11.607  19.234  0.00  0.00    +0.000 N 
ATOM      2  N   UNL     1      -0.438  10.317  19.436  0.00  0.00    +0.000 NA
ATOM      3  C   UNL     1       0.830  10.240  19.015  0.00  0.00    +0.000 A 
ATOM      4  C   UNL     1       1.322  11.528  18.673  0.00  0.00    +0.000 A 
ATOM      5  C   UNL     1       2.540  12.028  18.201  0.00  0.00    +0.000 A 
ATOM      6  N   UNL     1       2.744  13.356  18.060  0.00  0.00    +0.000 NA
ATOM      7  C   UNL     1       1.794  14.227  18.409  0.00  0.00    +0.000 A 
ATOM      8  C   UNL     1       2.093  15.578  18.303  0.00  0.00    +0.000 A 
ATOM      9  C   UNL     1       1.145  16.512  18.672  0.00  0.00    +0.000 A 
ATOM     10  C   UNL     1      -0.073  16.139  19.172  0.00  0.00    +0.000 A 
ATOM     11  C   UNL     1      -0.414  14.818  19.325  0.00  0.00    +0.000 A 
ATOM     12  C   UNL     1       0.511  13.834  18.892  0.00  0.00    +0.000 A 
ATOM     13  C   UNL     1       0.280  12.424  18.939  0.00  0.00    +0.000 A 
ATOM     14  O   UNL     1      -0.856  17.203  19.486  0.00  0.00    +0.000 OA
ATOM     15  C   UNL     1       0.042  18.294  19.201  0.00  0.00    +0.000 C 
ATOM     16  O   UNL     1       1.294  17.864  18.625  0.00  0.00    +0.000 OA
ENDROOT
BRANCH   1  21
ATOM     17  C   UNL     1      -6.446  12.694  19.562  0.00  0.00    +0.000 C 
ATOM     18  C   UNL     1      -4.967  12.438  19.436  0.00  0.00    +0.000 A 
ATOM     19  C   UNL     1      -4.120  12.786  20.497  0.00  0.00    +0.000 A 
ATOM     20  C   UNL     1      -2.744  12.557  20.421  0.00  0.00    +0.000 A 
ATOM     21  C   UNL     1      -2.200  11.925  19.302  0.00  0.00    +0.000 A 
ATOM     22  C   UNL     1      -3.029  11.631  18.211  0.00  0.00    +0.000 A 
ATOM     23  C   UNL     1      -4.413  11.879  18.268  0.00  0.00    +0.000 A 
ATOM     24  C   UNL     1      -5.273  11.541  17.080  0.00  0.00    +0.000 C 
ENDBRANCH   1  21
BRANCH   3  25
ATOM     25  C   UNL     1       1.526   8.946  18.988  0.00  0.00    +0.000 A 
ATOM     26  C   UNL     1       1.541   8.130  20.131  0.00  0.00    +0.000 A 
ATOM     27  C   UNL     1       2.209   6.900  20.122  0.00  0.00    +0.000 A 
ATOM     28  C   UNL     1       2.863   6.487  18.968  0.00  0.00    +0.000 A 
ATOM     29  F   UNL     1       3.505   5.311  18.958  0.00  0.00    +0.000 F 
ATOM     30  C   UNL     1       2.869   7.280  17.825  0.00  0.00    +0.000 A 
ATOM     31  C   UNL     1       2.208   8.511  17.840  0.00  0.00    +0.000 A 
ENDBRANCH   3  25
TORSDOF 2
ENDMDL
MODEL 2
REMARK VINA RESULT:      -8.0      0.429      1.259
REMARK  Name = 
REMARK  4 active torsions:
REMARK  status: ('A' for Active; 'I' for Inactive)
REMARK    1  A    between atoms: C_1  and  C_2
REMARK    2  A    between atoms: C_5  and  N_6
REMARK    3  A    between atoms: C_8  and  C_9
REMARK    4  A    between atoms: C_30  and  C_31
REMARK                            x       y       z     vdW  Elec       q    Type
REMARK                         _______ _______ _______ _____ _____    ______ ____
ROOT
ATOM      1  N   UNL     1      -0.989  11.563  19.107  0.00  0.00    +0.000 N 
ATOM      2  N   UNL     1      -0.563  10.285  19.274  0.00  0.00    +0.000 NA
ATOM      3  C   UNL     1       0.734  10.292  18.947  0.00  0.00    +0.000 A 
ATOM      4  C   UNL     1       1.182  11.619  18.706  0.00  0.00    +0.000 A 
ATOM      5  C   UNL     1       2.402  12.203  18.352  0.00  0.00    +0.000 A 
ATOM      6  N   UNL     1       2.546  13.545  18.291  0.00  0.00    +0.000 NA
ATOM      7  C   UNL     1       1.527  14.348  18.610  0.00  0.00    +0.000 A 
ATOM      8  C   UNL     1       1.761  15.716  18.592  0.00  0.00    +0.000 A 
ATOM      9  C   UNL     1       0.740  16.582  18.933  0.00  0.00    +0.000 A 
ATOM     10  C   UNL     1      -0.490  16.123  19.321  0.00  0.00    +0.000 A 
ATOM     11  C   UNL     1      -0.770  14.781  19.384  0.00  0.00    +0.000 A 
ATOM     12  C   UNL     1       0.235  13.868  18.974  0.00  0.00    +0.000 A 
ATOM     13  C   UNL     1       0.077  12.447  18.935  0.00  0.00    +0.000 A 
ATOM     14  O   UNL     1      -1.349  17.129  19.627  0.00  0.00    +0.000 OA
ATOM     15  C   UNL     1      -0.492  18.277  19.464  0.00  0.00    +0.000 C 
ATOM     16  O   UNL     1       0.821  17.940  18.964  0.00  0.00    +0.000 OA
ENDROOT
BRANCH   1  21
ATOM     17  C   UNL     1      -6.611  12.747  18.979  0.00  0.00    +0.000 C 
ATOM     18  C   UNL     1      -5.146  12.407  19.051  0.00  0.00    +0.000 A 
ATOM     19  C   UNL     1      -4.527  11.809  17.945  0.00  0.00    +0.000 A 
ATOM     20  C   UNL     1      -3.169  11.486  17.971  0.00  0.00    +0.000 A 
ATOM     21  C   UNL     1      -2.393  11.808  19.086  0.00  0.00    +0.000 A 
ATOM     22  C   UNL     1      -3.015  12.348  20.220  0.00  0.00    +0.000 A 
ATOM     23  C   UNL     1      -4.389  12.655  20.212  0.00  0.00    +0.000 A 
ATOM     24  C   UNL     1      -5.020  13.243  21.446  0.00  0.00    +0.000 C 
ENDBRANCH   1  21
BRANCH   3  25
ATOM     25  C   UNL     1       1.499   9.038  18.910  0.00  0.00    +0.000 A 
ATOM     26  C   UNL     1       1.532   8.199  20.035  0.00  0.00    +0.000 A 
ATOM     27  C   UNL     1       2.263   7.006  20.016  0.00  0.00    +0.000 A 
ATOM     28  C   UNL     1       2.964   6.653  18.870  0.00  0.00    +0.000 A 
ATOM     29  F   UNL     1       3.667   5.513  18.851  0.00  0.00    +0.000 F 
ATOM     30  C   UNL     1       2.954   7.470  17.743  0.00  0.00    +0.000 A 
ATOM     31  C   UNL     1       2.228   8.664  17.769  0.00  0.00    +0.000 A 
ENDBRANCH   3  25
TORSDOF 2
ENDMDL
MODEL 3
REMARK VINA RESULT:      -8.0      1.176      1.949
REMARK  Name = 
REMARK  4 active torsions:
REMARK  status: ('A' for Active; 'I' for Inactive)
REMARK    1  A    between atoms: C_1  and  C_2
REMARK    2  A    between atoms: C_5  and  N_6
REMARK    3  A    between atoms: C_8  and  C_9
REMARK    4  A    between atoms: C_30  and  C_31
REMARK                            x       y       z     vdW  Elec       q    Type
REMARK                         _______ _______ _______ _____ _____    ______ ____
ROOT
ATOM      1  N   UNL     1      -0.713  11.877  20.282  0.00  0.00    +0.000 N 
ATOM      2  N   UNL     1      -0.317  10.580  20.338  0.00  0.00    +0.000 NA
ATOM      3  C   UNL     1       0.773  10.503  19.567  0.00  0.00    +0.000 A 
ATOM      4  C   UNL     1       1.166  11.796  19.126  0.00  0.00    +0.000 A 
ATOM      5  C   UNL     1       2.202  12.298  18.333  0.00  0.00    +0.000 A 
ATOM      6  N   UNL     1       2.377  13.628  18.169  0.00  0.00    +0.000 NA
ATOM      7  C   UNL     1       1.582  14.497  18.799  0.00  0.00    +0.000 A 
ATOM      8  C   UNL     1       1.858  15.848  18.642  0.00  0.00    +0.000 A 
ATOM      9  C   UNL     1       1.072  16.780  19.290  0.00  0.00    +0.000 A 
ATOM     10  C   UNL     1       0.045  16.404  20.113  0.00  0.00    +0.000 A 
ATOM     11  C   UNL     1      -0.257  15.082  20.328  0.00  0.00    +0.000 A 
ATOM     12  C   UNL     1       0.488  14.102  19.623  0.00  0.00    +0.000 A 
ATOM     13  C   UNL     1       0.259  12.693  19.703  0.00  0.00    +0.000 A 
ATOM     14  O   UNL     1      -0.597  17.465  20.666  0.00  0.00    +0.000 OA
ATOM     15  C   UNL     1       0.197  18.556  20.158  0.00  0.00    +0.000 C 
ATOM     16  O   UNL     1       1.222  18.131  19.234  0.00  0.00    +0.000 OA
ENDROOT
BRANCH   1  21
ATOM     17  C   UNL     1      -5.904  13.386  22.235  0.00  0.00    +0.000 C 
ATOM     18  C   UNL     1      -4.549  12.948  21.746  0.00  0.00    +0.000 A 
ATOM     19  C   UNL     1      -4.305  12.888  20.368  0.00  0.00    +0.000 A 
ATOM     20  C   UNL     1      -3.059  12.493  19.876  0.00  0.00    +0.000 A 
ATOM     21  C   UNL     1      -2.017  12.204  20.758  0.00  0.00    +0.000 A 
ATOM     22  C   UNL     1      -2.269  12.199  22.137  0.00  0.00    +0.000 A 
ATOM     23  C   UNL     1      -3.528  12.573  22.642  0.00  0.00    +0.000 A 
ATOM     24  C   UNL     1      -3.759  12.565  24.130  0.00  0.00    +0.000 C 
ENDBRANCH   1  21
BRANCH   3  25
ATOM     25  C   UNL     1       1.412   9.205  19.310  0.00  0.00    +0.000 A 
ATOM     26  C   UNL     1       1.524   8.258  20.340  0.00  0.00    +0.000 A 
ATOM     27  C   UNL     1       2.139   7.022  20.111  0.00  0.00    +0.000 A 
ATOM     28  C   UNL     1       2.643   6.734  18.849  0.00  0.00    +0.000 A 
ATOM     29  F   UNL     1       3.234   5.552  18.628  0.00  0.00    +0.000 F 
ATOM     30  C   UNL     1       2.552   7.657  17.813  0.00  0.00    +0.000 A 
ATOM     31  C   UNL     1       1.944   8.894  18.047  0.00  0.00    +0.000 A 
ENDBRANCH   3  25
TORSDOF 2
ENDMDL
MODEL 4
REMARK VINA RESULT:      -7.9      1.331      1.963
REMARK  Name = 
REMARK  4 active torsions:
REMARK  status: ('A' for Active; 'I' for Inactive)
REMARK    1  A    between atoms: C_1  and  C_2
REMARK    2  A    between atoms: C_5  and  N_6
REMARK    3  A    between atoms: C_8  and  C_9
REMARK    4  A    between atoms: C_30  and  C_31
REMARK                            x       y       z     vdW  Elec       q    Type
REMARK                         _______ _______ _______ _____ _____    ______ ____
ROOT
ATOM      1  N   UNL     1      -0.417  11.759  20.682  0.00  0.00    +0.000 N 
ATOM      2  N   UNL     1      -0.038  10.455  20.679  0.00  0.00    +0.000 NA
ATOM      3  C   UNL     1       0.924  10.361  19.754  0.00  0.00    +0.000 A 
ATOM      4  C   UNL     1       1.269  11.649  19.259  0.00  0.00    +0.000 A 
ATOM      5  C   UNL     1       2.184  12.135  18.321  0.00  0.00    +0.000 A 
ATOM      6  N   UNL     1       2.355  13.462  18.133  0.00  0.00    +0.000 NA
ATOM      7  C   UNL     1       1.677  14.343  18.873  0.00  0.00    +0.000 A 
ATOM      8  C   UNL     1       1.949  15.689  18.676  0.00  0.00    +0.000 A 
ATOM      9  C   UNL     1       1.284  16.633  19.434  0.00  0.00    +0.000 A 
ATOM     10  C   UNL     1       0.384  16.272  20.400  0.00  0.00    +0.000 A 
ATOM     11  C   UNL     1       0.095  14.955  20.658  0.00  0.00    +0.000 A 
ATOM     12  C   UNL     1       0.711  13.965  19.851  0.00  0.00    +0.000 A 
ATOM     13  C   UNL     1       0.472  12.559  19.964  0.00  0.00    +0.000 A 
ATOM     14  O   UNL     1      -0.151  17.343  21.041  0.00  0.00    +0.000 OA
ATOM     15  C   UNL     1       0.577  18.422  20.420  0.00  0.00    +0.000 C 
ATOM     16  O   UNL     1       1.447  17.981  19.355  0.00  0.00    +0.000 OA
ENDROOT
BRANCH   1  21
ATOM     17  C   UNL     1      -5.384  12.978  23.303  0.00  0.00    +0.000 C 
ATOM     18  C   UNL     1      -4.081  12.705  22.600  0.00  0.00    +0.000 A 
ATOM     19  C   UNL     1      -2.975  12.280  23.348  0.00  0.00    +0.000 A 
ATOM     20  C   UNL     1      -1.752  12.009  22.732  0.00  0.00    +0.000 A 
ATOM     21  C   UNL     1      -1.630  12.107  21.345  0.00  0.00    +0.000 A 
ATOM     22  C   UNL     1      -2.711  12.592  20.595  0.00  0.00    +0.000 A 
ATOM     23  C   UNL     1      -3.940  12.890  21.211  0.00  0.00    +0.000 A 
ATOM     24  C   UNL     1      -5.081  13.399  20.371  0.00  0.00    +0.000 C 
ENDBRANCH   1  21
BRANCH   3  25
ATOM     25  C   UNL     1       1.496   9.054  19.406  0.00  0.00    +0.000 A 
ATOM     26  C   UNL     1       1.872   8.779  18.081  0.00  0.00    +0.000 A 
ATOM     27  C   UNL     1       2.410   7.534  17.734  0.00  0.00    +0.000 A 
ATOM     28  C   UNL     1       2.570   6.563  18.714  0.00  0.00    +0.000 A 
ATOM     29  F   UNL     1       3.082   5.370  18.383  0.00  0.00    +0.000 F 
ATOM     30  C   UNL     1       2.199   6.807  20.032  0.00  0.00    +0.000 A 
ATOM     31  C   UNL     1       1.655   8.048  20.374  0.00  0.00    +0.000 A 
ENDBRANCH   3  25
TORSDOF 2
ENDMDL
MODEL 5
REMARK VINA RESULT:      -7.7      3.174      5.267
REMARK  Name = 
REMARK  4 active torsions:
REMARK  status: ('A' for Active; 'I' for Inactive)
REMARK    1  A    between atoms: C_1  and  C_2
REMARK    2  A    between atoms: C_5  and  N_6
REMARK    3  A    between atoms: C_8  and  C_9
REMARK    4  A    between atoms: C_30  and  C_31
REMARK                            x       y       z     vdW  Elec       q    Type
REMARK                         _______ _______ _______ _____ _____    ______ ____
ROOT
ATOM      1  N   UNL     1      -1.727  11.894  20.635  0.00  0.00    +0.000 N 
ATOM      2  N   UNL     1      -0.493  11.338  20.514  0.00  0.00    +0.000 NA
ATOM      3  C   UNL     1      -0.601  10.430  19.538  0.00  0.00    +0.000 A 
ATOM      4  C   UNL     1      -1.882  10.505  18.926  0.00  0.00    +0.000 A 
ATOM      5  C   UNL     1      -2.521   9.826  17.883  0.00  0.00    +0.000 A 
ATOM      6  N   UNL     1      -3.745  10.200  17.450  0.00  0.00    +0.000 NA
ATOM      7  C   UNL     1      -4.356  11.259  17.986  0.00  0.00    +0.000 A 
ATOM      8  C   UNL     1      -5.581  11.631  17.450  0.00  0.00    +0.000 A 
ATOM      9  C   UNL     1      -6.240  12.731  17.962  0.00  0.00    +0.000 A 
ATOM     10  C   UNL     1      -5.698  13.487  18.967  0.00  0.00    +0.000 A 
ATOM     11  C   UNL     1      -4.478  13.184  19.518  0.00  0.00    +0.000 A 
ATOM     12  C   UNL     1      -3.808  12.020  19.060  0.00  0.00    +0.000 A 
ATOM     13  C   UNL     1      -2.559  11.547  19.570  0.00  0.00    +0.000 A 
ATOM     14  O   UNL     1      -6.492  14.530  19.321  0.00  0.00    +0.000 OA
ATOM     15  C   UNL     1      -7.563  14.392  18.366  0.00  0.00    +0.000 C 
ATOM     16  O   UNL     1      -7.439  13.214  17.540  0.00  0.00    +0.000 OA
ENDROOT
BRANCH   1  21
ATOM     17  C   UNL     1      -2.722  14.924  25.415  0.00  0.00    +0.000 C 
ATOM     18  C   UNL     1      -2.508  14.138  24.150  0.00  0.00    +0.000 A 
ATOM     19  C   UNL     1      -1.543  14.569  23.230  0.00  0.00    +0.000 A 
ATOM     20  C   UNL     1      -1.310  13.862  22.049  0.00  0.00    +0.000 A 
ATOM     21  C   UNL     1      -2.002  12.678  21.793  0.00  0.00    +0.000 A 
ATOM     22  C   UNL     1      -3.014  12.272  22.675  0.00  0.00    +0.000 A 
ATOM     23  C   UNL     1      -3.272  12.991  23.857  0.00  0.00    +0.000 A 
ATOM     24  C   UNL     1      -4.360  12.519  24.785  0.00  0.00    +0.000 C 
ENDBRANCH   1  21
BRANCH   3  25
ATOM     25  C   UNL     1       0.531   9.553  19.209  0.00  0.00    +0.000 A 
ATOM     26  C   UNL     1       1.141   9.633  17.948  0.00  0.00    +0.000 A 
ATOM     27  C   UNL     1       2.214   8.797  17.618  0.00  0.00    +0.000 A 
ATOM     28  C   UNL     1       2.677   7.880  18.554  0.00  0.00    +0.000 A 
ATOM     29  F   UNL     1       3.702   7.077  18.240  0.00  0.00    +0.000 F 
ATOM     30  C   UNL     1       2.085   7.776  19.809  0.00  0.00    +0.000 A 
ATOM     31  C   UNL     1       1.009   8.606  20.131  0.00  0.00    +0.000 A 
ENDBRANCH   3  25
TORSDOF 2
ENDMDL
MODEL 6
REMARK VINA RESULT:      -7.6      3.750      6.825
REMARK  Name = 
REMARK  4 active torsions:
REMARK  status: ('A' for Active; 'I' for Inactive)
REMARK    1  A    between atoms: C_1  and  C_2
REMARK    2  A    between atoms: C_5  and  N_6
REMARK    3  A    between atoms: C_8  and  C_9
REMARK    4  A    between atoms: C_30  and  C_31
REMARK                            x       y       z     vdW  Elec       q    Type
REMARK                         _______ _______ _______ _____ _____    ______ ____
ROOT
ATOM      1  N   UNL     1      -0.329  11.979  20.873  0.00  0.00    +0.000 N 
ATOM      2  N   UNL     1      -1.643  11.778  21.149  0.00  0.00    +0.000 NA
ATOM      3  C   UNL     1      -1.964  12.700  22.064  0.00  0.00    +0.000 A 
ATOM      4  C   UNL     1      -0.880  13.597  22.271  0.00  0.00    +0.000 A 
ATOM      5  C   UNL     1      -0.666  14.719  23.076  0.00  0.00    +0.000 A 
ATOM      6  N   UNL     1       0.469  15.445  22.977  0.00  0.00    +0.000 NA
ATOM      7  C   UNL     1       1.399  15.126  22.073  0.00  0.00    +0.000 A 
ATOM      8  C   UNL     1       2.510  15.952  21.978  0.00  0.00    +0.000 A 
ATOM      9  C   UNL     1       3.487  15.669  21.043  0.00  0.00    +0.000 A 
ATOM     10  C   UNL     1       3.371  14.610  20.184  0.00  0.00    +0.000 A 
ATOM     11  C   UNL     1       2.282  13.774  20.214  0.00  0.00    +0.000 A 
ATOM     12  C   UNL     1       1.295  13.998  21.207  0.00  0.00    +0.000 A 
ATOM     13  C   UNL     1       0.133  13.186  21.397  0.00  0.00    +0.000 A 
ATOM     14  O   UNL     1       4.427  14.509  19.335  0.00  0.00    +0.000 OA
ATOM     15  C   UNL     1       5.185  15.677  19.706  0.00  0.00    +0.000 C 
ATOM     16  O   UNL     1       4.624  16.385  20.833  0.00  0.00    +0.000 OA
ENDROOT
BRANCH   1  21
ATOM     17  C   UNL     1       2.322   7.785  17.973  0.00  0.00    +0.000 C 
ATOM     18  C   UNL     1       1.665   8.883  18.765  0.00  0.00    +0.000 A 
ATOM     19  C   UNL     1       1.401  10.111  18.144  0.00  0.00    +0.000 A 
ATOM     20  C   UNL     1       0.786  11.152  18.843  0.00  0.00    +0.000 A 
ATOM     21  C   UNL     1       0.373  10.962  20.162  0.00  0.00    +0.000 A 
ATOM     22  C   UNL     1       0.689   9.760  20.812  0.00  0.00    +0.000 A 
ATOM     23  C   UNL     1       1.330   8.714  20.123  0.00  0.00    +0.000 A 
ATOM     24  C   UNL     1       1.645   7.434  20.851  0.00  0.00    +0.000 C 
ENDBRANCH   1  21
BRANCH   3  25
ATOM     25  C   UNL     1      -3.299  12.707  22.676  0.00  0.00    +0.000 A 
ATOM     26  C   UNL     1      -4.428  13.022  21.903  0.00  0.00    +0.000 A 
ATOM     27  C   UNL     1      -5.705  13.041  22.476  0.00  0.00    +0.000 A 
ATOM     28  C   UNL     1      -5.851  12.745  23.825  0.00  0.00    +0.000 A 
ATOM     29  F   UNL     1      -7.072  12.766  24.377  0.00  0.00    +0.000 F 
ATOM     30  C   UNL     1      -4.749  12.437  24.616  0.00  0.00    +0.000 A 
ATOM     31  C   UNL     1      -3.475  12.427  24.042  0.00  0.00    +0.000 A 
ENDBRANCH   3  25
TORSDOF 2
ENDMDL
MODEL 7
REMARK VINA RESULT:      -7.5      2.996      6.514
REMARK  Name = 
REMARK  4 active torsions:
REMARK  status: ('A' for Active; 'I' for Inactive)
REMARK    1  A    between atoms: C_1  and  C_2
REMARK    2  A    between atoms: C_5  and  N_6
REMARK    3  A    between atoms: C_8  and  C_9
REMARK    4  A    between atoms: C_30  and  C_31
REMARK                            x       y       z     vdW  Elec       q    Type
REMARK                         _______ _______ _______ _____ _____    ______ ____
ROOT
ATOM      1  N   UNL     1      -0.315  11.446  19.164  0.00  0.00    +0.000 N 
ATOM      2  N   UNL     1      -1.652  11.213  19.203  0.00  0.00    +0.000 NA
ATOM      3  C   UNL     1      -2.203  12.345  19.654  0.00  0.00    +0.000 A 
ATOM      4  C   UNL     1      -1.221  13.366  19.770  0.00  0.00    +0.000 A 
ATOM      5  C   UNL     1      -1.231  14.707  20.168  0.00  0.00    +0.000 A 
ATOM      6  N   UNL     1      -0.123  15.474  20.074  0.00  0.00    +0.000 NA
ATOM      7  C   UNL     1       1.003  14.974  19.556  0.00  0.00    +0.000 A 
ATOM      8  C   UNL     1       2.084  15.833  19.425  0.00  0.00    +0.000 A 
ATOM      9  C   UNL     1       3.262  15.363  18.878  0.00  0.00    +0.000 A 
ATOM     10  C   UNL     1       3.379  14.074  18.429  0.00  0.00    +0.000 A 
ATOM     11  C   UNL     1       2.335  13.187  18.508  0.00  0.00    +0.000 A 
ATOM     12  C   UNL     1       1.134  13.620  19.128  0.00  0.00    +0.000 A 
ATOM     13  C   UNL     1      -0.019  12.800  19.329  0.00  0.00    +0.000 A 
ATOM     14  O   UNL     1       4.608  13.811  17.915  0.00  0.00    +0.000 OA
ATOM     15  C   UNL     1       5.228  15.108  18.018  0.00  0.00    +0.000 C 
ATOM     16  O   UNL     1       4.399  16.084  18.685  0.00  0.00    +0.000 OA
ENDROOT
BRANCH   1  21
ATOM     17  C   UNL     1       3.050   6.833  18.513  0.00  0.00    +0.000 C 
ATOM     18  C   UNL     1       2.196   8.055  18.722  0.00  0.00    +0.000 A 
ATOM     19  C   UNL     1       2.081   8.995  17.688  0.00  0.00    +0.000 A 
ATOM     20  C   UNL     1       1.292  10.137  17.841  0.00  0.00    +0.000 A 
ATOM     21  C   UNL     1       0.560  10.331  19.013  0.00  0.00    +0.000 A 
ATOM     22  C   UNL     1       0.718   9.430  20.077  0.00  0.00    +0.000 A 
ATOM     23  C   UNL     1       1.529   8.288  19.940  0.00  0.00    +0.000 A 
ATOM     24  C   UNL     1       1.667   7.339  21.100  0.00  0.00    +0.000 C 
ENDBRANCH   1  21
BRANCH   3  25
ATOM     25  C   UNL     1      -3.645  12.414  19.925  0.00  0.00    +0.000 A 
ATOM     26  C   UNL     1      -4.107  12.804  21.192  0.00  0.00    +0.000 A 
ATOM     27  C   UNL     1      -5.478  12.865  21.466  0.00  0.00    +0.000 A 
ATOM     28  C   UNL     1      -6.388  12.534  20.470  0.00  0.00    +0.000 A 
ATOM     29  F   UNL     1      -7.701  12.589  20.730  0.00  0.00    +0.000 F 
ATOM     30  C   UNL     1      -5.957  12.137  19.208  0.00  0.00    +0.000 A 
ATOM     31  C   UNL     1      -4.587  12.069  18.941  0.00  0.00    +0.000 A 
ENDBRANCH   3  25
TORSDOF 2
ENDMDL
MODEL 8
REMARK VINA RESULT:      -7.5      2.737      5.292
REMARK  Name = 
REMARK  4 active torsions:
REMARK  status: ('A' for Active; 'I' for Inactive)
REMARK    1  A    between atoms: C_1  and  C_2
REMARK    2  A    between atoms: C_5  and  N_6
REMARK    3  A    between atoms: C_8  and  C_9
REMARK    4  A    between atoms: C_30  and  C_31
REMARK                            x       y       z     vdW  Elec       q    Type
REMARK                         _______ _______ _______ _____ _____    ______ ____
ROOT
ATOM      1  N   UNL     1       0.386  12.469  19.865  0.00  0.00    +0.000 N 
ATOM      2  N   UNL     1       0.964  11.453  19.174  0.00  0.00    +0.000 NA
ATOM      3  C   UNL     1       0.833  10.371  19.949  0.00  0.00    +0.000 A 
ATOM      4  C   UNL     1       0.034  10.665  21.087  0.00  0.00    +0.000 A 
ATOM      5  C   UNL     1      -0.424   9.936  22.189  0.00  0.00    +0.000 A 
ATOM      6  N   UNL     1      -1.277  10.481  23.084  0.00  0.00    +0.000 NA
ATOM      7  C   UNL     1      -1.736  11.723  22.910  0.00  0.00    +0.000 A 
ATOM      8  C   UNL     1      -2.662  12.198  23.828  0.00  0.00    +0.000 A 
ATOM      9  C   UNL     1      -3.176  13.471  23.675  0.00  0.00    +0.000 A 
ATOM     10  C   UNL     1      -2.820  14.266  22.620  0.00  0.00    +0.000 A 
ATOM     11  C   UNL     1      -1.929  13.840  21.666  0.00  0.00    +0.000 A 
ATOM     12  C   UNL     1      -1.332  12.564  21.832  0.00  0.00    +0.000 A 
ATOM     13  C   UNL     1      -0.352  12.004  20.953  0.00  0.00    +0.000 A 
ATOM     14  O   UNL     1      -3.442  15.472  22.641  0.00  0.00    +0.000 OA
ATOM     15  C   UNL     1      -4.297  15.315  23.792  0.00  0.00    +0.000 C 
ATOM     16  O   UNL     1      -4.087  14.068  24.489  0.00  0.00    +0.000 OA
ENDROOT
BRANCH   1  21
ATOM     17  C   UNL     1       1.467  17.779  17.949  0.00  0.00    +0.000 C 
ATOM     18  C   UNL     1       1.198  16.402  18.496  0.00  0.00    +0.000 A 
ATOM     19  C   UNL     1      -0.096  15.872  18.410  0.00  0.00    +0.000 A 
ATOM     20  C   UNL     1      -0.383  14.596  18.899  0.00  0.00    +0.000 A 
ATOM     21  C   UNL     1       0.635  13.805  19.433  0.00  0.00    +0.000 A 
ATOM     22  C   UNL     1       1.919  14.349  19.581  0.00  0.00    +0.000 A 
ATOM     23  C   UNL     1       2.212  15.644  19.113  0.00  0.00    +0.000 A 
ATOM     24  C   UNL     1       3.605  16.191  19.281  0.00  0.00    +0.000 C 
ENDBRANCH   1  21
BRANCH   3  25
ATOM     25  C   UNL     1       1.448   9.096  19.556  0.00  0.00    +0.000 A 
ATOM     26  C   UNL     1       1.879   8.899  18.234  0.00  0.00    +0.000 A 
ATOM     27  C   UNL     1       2.458   7.686  17.843  0.00  0.00    +0.000 A 
ATOM     28  C   UNL     1       2.605   6.669  18.778  0.00  0.00    +0.000 A 
ATOM     29  F   UNL     1       3.157   5.506  18.406  0.00  0.00    +0.000 F 
ATOM     30  C   UNL     1       2.181   6.835  20.092  0.00  0.00    +0.000 A 
ATOM     31  C   UNL     1       1.596   8.045  20.476  0.00  0.00    +0.000 A 
ENDBRANCH   3  25
TORSDOF 2
ENDMDL
MODEL 9
REMARK VINA RESULT:      -7.5      2.809      3.465
REMARK  Name = 
REMARK  4 active torsions:
REMARK  status: ('A' for Active; 'I' for Inactive)
REMARK    1  A    between atoms: C_1  and  C_2
REMARK    2  A    between atoms: C_5  and  N_6
REMARK    3  A    between atoms: C_8  and  C_9
REMARK    4  A    between atoms: C_30  and  C_31
REMARK                            x       y       z     vdW  Elec       q    Type
REMARK                         _______ _______ _______ _____ _____    ______ ____
ROOT
ATOM      1  N   UNL     1      -1.072  12.163  21.440  0.00  0.00    +0.000 N 
ATOM      2  N   UNL     1      -0.752  10.917  21.006  0.00  0.00    +0.000 NA
ATOM      3  C   UNL     1       0.470  11.024  20.473  0.00  0.00    +0.000 A 
ATOM      4  C   UNL     1       1.001  12.323  20.696  0.00  0.00    +0.000 A 
ATOM      5  C   UNL     1       2.200  12.969  20.380  0.00  0.00    +0.000 A 
ATOM      6  N   UNL     1       2.463  14.217  20.828  0.00  0.00    +0.000 NA
ATOM      7  C   UNL     1       1.593  14.846  21.622  0.00  0.00    +0.000 A 
ATOM      8  C   UNL     1       1.953  16.098  22.102  0.00  0.00    +0.000 A 
ATOM      9  C   UNL     1       1.091  16.776  22.941  0.00  0.00    +0.000 A 
ATOM     10  C   UNL     1      -0.100  16.230  23.339  0.00  0.00    +0.000 A 
ATOM     11  C   UNL     1      -0.497  14.986  22.918  0.00  0.00    +0.000 A 
ATOM     12  C   UNL     1       0.335  14.292  22.002  0.00  0.00    +0.000 A 
ATOM     13  C   UNL     1       0.034  13.014  21.435  0.00  0.00    +0.000 A 
ATOM     14  O   UNL     1      -0.796  17.047  24.171  0.00  0.00    +0.000 OA
ATOM     15  C   UNL     1       0.132  18.140  24.317  0.00  0.00    +0.000 C 
ATOM     16  O   UNL     1       1.308  18.002  23.489  0.00  0.00    +0.000 OA
ENDROOT
BRANCH   1  21
ATOM     17  C   UNL     1      -6.491  13.425  22.876  0.00  0.00    +0.000 C 
ATOM     18  C   UNL     1      -5.079  13.049  22.516  0.00  0.00    +0.000 A 
ATOM     19  C   UNL     1      -4.661  13.153  21.183  0.00  0.00    +0.000 A 
ATOM     20  C   UNL     1      -3.357  12.821  20.811  0.00  0.00    +0.000 A 
ATOM     21  C   UNL     1      -2.430  12.430  21.779  0.00  0.00    +0.000 A 
ATOM     22  C   UNL     1      -2.855  12.262  23.105  0.00  0.00    +0.000 A 
ATOM     23  C   UNL     1      -4.174  12.572  23.485  0.00  0.00    +0.000 A 
ATOM     24  C   UNL     1      -4.591  12.388  24.920  0.00  0.00    +0.000 C 
ENDBRANCH   1  21
BRANCH   3  25
ATOM     25  C   UNL     1       1.092   9.874  19.802  0.00  0.00    +0.000 A 
ATOM     26  C   UNL     1       1.373   9.927  18.428  0.00  0.00    +0.000 A 
ATOM     27  C   UNL     1       1.957   8.835  17.775  0.00  0.00    +0.000 A 
ATOM     28  C   UNL     1       2.258   7.688  18.499  0.00  0.00    +0.000 A 
ATOM     29  F   UNL     1       2.815   6.641  17.876  0.00  0.00    +0.000 F 
ATOM     30  C   UNL     1       1.984   7.607  19.860  0.00  0.00    +0.000 A 
ATOM     31  C   UNL     1       1.393   8.696  20.507  0.00  0.00    +0.000 A 
ENDBRANCH   3  25
TORSDOF 2
ENDMDL
