MODEL 1
REMARK VINA RESULT:      -7.7      0.000      0.000
REMARK  Name = 
REMARK  8 active torsions:
REMARK  status: ('A' for Active; 'I' for Inactive)
REMARK    1  A    between atoms: C_1  and  C_2
REMARK    2  A    between atoms: C_2  and  C_3
REMARK    3  A    between atoms: C_3  and  C_4
REMARK    4  A    between atoms: C_4  and  C_5
REMARK    5  A    between atoms: C_11  and  C_12
REMARK    6  A    between atoms: C_12  and  O_13
REMARK    7  A    between atoms: O_13  and  C_14
REMARK    8  A    between atoms: C_14  and  C_16
REMARK                            x       y       z     vdW  Elec       q    Type
REMARK                         _______ _______ _______ _____ _____    ______ ____
ROOT
ATOM      1  C   UNL     1       7.629   6.954  18.052  0.00  0.00    +0.000 A 
ATOM      2  N   UNL     1       7.320   6.658  16.831  0.00  0.00    +0.000 NA
ATOM      3  N   UNL     1       6.396   5.642  16.840  0.00  0.00    +0.000 N 
ATOM      4  C   UNL     1       5.876   5.124  15.675  0.00  0.00    +0.000 A 
ATOM      5  O   UNL     1       6.118   5.496  14.533  0.00  0.00    +0.000 OA
ATOM      6  C   UNL     1       4.930   4.011  15.896  0.00  0.00    +0.000 A 
ATOM      7  C   UNL     1       4.651   3.609  17.148  0.00  0.00    +0.000 A 
ATOM      8  N   UNL     1       5.180   4.203  18.280  0.00  0.00    +0.000 NA
ATOM      9  C   UNL     1       6.015   5.164  18.066  0.00  0.00    +0.000 A 
ATOM     10  S   UNL     1       6.831   6.050  19.317  0.00  0.00    +0.000 S 
ENDROOT
BRANCH   1  11
ATOM     11  C   UNL     1       8.641   8.002  18.415  0.00  0.00    +0.000 C 
BRANCH  11  12
ATOM     12  C   UNL     1       8.191   9.377  17.925  0.00  0.00    +0.000 C 
BRANCH  12  14
ATOM     13  C   UNL     1       9.452  10.439  19.824  0.00  0.00    +0.000 C 
ATOM     14  C   UNL     1       9.175  10.474  18.328  0.00  0.00    +0.000 C 
ENDBRANCH  12  14
ENDBRANCH  11  12
ENDBRANCH   1  11
BRANCH   7  15
ATOM     15  C   UNL     1       3.719   2.435  17.372  0.00  0.00    +0.000 C 
BRANCH  15  16
ATOM     16  O   UNL     1       2.355   2.813  17.130  0.00  0.00    +0.000 OA
BRANCH  16  17
ATOM     17  C   UNL     1       1.576   2.897  18.235  0.00  0.00    +0.000 C 
ATOM     18  O   UNL     1       0.832   2.025  18.655  0.00  0.00    +0.000 OA
BRANCH  17  19
ATOM     19  C   UNL     1       1.726   4.228  18.883  0.00  0.00    +0.000 A 
ATOM     20  C   UNL     1       1.559   4.413  20.264  0.00  0.00    +0.000 A 
ATOM     21  C   UNL     1       1.754   5.673  20.833  0.00  0.00    +0.000 A 
ATOM     22  C   UNL     1       2.107   6.755  20.027  0.00  0.00    +0.000 A 
ATOM     23  C   UNL     1       2.253   6.577  18.652  0.00  0.00    +0.000 A 
ATOM     24 CL   UNL     1       2.680   7.918  17.663  0.00  0.00    +0.000 Cl
ATOM     25  C   UNL     1       2.064   5.323  18.076  0.00  0.00    +0.000 A 
ENDBRANCH  17  19
ENDBRANCH  16  17
ENDBRANCH  15  16
ENDBRANCH   7  15
TORSDOF 7
ENDMDL
MODEL 2
REMARK VINA RESULT:      -7.4      4.559      6.966
REMARK  Name = 
REMARK  8 active torsions:
REMARK  status: ('A' for Active; 'I' for Inactive)
REMARK    1  A    between atoms: C_1  and  C_2
REMARK    2  A    between atoms: C_2  and  C_3
REMARK    3  A    between atoms: C_3  and  C_4
REMARK    4  A    between atoms: C_4  and  C_5
REMARK    5  A    between atoms: C_11  and  C_12
REMARK    6  A    between atoms: C_12  and  O_13
REMARK    7  A    between atoms: O_13  and  C_14
REMARK    8  A    between atoms: C_14  and  C_16
REMARK                            x       y       z     vdW  Elec       q    Type
REMARK                         _______ _______ _______ _____ _____    ______ ____
ROOT
ATOM      1  C   UNL     1       0.574  10.477  20.981  0.00  0.00    +0.000 A 
ATOM      2  N   UNL     1       1.005  10.421  19.762  0.00  0.00    +0.000 NA
ATOM      3  N   UNL     1       1.433   9.142  19.501  0.00  0.00    +0.000 N 
ATOM      4  C   UNL     1       1.939   8.783  18.272  0.00  0.00    +0.000 A 
ATOM      5  O   UNL     1       2.039   9.498  17.281  0.00  0.00    +0.000 OA
ATOM      6  C   UNL     1       2.382   7.376  18.205  0.00  0.00    +0.000 A 
ATOM      7  C   UNL     1       2.259   6.584  19.284  0.00  0.00    +0.000 A 
ATOM      8  N   UNL     1       1.702   6.999  20.480  0.00  0.00    +0.000 NA
ATOM      9  C   UNL     1       1.334   8.236  20.523  0.00  0.00    +0.000 A 
ATOM     10  S   UNL     1       0.632   9.001  21.915  0.00  0.00    +0.000 S 
ENDROOT
BRANCH   1  11
ATOM     11  C   UNL     1       0.061  11.737  21.617  0.00  0.00    +0.000 C 
BRANCH  11  12
ATOM     12  C   UNL     1      -0.948  11.411  22.717  0.00  0.00    +0.000 C 
BRANCH  12  14
ATOM     13  C   UNL     1      -3.255  12.279  23.212  0.00  0.00    +0.000 C 
ATOM     14  C   UNL     1      -1.779  12.633  23.104  0.00  0.00    +0.000 C 
ENDBRANCH  12  14
ENDBRANCH  11  12
ENDBRANCH   1  11
BRANCH   7  15
ATOM     15  C   UNL     1       2.760   5.155  19.230  0.00  0.00    +0.000 C 
BRANCH  15  16
ATOM     16  O   UNL     1       4.040   5.038  19.869  0.00  0.00    +0.000 OA
BRANCH  16  17
ATOM     17  C   UNL     1       4.870   4.113  19.330  0.00  0.00    +0.000 C 
ATOM     18  O   UNL     1       5.031   2.972  19.735  0.00  0.00    +0.000 OA
BRANCH  17  19
ATOM     19  C   UNL     1       5.601   4.679  18.164  0.00  0.00    +0.000 A 
ATOM     20  C   UNL     1       6.520   5.732  18.294  0.00  0.00    +0.000 A 
ATOM     21  C   UNL     1       7.216   6.200  17.177  0.00  0.00    +0.000 A 
ATOM     22  C   UNL     1       6.991   5.627  15.926  0.00  0.00    +0.000 A 
ATOM     23  C   UNL     1       6.063   4.595  15.792  0.00  0.00    +0.000 A 
ATOM     24 CL   UNL     1       5.785   3.898  14.244  0.00  0.00    +0.000 Cl
ATOM     25  C   UNL     1       5.367   4.119  16.901  0.00  0.00    +0.000 A 
ENDBRANCH  17  19
ENDBRANCH  16  17
ENDBRANCH  15  16
ENDBRANCH   7  15
TORSDOF 7
ENDMDL
MODEL 3
REMARK VINA RESULT:      -7.4      3.105      6.279
REMARK  Name = 
REMARK  8 active torsions:
REMARK  status: ('A' for Active; 'I' for Inactive)
REMARK    1  A    between atoms: C_1  and  C_2
REMARK    2  A    between atoms: C_2  and  C_3
REMARK    3  A    between atoms: C_3  and  C_4
REMARK    4  A    between atoms: C_4  and  C_5
REMARK    5  A    between atoms: C_11  and  C_12
REMARK    6  A    between atoms: C_12  and  O_13
REMARK    7  A    between atoms: O_13  and  C_14
REMARK    8  A    between atoms: C_14  and  C_16
REMARK                            x       y       z     vdW  Elec       q    Type
REMARK                         _______ _______ _______ _____ _____    ______ ____
ROOT
ATOM      1  C   UNL     1       1.466   8.296  20.350  0.00  0.00    +0.000 A 
ATOM      2  N   UNL     1       1.612   7.144  20.922  0.00  0.00    +0.000 NA
ATOM      3  N   UNL     1       2.141   6.262  20.013  0.00  0.00    +0.000 N 
ATOM      4  C   UNL     1       2.414   4.954  20.346  0.00  0.00    +0.000 A 
ATOM      5  O   UNL     1       2.269   4.430  21.444  0.00  0.00    +0.000 OA
ATOM      6  C   UNL     1       2.939   4.156  19.219  0.00  0.00    +0.000 A 
ATOM      7  C   UNL     1       3.114   4.731  18.017  0.00  0.00    +0.000 A 
ATOM      8  N   UNL     1       2.857   6.066  17.761  0.00  0.00    +0.000 NA
ATOM      9  C   UNL     1       2.386   6.743  18.754  0.00  0.00    +0.000 A 
ATOM     10  S   UNL     1       1.961   8.424  18.679  0.00  0.00    +0.000 S 
ENDROOT
BRANCH   1  11
ATOM     11  C   UNL     1       0.878   9.492  21.043  0.00  0.00    +0.000 C 
BRANCH  11  12
ATOM     12  C   UNL     1       0.491   9.144  22.479  0.00  0.00    +0.000 C 
BRANCH  12  14
ATOM     13  C   UNL     1      -0.864  11.215  22.034  0.00  0.00    +0.000 C 
ATOM     14  C   UNL     1      -0.518  10.138  23.051  0.00  0.00    +0.000 C 
ENDBRANCH  12  14
ENDBRANCH  11  12
ENDBRANCH   1  11
BRANCH   7  15
ATOM     15  C   UNL     1       3.606   3.899  16.849  0.00  0.00    +0.000 C 
BRANCH  15  16
ATOM     16  O   UNL     1       5.040   3.812  16.853  0.00  0.00    +0.000 OA
BRANCH  16  17
ATOM     17  C   UNL     1       5.680   4.843  16.251  0.00  0.00    +0.000 C 
ATOM     18  O   UNL     1       5.578   5.162  15.077  0.00  0.00    +0.000 OA
BRANCH  17  19
ATOM     19  C   UNL     1       6.566   5.546  17.217  0.00  0.00    +0.000 A 
ATOM     20  C   UNL     1       7.166   4.887  18.302  0.00  0.00    +0.000 A 
ATOM     21  C   UNL     1       8.027   5.578  19.157  0.00  0.00    +0.000 A 
ATOM     22  C   UNL     1       8.286   6.931  18.939  0.00  0.00    +0.000 A 
ATOM     23  C   UNL     1       7.676   7.592  17.874  0.00  0.00    +0.000 A 
ATOM     24 CL   UNL     1       7.994   9.263  17.615  0.00  0.00    +0.000 Cl
ATOM     25  C   UNL     1       6.819   6.909  17.013  0.00  0.00    +0.000 A 
ENDBRANCH  17  19
ENDBRANCH  16  17
ENDBRANCH  15  16
ENDBRANCH   7  15
TORSDOF 7
ENDMDL
MODEL 4
REMARK VINA RESULT:      -7.4      4.347      6.714
REMARK  Name = 
REMARK  8 active torsions:
REMARK  status: ('A' for Active; 'I' for Inactive)
REMARK    1  A    between atoms: C_1  and  C_2
REMARK    2  A    between atoms: C_2  and  C_3
REMARK    3  A    between atoms: C_3  and  C_4
REMARK    4  A    between atoms: C_4  and  C_5
REMARK    5  A    between atoms: C_11  and  C_12
REMARK    6  A    between atoms: C_12  and  O_13
REMARK    7  A    between atoms: O_13  and  C_14
REMARK    8  A    between atoms: C_14  and  C_16
REMARK                            x       y       z     vdW  Elec       q    Type
REMARK                         _______ _______ _______ _____ _____    ______ ____
ROOT
ATOM      1  C   UNL     1       0.536  10.511  20.450  0.00  0.00    +0.000 A 
ATOM      2  N   UNL     1       1.117  10.182  19.341  0.00  0.00    +0.000 NA
ATOM      3  N   UNL     1       1.536   8.877  19.430  0.00  0.00    +0.000 N 
ATOM      4  C   UNL     1       2.183   8.250  18.389  0.00  0.00    +0.000 A 
ATOM      5  O   UNL     1       2.429   8.723  17.285  0.00  0.00    +0.000 OA
ATOM      6  C   UNL     1       2.590   6.864  18.696  0.00  0.00    +0.000 A 
ATOM      7  C   UNL     1       2.308   6.336  19.900  0.00  0.00    +0.000 A 
ATOM      8  N   UNL     1       1.617   7.010  20.890  0.00  0.00    +0.000 NA
ATOM      9  C   UNL     1       1.283   8.225  20.608  0.00  0.00    +0.000 A 
ATOM     10  S   UNL     1       0.433   9.284  21.690  0.00  0.00    +0.000 S 
ENDROOT
BRANCH   1  11
ATOM     11  C   UNL     1      -0.015  11.882  20.716  0.00  0.00    +0.000 C 
BRANCH  11  12
ATOM     12  C   UNL     1      -0.596  11.963  22.127  0.00  0.00    +0.000 C 
BRANCH  12  14
ATOM     13  C   UNL     1      -2.509  12.964  20.838  0.00  0.00    +0.000 C 
ATOM     14  C   UNL     1      -2.099  12.233  22.108  0.00  0.00    +0.000 C 
ENDBRANCH  12  14
ENDBRANCH  11  12
ENDBRANCH   1  11
BRANCH   7  15
ATOM     15  C   UNL     1       2.770   4.931  20.232  0.00  0.00    +0.000 C 
BRANCH  15  16
ATOM     16  O   UNL     1       3.167   4.230  19.043  0.00  0.00    +0.000 OA
BRANCH  16  17
ATOM     17  C   UNL     1       4.414   3.703  19.076  0.00  0.00    +0.000 C 
ATOM     18  O   UNL     1       4.787   2.789  19.794  0.00  0.00    +0.000 OA
BRANCH  17  19
ATOM     19  C   UNL     1       5.307   4.409  18.118  0.00  0.00    +0.000 A 
ATOM     20  C   UNL     1       5.280   4.152  16.739  0.00  0.00    +0.000 A 
ATOM     21  C   UNL     1       6.106   4.872  15.873  0.00  0.00    +0.000 A 
ATOM     22  C   UNL     1       6.967   5.845  16.379  0.00  0.00    +0.000 A 
ATOM     23  C   UNL     1       7.010   6.088  17.751  0.00  0.00    +0.000 A 
ATOM     24 CL   UNL     1       8.080   7.283  18.371  0.00  0.00    +0.000 Cl
ATOM     25  C   UNL     1       6.187   5.376  18.623  0.00  0.00    +0.000 A 
ENDBRANCH  17  19
ENDBRANCH  16  17
ENDBRANCH  15  16
ENDBRANCH   7  15
TORSDOF 7
ENDMDL
MODEL 5
REMARK VINA RESULT:      -7.3      3.705      7.531
REMARK  Name = 
REMARK  8 active torsions:
REMARK  status: ('A' for Active; 'I' for Inactive)
REMARK    1  A    between atoms: C_1  and  C_2
REMARK    2  A    between atoms: C_2  and  C_3
REMARK    3  A    between atoms: C_3  and  C_4
REMARK    4  A    between atoms: C_4  and  C_5
REMARK    5  A    between atoms: C_11  and  C_12
REMARK    6  A    between atoms: C_12  and  O_13
REMARK    7  A    between atoms: O_13  and  C_14
REMARK    8  A    between atoms: C_14  and  C_16
REMARK                            x       y       z     vdW  Elec       q    Type
REMARK                         _______ _______ _______ _____ _____    ______ ____
ROOT
ATOM      1  C   UNL     1       1.763   3.911  18.238  0.00  0.00    +0.000 A 
ATOM      2  N   UNL     1       2.082   5.165  18.241  0.00  0.00    +0.000 NA
ATOM      3  N   UNL     1       3.284   5.320  17.594  0.00  0.00    +0.000 N 
ATOM      4  C   UNL     1       3.869   6.556  17.437  0.00  0.00    +0.000 A 
ATOM      5  O   UNL     1       3.414   7.635  17.796  0.00  0.00    +0.000 OA
ATOM      6  C   UNL     1       5.177   6.506  16.752  0.00  0.00    +0.000 A 
ATOM      7  C   UNL     1       5.673   5.325  16.343  0.00  0.00    +0.000 A 
ATOM      8  N   UNL     1       5.010   4.120  16.497  0.00  0.00    +0.000 NA
ATOM      9  C   UNL     1       3.876   4.183  17.111  0.00  0.00    +0.000 A 
ATOM     10  S   UNL     1       2.868   2.811  17.449  0.00  0.00    +0.000 S 
ENDROOT
BRANCH   1  11
ATOM     11  C   UNL     1       0.523   3.374  18.891  0.00  0.00    +0.000 C 
BRANCH  11  12
ATOM     12  C   UNL     1       0.884   2.417  20.025  0.00  0.00    +0.000 C 
BRANCH  12  14
ATOM     13  C   UNL     1       2.830   2.606  21.607  0.00  0.00    +0.000 C 
ATOM     14  C   UNL     1       1.462   3.156  21.231  0.00  0.00    +0.000 C 
ENDBRANCH  12  14
ENDBRANCH  11  12
ENDBRANCH   1  11
BRANCH   7  15
ATOM     15  C   UNL     1       7.037   5.269  15.685  0.00  0.00    +0.000 C 
BRANCH  15  16
ATOM     16  O   UNL     1       7.091   4.213  14.713  0.00  0.00    +0.000 OA
BRANCH  16  17
ATOM     17  C   UNL     1       7.256   4.619  13.431  0.00  0.00    +0.000 C 
ATOM     18  O   UNL     1       7.792   5.655  13.072  0.00  0.00    +0.000 OA
BRANCH  17  19
ATOM     19  C   UNL     1       6.667   3.630  12.488  0.00  0.00    +0.000 A 
ATOM     20  C   UNL     1       7.425   2.598  11.915  0.00  0.00    +0.000 A 
ATOM     21  C   UNL     1       6.818   1.666  11.070  0.00  0.00    +0.000 A 
ATOM     22  C   UNL     1       5.457   1.765  10.786  0.00  0.00    +0.000 A 
ATOM     23  C   UNL     1       4.707   2.802  11.339  0.00  0.00    +0.000 A 
ATOM     24 CL   UNL     1       3.029   2.924  10.979  0.00  0.00    +0.000 Cl
ATOM     25  C   UNL     1       5.303   3.735  12.186  0.00  0.00    +0.000 A 
ENDBRANCH  17  19
ENDBRANCH  16  17
ENDBRANCH  15  16
ENDBRANCH   7  15
TORSDOF 7
ENDMDL
MODEL 6
REMARK VINA RESULT:      -7.3      3.024      5.179
REMARK  Name = 
REMARK  8 active torsions:
REMARK  status: ('A' for Active; 'I' for Inactive)
REMARK    1  A    between atoms: C_1  and  C_2
REMARK    2  A    between atoms: C_2  and  C_3
REMARK    3  A    between atoms: C_3  and  C_4
REMARK    4  A    between atoms: C_4  and  C_5
REMARK    5  A    between atoms: C_11  and  C_12
REMARK    6  A    between atoms: C_12  and  O_13
REMARK    7  A    between atoms: O_13  and  C_14
REMARK    8  A    between atoms: C_14  and  C_16
REMARK                            x       y       z     vdW  Elec       q    Type
REMARK                         _______ _______ _______ _____ _____    ______ ____
ROOT
ATOM      1  C   UNL     1       6.831   4.654  13.877  0.00  0.00    +0.000 A 
ATOM      2  N   UNL     1       7.323   5.548  14.673  0.00  0.00    +0.000 NA
ATOM      3  N   UNL     1       6.774   5.381  15.921  0.00  0.00    +0.000 N 
ATOM      4  C   UNL     1       7.120   6.190  16.980  0.00  0.00    +0.000 A 
ATOM      5  O   UNL     1       7.945   7.096  16.974  0.00  0.00    +0.000 OA
ATOM      6  C   UNL     1       6.390   5.876  18.225  0.00  0.00    +0.000 A 
ATOM      7  C   UNL     1       5.495   4.873  18.241  0.00  0.00    +0.000 A 
ATOM      8  N   UNL     1       5.225   4.069  17.147  0.00  0.00    +0.000 NA
ATOM      9  C   UNL     1       5.862   4.369  16.065  0.00  0.00    +0.000 A 
ATOM     10  S   UNL     1       5.679   3.530  14.557  0.00  0.00    +0.000 S 
ENDROOT
BRANCH   1  11
ATOM     11  C   UNL     1       7.184   4.564  12.420  0.00  0.00    +0.000 C 
BRANCH  11  12
ATOM     12  C   UNL     1       7.276   3.105  11.979  0.00  0.00    +0.000 C 
BRANCH  12  14
ATOM     13  C   UNL     1       6.029   1.105  11.104  0.00  0.00    +0.000 C 
ATOM     14  C   UNL     1       5.929   2.573  11.493  0.00  0.00    +0.000 C 
ENDBRANCH  12  14
ENDBRANCH  11  12
ENDBRANCH   1  11
BRANCH   7  15
ATOM     15  C   UNL     1       4.710   4.583  19.505  0.00  0.00    +0.000 C 
BRANCH  15  16
ATOM     16  O   UNL     1       3.877   5.699  19.855  0.00  0.00    +0.000 OA
BRANCH  16  17
ATOM     17  C   UNL     1       2.713   5.785  19.169  0.00  0.00    +0.000 C 
ATOM     18  O   UNL     1       2.097   4.850  18.683  0.00  0.00    +0.000 OA
BRANCH  17  19
ATOM     19  C   UNL     1       2.274   7.202  19.056  0.00  0.00    +0.000 A 
ATOM     20  C   UNL     1       2.417   7.940  17.870  0.00  0.00    +0.000 A 
ATOM     21  C   UNL     1       1.948   9.253  17.798  0.00  0.00    +0.000 A 
ATOM     22  C   UNL     1       1.344   9.839  18.909  0.00  0.00    +0.000 A 
ATOM     23  C   UNL     1       1.219   9.115  20.094  0.00  0.00    +0.000 A 
ATOM     24 CL   UNL     1       0.480   9.847  21.464  0.00  0.00    +0.000 Cl
ATOM     25  C   UNL     1       1.680   7.803  20.174  0.00  0.00    +0.000 A 
ENDBRANCH  17  19
ENDBRANCH  16  17
ENDBRANCH  15  16
ENDBRANCH   7  15
TORSDOF 7
ENDMDL
MODEL 7
REMARK VINA RESULT:      -7.2      3.586      7.471
REMARK  Name = 
REMARK  8 active torsions:
REMARK  status: ('A' for Active; 'I' for Inactive)
REMARK    1  A    between atoms: C_1  and  C_2
REMARK    2  A    between atoms: C_2  and  C_3
REMARK    3  A    between atoms: C_3  and  C_4
REMARK    4  A    between atoms: C_4  and  C_5
REMARK    5  A    between atoms: C_11  and  C_12
REMARK    6  A    between atoms: C_12  and  O_13
REMARK    7  A    between atoms: O_13  and  C_14
REMARK    8  A    between atoms: C_14  and  C_16
REMARK                            x       y       z     vdW  Elec       q    Type
REMARK                         _______ _______ _______ _____ _____    ______ ____
ROOT
ATOM      1  C   UNL     1       3.339   2.874  19.038  0.00  0.00    +0.000 A 
ATOM      2  N   UNL     1       4.335   3.487  19.593  0.00  0.00    +0.000 NA
ATOM      3  N   UNL     1       5.111   4.053  18.612  0.00  0.00    +0.000 N 
ATOM      4  C   UNL     1       6.241   4.780  18.910  0.00  0.00    +0.000 A 
ATOM      5  O   UNL     1       6.672   5.045  20.027  0.00  0.00    +0.000 OA
ATOM      6  C   UNL     1       6.960   5.269  17.716  0.00  0.00    +0.000 A 
ATOM      7  C   UNL     1       6.484   4.994  16.489  0.00  0.00    +0.000 A 
ATOM      8  N   UNL     1       5.315   4.289  16.261  0.00  0.00    +0.000 NA
ATOM      9  C   UNL     1       4.709   3.859  17.317  0.00  0.00    +0.000 A 
ATOM     10  S   UNL     1       3.242   2.931  17.294  0.00  0.00    +0.000 S 
ENDROOT
BRANCH   1  11
ATOM     11  C   UNL     1       2.305   2.111  19.814  0.00  0.00    +0.000 C 
BRANCH  11  12
ATOM     12  C   UNL     1       1.790   2.943  20.987  0.00  0.00    +0.000 C 
BRANCH  12  14
ATOM     13  C   UNL     1       1.555   5.396  20.483  0.00  0.00    +0.000 C 
ATOM     14  C   UNL     1       0.845   4.051  20.526  0.00  0.00    +0.000 C 
ENDBRANCH  12  14
ENDBRANCH  11  12
ENDBRANCH   1  11
BRANCH   7  15
ATOM     15  C   UNL     1       7.248   5.453  15.264  0.00  0.00    +0.000 C 
BRANCH  15  16
ATOM     16  O   UNL     1       6.498   5.193  14.068  0.00  0.00    +0.000 OA
BRANCH  16  17
ATOM     17  C   UNL     1       7.242   4.928  12.968  0.00  0.00    +0.000 C 
ATOM     18  O   UNL     1       8.220   5.558  12.596  0.00  0.00    +0.000 OA
BRANCH  17  19
ATOM     19  C   UNL     1       6.696   3.755  12.234  0.00  0.00    +0.000 A 
ATOM     20  C   UNL     1       7.511   2.700  11.794  0.00  0.00    +0.000 A 
ATOM     21  C   UNL     1       6.946   1.597  11.149  0.00  0.00    +0.000 A 
ATOM     22  C   UNL     1       5.570   1.546  10.933  0.00  0.00    +0.000 A 
ATOM     23  C   UNL     1       4.762   2.602  11.352  0.00  0.00    +0.000 A 
ATOM     24 CL   UNL     1       3.065   2.536  11.076  0.00  0.00    +0.000 Cl
ATOM     25  C   UNL     1       5.316   3.704  12.000  0.00  0.00    +0.000 A 
ENDBRANCH  17  19
ENDBRANCH  16  17
ENDBRANCH  15  16
ENDBRANCH   7  15
TORSDOF 7
ENDMDL
MODEL 8
REMARK VINA RESULT:      -7.2      4.204      6.372
REMARK  Name = 
REMARK  8 active torsions:
REMARK  status: ('A' for Active; 'I' for Inactive)
REMARK    1  A    between atoms: C_1  and  C_2
REMARK    2  A    between atoms: C_2  and  C_3
REMARK    3  A    between atoms: C_3  and  C_4
REMARK    4  A    between atoms: C_4  and  C_5
REMARK    5  A    between atoms: C_11  and  C_12
REMARK    6  A    between atoms: C_12  and  O_13
REMARK    7  A    between atoms: O_13  and  C_14
REMARK    8  A    between atoms: C_14  and  C_16
REMARK                            x       y       z     vdW  Elec       q    Type
REMARK                         _______ _______ _______ _____ _____    ______ ____
ROOT
ATOM      1  C   UNL     1       4.822   4.630  17.210  0.00  0.00    +0.000 A 
ATOM      2  N   UNL     1       4.371   3.958  18.220  0.00  0.00    +0.000 NA
ATOM      3  N   UNL     1       3.542   4.767  18.958  0.00  0.00    +0.000 N 
ATOM      4  C   UNL     1       2.909   4.314  20.093  0.00  0.00    +0.000 A 
ATOM      5  O   UNL     1       2.958   3.182  20.560  0.00  0.00    +0.000 OA
ATOM      6  C   UNL     1       2.097   5.347  20.767  0.00  0.00    +0.000 A 
ATOM      7  C   UNL     1       2.028   6.586  20.251  0.00  0.00    +0.000 A 
ATOM      8  N   UNL     1       2.660   6.965  19.079  0.00  0.00    +0.000 NA
ATOM      9  C   UNL     1       3.376   6.052  18.513  0.00  0.00    +0.000 A 
ATOM     10  S   UNL     1       4.284   6.286  17.052  0.00  0.00    +0.000 S 
ENDROOT
BRANCH   1  11
ATOM     11  C   UNL     1       5.786   4.065  16.208  0.00  0.00    +0.000 C 
BRANCH  11  12
ATOM     12  C   UNL     1       5.238   4.217  14.790  0.00  0.00    +0.000 C 
BRANCH  12  14
ATOM     13  C   UNL     1       5.993   3.455  12.516  0.00  0.00    +0.000 C 
ATOM     14  C   UNL     1       6.357   4.265  13.751  0.00  0.00    +0.000 C 
ENDBRANCH  12  14
ENDBRANCH  11  12
ENDBRANCH   1  11
BRANCH   7  15
ATOM     15  C   UNL     1       1.235   7.659  20.970  0.00  0.00    +0.000 C 
BRANCH  15  16
ATOM     16  O   UNL     1       1.266   8.894  20.237  0.00  0.00    +0.000 OA
BRANCH  16  17
ATOM     17  C   UNL     1       0.822   9.978  20.917  0.00  0.00    +0.000 C 
ATOM     18  O   UNL     1       1.241  10.367  21.996  0.00  0.00    +0.000 OA
BRANCH  17  19
ATOM     19  C   UNL     1      -0.284  10.644  20.179  0.00  0.00    +0.000 A 
ATOM     20  C   UNL     1      -0.939  11.782  20.676  0.00  0.00    +0.000 A 
ATOM     21  C   UNL     1      -1.941  12.401  19.926  0.00  0.00    +0.000 A 
ATOM     22  C   UNL     1      -2.301  11.883  18.682  0.00  0.00    +0.000 A 
ATOM     23  C   UNL     1      -1.666  10.741  18.196  0.00  0.00    +0.000 A 
ATOM     24 CL   UNL     1      -2.119  10.102  16.665  0.00  0.00    +0.000 Cl
ATOM     25  C   UNL     1      -0.661  10.119  18.936  0.00  0.00    +0.000 A 
ENDBRANCH  17  19
ENDBRANCH  16  17
ENDBRANCH  15  16
ENDBRANCH   7  15
TORSDOF 7
ENDMDL
MODEL 9
REMARK VINA RESULT:      -7.2      3.978      6.049
REMARK  Name = 
REMARK  8 active torsions:
REMARK  status: ('A' for Active; 'I' for Inactive)
REMARK    1  A    between atoms: C_1  and  C_2
REMARK    2  A    between atoms: C_2  and  C_3
REMARK    3  A    between atoms: C_3  and  C_4
REMARK    4  A    between atoms: C_4  and  C_5
REMARK    5  A    between atoms: C_11  and  C_12
REMARK    6  A    between atoms: C_12  and  O_13
REMARK    7  A    between atoms: O_13  and  C_14
REMARK    8  A    between atoms: C_14  and  C_16
REMARK                            x       y       z     vdW  Elec       q    Type
REMARK                         _______ _______ _______ _____ _____    ______ ____
ROOT
ATOM      1  C   UNL     1       5.463   5.086  15.716  0.00  0.00    +0.000 A 
ATOM      2  N   UNL     1       4.606   4.202  16.114  0.00  0.00    +0.000 NA
ATOM      3  N   UNL     1       3.854   4.738  17.130  0.00  0.00    +0.000 N 
ATOM      4  C   UNL     1       2.851   4.023  17.746  0.00  0.00    +0.000 A 
ATOM      5  O   UNL     1       2.481   2.888  17.468  0.00  0.00    +0.000 OA
ATOM      6  C   UNL     1       2.189   4.759  18.841  0.00  0.00    +0.000 A 
ATOM      7  C   UNL     1       2.581   6.010  19.140  0.00  0.00    +0.000 A 
ATOM      8  N   UNL     1       3.572   6.687  18.451  0.00  0.00    +0.000 NA
ATOM      9  C   UNL     1       4.148   6.022  17.507  0.00  0.00    +0.000 A 
ATOM     10  S   UNL     1       5.434   6.640  16.517  0.00  0.00    +0.000 S 
ENDROOT
BRANCH   1  11
ATOM     11  C   UNL     1       6.474   4.828  14.636  0.00  0.00    +0.000 C 
BRANCH  11  12
ATOM     12  C   UNL     1       6.176   3.509  13.926  0.00  0.00    +0.000 C 
BRANCH  12  14
ATOM     13  C   UNL     1       4.919   3.233  11.766  0.00  0.00    +0.000 C 
ATOM     14  C   UNL     1       6.232   3.657  12.407  0.00  0.00    +0.000 C 
ENDBRANCH  12  14
ENDBRANCH  11  12
ENDBRANCH   1  11
BRANCH   7  15
ATOM     15  C   UNL     1       1.935   6.746  20.296  0.00  0.00    +0.000 C 
BRANCH  15  16
ATOM     16  O   UNL     1       1.722   8.127  19.966  0.00  0.00    +0.000 OA
BRANCH  16  17
ATOM     17  C   UNL     1       1.133   8.866  20.936  0.00  0.00    +0.000 C 
ATOM     18  O   UNL     1       1.292   8.727  22.139  0.00  0.00    +0.000 OA
BRANCH  17  19
ATOM     19  C   UNL     1       0.226   9.885  20.342  0.00  0.00    +0.000 A 
ATOM     20  C   UNL     1       0.031   9.999  18.957  0.00  0.00    +0.000 A 
ATOM     21  C   UNL     1      -0.866  10.941  18.448  0.00  0.00    +0.000 A 
ATOM     22  C   UNL     1      -1.564  11.778  19.317  0.00  0.00    +0.000 A 
ATOM     23  C   UNL     1      -1.357  11.680  20.692  0.00  0.00    +0.000 A 
ATOM     24 CL   UNL     1      -2.216  12.721  21.758  0.00  0.00    +0.000 Cl
ATOM     25  C   UNL     1      -0.467  10.740  21.210  0.00  0.00    +0.000 A 
ENDBRANCH  17  19
ENDBRANCH  16  17
ENDBRANCH  15  16
ENDBRANCH   7  15
TORSDOF 7
ENDMDL
