MODEL 1
REMARK VINA RESULT:      -8.0      0.000      0.000
REMARK  Name = 
REMARK  7 active torsions:
REMARK  status: ('A' for Active; 'I' for Inactive)
REMARK    1  A    between atoms: C_1  and  O_2
REMARK    2  A    between atoms: O_2  and  C_3
REMARK    3  A    between atoms: C_11  and  N_12
REMARK    4  A    between atoms: C_20  and  C_21
REMARK    5  A    between atoms: N_22  and  C_23
REMARK    6  A    between atoms: C_23  and  C_24
REMARK    7  A    between atoms: C_23  and  C_25
REMARK                            x       y       z     vdW  Elec       q    Type
REMARK                         _______ _______ _______ _____ _____    ______ ____
ROOT
ATOM      1  C   UNL     1       6.070   5.406  15.561  0.00  0.00    +0.000 C 
ATOM      2  C   UNL     1       5.579   4.087  16.165  0.00  0.00    +0.000 C 
ATOM      3  C   UNL     1       4.164   4.220  16.730  0.00  0.00    +0.000 C 
ATOM      4  N   UNL     1       4.123   5.335  17.668  0.00  0.00    +0.000 N 
ATOM      5  C   UNL     1       3.076   5.385  18.574  0.00  0.00    +0.000 A 
ATOM      6  N   UNL     1       2.268   4.333  18.742  0.00  0.00    +0.000 NA
ATOM      7  C   UNL     1       1.338   4.425  19.709  0.00  0.00    +0.000 A 
ATOM      8  C   UNL     1       1.179   5.523  20.516  0.00  0.00    +0.000 A 
ATOM      9  C   UNL     1       2.048   6.565  20.293  0.00  0.00    +0.000 A 
ATOM     10  N   UNL     1       2.963   6.494  19.317  0.00  0.00    +0.000 NA
ATOM     11  C   UNL     1       4.582   6.636  17.176  0.00  0.00    +0.000 C 
ATOM     12  C   UNL     1       5.990   6.532  16.600  0.00  0.00    +0.000 C 
ATOM     13  F   UNL     1       6.871   6.286  17.616  0.00  0.00    +0.000 F 
ENDROOT
BRANCH   9  14
ATOM     14  N   UNL     1       2.041   7.669  21.161  0.00  0.00    +0.000 N 
ATOM     15  C   UNL     1       1.127   8.731  21.208  0.00  0.00    +0.000 A 
ATOM     16  C   UNL     1       0.415   9.138  20.076  0.00  0.00    +0.000 A 
ATOM     17  C   UNL     1      -0.496  10.182  20.242  0.00  0.00    +0.000 A 
ATOM     18  C   UNL     1      -0.616  10.839  21.457  0.00  0.00    +0.000 A 
ATOM     19  C   UNL     1       0.171  10.419  22.532  0.00  0.00    +0.000 A 
ATOM     20  N   UNL     1       1.021   9.361  22.400  0.00  0.00    +0.000 NA
ATOM     21  N   UNL     1      -1.543  11.841  21.369  0.00  0.00    +0.000 NA
ATOM     22  C   UNL     1      -2.022  11.798  20.139  0.00  0.00    +0.000 A 
ATOM     23  C   UNL     1      -3.075  12.722  19.647  0.00  0.00    +0.000 C 
ATOM     24  N   UNL     1      -1.425  10.784  19.410  0.00  0.00    +0.000 N 
ATOM     25  H   UNL     1       2.376   7.481  22.096  0.00  0.00    +0.000 HD
BRANCH  24  26
ATOM     26  C   UNL     1      -1.727  10.324  18.053  0.00  0.00    +0.000 C 
ATOM     27  C   UNL     1      -3.016   9.506  17.967  0.00  0.00    +0.000 C 
ATOM     28  C   UNL     1      -1.686  11.435  17.006  0.00  0.00    +0.000 C 
ENDBRANCH  24  26
ENDBRANCH   9  14
BRANCH   1  30
ATOM     29  C   UNL     1       7.467   5.032  13.649  0.00  0.00    +0.000 C 
ATOM     30  O   UNL     1       7.400   5.193  15.060  0.00  0.00    +0.000 OA
ENDBRANCH   1  30
TORSDOF 3
ENDMDL
MODEL 2
REMARK VINA RESULT:      -7.3      3.534      8.550
REMARK  Name = 
REMARK  7 active torsions:
REMARK  status: ('A' for Active; 'I' for Inactive)
REMARK    1  A    between atoms: C_1  and  O_2
REMARK    2  A    between atoms: O_2  and  C_3
REMARK    3  A    between atoms: C_11  and  N_12
REMARK    4  A    between atoms: C_20  and  C_21
REMARK    5  A    between atoms: N_22  and  C_23
REMARK    6  A    between atoms: C_23  and  C_24
REMARK    7  A    between atoms: C_23  and  C_25
REMARK                            x       y       z     vdW  Elec       q    Type
REMARK                         _______ _______ _______ _____ _____    ______ ____
ROOT
ATOM      1  C   UNL     1      -2.766  11.281  16.890  0.00  0.00    +0.000 C 
ATOM      2  C   UNL     1      -2.686  11.984  18.248  0.00  0.00    +0.000 C 
ATOM      3  C   UNL     1      -1.343  11.730  18.934  0.00  0.00    +0.000 C 
ATOM      4  N   UNL     1      -1.107  10.295  19.013  0.00  0.00    +0.000 N 
ATOM      5  C   UNL     1      -0.171   9.837  19.927  0.00  0.00    +0.000 A 
ATOM      6  N   UNL     1       0.322  10.654  20.864  0.00  0.00    +0.000 NA
ATOM      7  C   UNL     1       1.151  10.111  21.774  0.00  0.00    +0.000 A 
ATOM      8  C   UNL     1       1.508   8.786  21.788  0.00  0.00    +0.000 A 
ATOM      9  C   UNL     1       0.958   8.003  20.801  0.00  0.00    +0.000 A 
ATOM     10  N   UNL     1       0.151   8.539  19.875  0.00  0.00    +0.000 NA
ATOM     11  C   UNL     1      -1.172   9.539  17.759  0.00  0.00    +0.000 C 
ATOM     12  C   UNL     1      -2.499   9.778  17.049  0.00  0.00    +0.000 C 
ATOM     13  F   UNL     1      -3.504   9.206  17.777  0.00  0.00    +0.000 F 
ENDROOT
BRANCH   9  14
ATOM     14  N   UNL     1       1.166   6.614  20.824  0.00  0.00    +0.000 N 
ATOM     15  C   UNL     1       2.264   5.892  20.337  0.00  0.00    +0.000 A 
ATOM     16  C   UNL     1       3.053   6.373  19.288  0.00  0.00    +0.000 A 
ATOM     17  C   UNL     1       4.143   5.590  18.905  0.00  0.00    +0.000 A 
ATOM     18  C   UNL     1       4.373   4.352  19.486  0.00  0.00    +0.000 A 
ATOM     19  C   UNL     1       3.509   3.906  20.489  0.00  0.00    +0.000 A 
ATOM     20  N   UNL     1       2.475   4.687  20.913  0.00  0.00    +0.000 NA
ATOM     21  N   UNL     1       5.475   3.761  18.931  0.00  0.00    +0.000 NA
ATOM     22  C   UNL     1       5.950   4.617  18.045  0.00  0.00    +0.000 A 
ATOM     23  C   UNL     1       7.165   4.352  17.233  0.00  0.00    +0.000 C 
ATOM     24  N   UNL     1       5.179   5.767  18.004  0.00  0.00    +0.000 N 
ATOM     25  H   UNL     1       0.791   6.139  21.633  0.00  0.00    +0.000 HD
BRANCH  24  26
ATOM     26  C   UNL     1       5.403   6.999  17.246  0.00  0.00    +0.000 C 
ATOM     27  C   UNL     1       6.806   7.576  17.436  0.00  0.00    +0.000 C 
ATOM     28  C   UNL     1       5.027   6.888  15.770  0.00  0.00    +0.000 C 
ENDBRANCH  24  26
ENDBRANCH   9  14
BRANCH   1  30
ATOM     29  C   UNL     1      -5.031  11.969  17.270  0.00  0.00    +0.000 C 
ATOM     30  O   UNL     1      -4.053  11.569  16.320  0.00  0.00    +0.000 OA
ENDBRANCH   1  30
TORSDOF 3
ENDMDL
MODEL 3
REMARK VINA RESULT:      -7.1      5.977      8.019
REMARK  Name = 
REMARK  7 active torsions:
REMARK  status: ('A' for Active; 'I' for Inactive)
REMARK    1  A    between atoms: C_1  and  O_2
REMARK    2  A    between atoms: O_2  and  C_3
REMARK    3  A    between atoms: C_11  and  N_12
REMARK    4  A    between atoms: C_20  and  C_21
REMARK    5  A    between atoms: N_22  and  C_23
REMARK    6  A    between atoms: C_23  and  C_24
REMARK    7  A    between atoms: C_23  and  C_25
REMARK                            x       y       z     vdW  Elec       q    Type
REMARK                         _______ _______ _______ _____ _____    ______ ____
ROOT
ATOM      1  C   UNL     1       3.504  15.977  19.388  0.00  0.00    +0.000 C 
ATOM      2  C   UNL     1       3.071  15.510  20.781  0.00  0.00    +0.000 C 
ATOM      3  C   UNL     1       2.894  13.992  20.835  0.00  0.00    +0.000 C 
ATOM      4  N   UNL     1       1.983  13.575  19.777  0.00  0.00    +0.000 N 
ATOM      5  C   UNL     1       1.381  12.333  19.887  0.00  0.00    +0.000 A 
ATOM      6  N   UNL     1       1.447  11.642  21.030  0.00  0.00    +0.000 NA
ATOM      7  C   UNL     1       0.756  10.489  21.089  0.00  0.00    +0.000 A 
ATOM      8  C   UNL     1       0.002   9.997  20.054  0.00  0.00    +0.000 A 
ATOM      9  C   UNL     1      -0.027  10.761  18.911  0.00  0.00    +0.000 A 
ATOM     10  N   UNL     1       0.677  11.898  18.834  0.00  0.00    +0.000 NA
ATOM     11  C   UNL     1       2.317  13.986  18.411  0.00  0.00    +0.000 C 
ATOM     12  C   UNL     1       2.505  15.496  18.328  0.00  0.00    +0.000 C 
ATOM     13  F   UNL     1       1.299  16.108  18.520  0.00  0.00    +0.000 F 
ENDROOT
BRANCH   9  14
ATOM     14  N   UNL     1      -0.880  10.396  17.857  0.00  0.00    +0.000 N 
ATOM     15  C   UNL     1      -2.169  10.870  17.580  0.00  0.00    +0.000 A 
ATOM     16  C   UNL     1      -3.005  11.361  18.587  0.00  0.00    +0.000 A 
ATOM     17  C   UNL     1      -4.255  11.842  18.195  0.00  0.00    +0.000 A 
ATOM     18  C   UNL     1      -4.675  11.751  16.877  0.00  0.00    +0.000 A 
ATOM     19  C   UNL     1      -3.811  11.195  15.931  0.00  0.00    +0.000 A 
ATOM     20  N   UNL     1      -2.564  10.775  16.289  0.00  0.00    +0.000 NA
ATOM     21  N   UNL     1      -5.939  12.257  16.741  0.00  0.00    +0.000 NA
ATOM     22  C   UNL     1      -6.298  12.687  17.937  0.00  0.00    +0.000 A 
ATOM     23  C   UNL     1      -7.610  13.328  18.207  0.00  0.00    +0.000 C 
ATOM     24  N   UNL     1      -5.291  12.473  18.863  0.00  0.00    +0.000 N 
ATOM     25  H   UNL     1      -0.416  10.174  16.988  0.00  0.00    +0.000 HD
BRANCH  24  26
ATOM     26  C   UNL     1      -5.229  12.884  20.267  0.00  0.00    +0.000 C 
ATOM     27  C   UNL     1      -5.222  14.402  20.451  0.00  0.00    +0.000 C 
ATOM     28  C   UNL     1      -6.274  12.207  21.151  0.00  0.00    +0.000 C 
ENDBRANCH  24  26
ENDBRANCH   9  14
BRANCH   1  30
ATOM     29  C   UNL     1       3.186  18.000  20.634  0.00  0.00    +0.000 C 
ATOM     30  O   UNL     1       3.644  17.407  19.427  0.00  0.00    +0.000 OA
ENDBRANCH   1  30
TORSDOF 3
ENDMDL
MODEL 4
REMARK VINA RESULT:      -6.8      5.523      8.101
REMARK  Name = 
REMARK  7 active torsions:
REMARK  status: ('A' for Active; 'I' for Inactive)
REMARK    1  A    between atoms: C_1  and  O_2
REMARK    2  A    between atoms: O_2  and  C_3
REMARK    3  A    between atoms: C_11  and  N_12
REMARK    4  A    between atoms: C_20  and  C_21
REMARK    5  A    between atoms: N_22  and  C_23
REMARK    6  A    between atoms: C_23  and  C_24
REMARK    7  A    between atoms: C_23  and  C_25
REMARK                            x       y       z     vdW  Elec       q    Type
REMARK                         _______ _______ _______ _____ _____    ______ ____
ROOT
ATOM      1  C   UNL     1       0.812  10.873  20.821  0.00  0.00    +0.000 C 
ATOM      2  C   UNL     1       0.678   9.666  19.888  0.00  0.00    +0.000 C 
ATOM      3  C   UNL     1       0.024  10.053  18.560  0.00  0.00    +0.000 C 
ATOM      4  N   UNL     1      -1.242  10.722  18.824  0.00  0.00    +0.000 N 
ATOM      5  C   UNL     1      -2.166  10.798  17.795  0.00  0.00    +0.000 A 
ATOM      6  N   UNL     1      -2.004  10.080  16.678  0.00  0.00    +0.000 NA
ATOM      7  C   UNL     1      -2.992  10.132  15.768  0.00  0.00    +0.000 A 
ATOM      8  C   UNL     1      -4.137  10.871  15.924  0.00  0.00    +0.000 A 
ATOM      9  C   UNL     1      -4.243  11.579  17.098  0.00  0.00    +0.000 A 
ATOM     10  N   UNL     1      -3.253  11.553  18.001  0.00  0.00    +0.000 NA
ATOM     11  C   UNL     1      -1.208  11.885  19.714  0.00  0.00    +0.000 C 
ATOM     12  C   UNL     1      -0.555  11.531  21.045  0.00  0.00    +0.000 C 
ATOM     13  F   UNL     1      -1.372  10.675  21.729  0.00  0.00    +0.000 F 
ENDROOT
BRANCH   9  14
ATOM     14  N   UNL     1      -5.438  12.252  17.395  0.00  0.00    +0.000 N 
ATOM     15  C   UNL     1      -5.725  13.069  18.497  0.00  0.00    +0.000 A 
ATOM     16  C   UNL     1      -5.071  12.907  19.722  0.00  0.00    +0.000 A 
ATOM     17  C   UNL     1      -5.406  13.798  20.743  0.00  0.00    +0.000 A 
ATOM     18  C   UNL     1      -6.408  14.740  20.568  0.00  0.00    +0.000 A 
ATOM     19  C   UNL     1      -7.062  14.809  19.336  0.00  0.00    +0.000 A 
ATOM     20  N   UNL     1      -6.704  13.984  18.311  0.00  0.00    +0.000 NA
ATOM     21  N   UNL     1      -6.578  15.475  21.709  0.00  0.00    +0.000 NA
ATOM     22  C   UNL     1      -5.685  15.030  22.574  0.00  0.00    +0.000 A 
ATOM     23  C   UNL     1      -5.533  15.590  23.942  0.00  0.00    +0.000 C 
ATOM     24  N   UNL     1      -4.925  14.012  22.023  0.00  0.00    +0.000 N 
ATOM     25  H   UNL     1      -5.950  12.591  16.592  0.00  0.00    +0.000 HD
BRANCH  24  26
ATOM     26  C   UNL     1      -3.771  13.314  22.591  0.00  0.00    +0.000 C 
ATOM     27  C   UNL     1      -2.535  14.203  22.727  0.00  0.00    +0.000 C 
ATOM     28  C   UNL     1      -4.082  12.568  23.887  0.00  0.00    +0.000 C 
ENDBRANCH  24  26
ENDBRANCH   9  14
BRANCH   1  30
ATOM     29  C   UNL     1       1.371   9.015  22.229  0.00  0.00    +0.000 C 
ATOM     30  O   UNL     1       1.430  10.422  22.038  0.00  0.00    +0.000 OA
ENDBRANCH   1  30
TORSDOF 3
ENDMDL
MODEL 5
REMARK VINA RESULT:      -6.8      4.060      9.142
REMARK  Name = 
REMARK  7 active torsions:
REMARK  status: ('A' for Active; 'I' for Inactive)
REMARK    1  A    between atoms: C_1  and  O_2
REMARK    2  A    between atoms: O_2  and  C_3
REMARK    3  A    between atoms: C_11  and  N_12
REMARK    4  A    between atoms: C_20  and  C_21
REMARK    5  A    between atoms: N_22  and  C_23
REMARK    6  A    between atoms: C_23  and  C_24
REMARK    7  A    between atoms: C_23  and  C_25
REMARK                            x       y       z     vdW  Elec       q    Type
REMARK                         _______ _______ _______ _____ _____    ______ ____
ROOT
ATOM      1  C   UNL     1      -0.979  14.123  22.272  0.00  0.00    +0.000 C 
ATOM      2  C   UNL     1      -2.000  14.001  21.137  0.00  0.00    +0.000 C 
ATOM      3  C   UNL     1      -2.034  12.584  20.561  0.00  0.00    +0.000 C 
ATOM      4  N   UNL     1      -0.687  12.191  20.170  0.00  0.00    +0.000 N 
ATOM      5  C   UNL     1      -0.548  11.137  19.282  0.00  0.00    +0.000 A 
ATOM      6  N   UNL     1      -1.608  10.654  18.625  0.00  0.00    +0.000 NA
ATOM      7  C   UNL     1      -1.376   9.697  17.709  0.00  0.00    +0.000 A 
ATOM      8  C   UNL     1      -0.130   9.202  17.419  0.00  0.00    +0.000 A 
ATOM      9  C   UNL     1       0.915   9.748  18.126  0.00  0.00    +0.000 A 
ATOM     10  N   UNL     1       0.692  10.685  19.058  0.00  0.00    +0.000 NA
ATOM     11  C   UNL     1       0.357  12.283  21.193  0.00  0.00    +0.000 C 
ATOM     12  C   UNL     1       0.410  13.685  21.790  0.00  0.00    +0.000 C 
ATOM     13  F   UNL     1       0.866  14.557  20.842  0.00  0.00    +0.000 F 
ENDROOT
BRANCH   9  14
ATOM     14  N   UNL     1       2.233   9.393  17.796  0.00  0.00    +0.000 N 
ATOM     15  C   UNL     1       2.826   8.124  17.836  0.00  0.00    +0.000 A 
ATOM     16  C   UNL     1       2.377   7.130  18.710  0.00  0.00    +0.000 A 
ATOM     17  C   UNL     1       3.015   5.891  18.643  0.00  0.00    +0.000 A 
ATOM     18  C   UNL     1       4.103   5.692  17.807  0.00  0.00    +0.000 A 
ATOM     19  C   UNL     1       4.538   6.749  17.003  0.00  0.00    +0.000 A 
ATOM     20  N   UNL     1       3.886   7.946  17.016  0.00  0.00    +0.000 NA
ATOM     21  N   UNL     1       4.578   4.416  17.935  0.00  0.00    +0.000 NA
ATOM     22  C   UNL     1       3.790   3.811  18.805  0.00  0.00    +0.000 A 
ATOM     23  C   UNL     1       3.964   2.392  19.206  0.00  0.00    +0.000 C 
ATOM     24  N   UNL     1       2.800   4.668  19.256  0.00  0.00    +0.000 N 
ATOM     25  H   UNL     1       2.644   9.926  17.041  0.00  0.00    +0.000 HD
BRANCH  24  26
ATOM     26  C   UNL     1       1.668   4.384  20.140  0.00  0.00    +0.000 C 
ATOM     27  C   UNL     1       0.661   3.408  19.532  0.00  0.00    +0.000 C 
ATOM     28  C   UNL     1       2.081   3.973  21.552  0.00  0.00    +0.000 C 
ENDBRANCH  24  26
ENDBRANCH   9  14
BRANCH   1  30
ATOM     29  C   UNL     1      -1.155  15.591  24.159  0.00  0.00    +0.000 C 
ATOM     30  O   UNL     1      -1.011  15.478  22.749  0.00  0.00    +0.000 OA
ENDBRANCH   1  30
TORSDOF 3
ENDMDL
MODEL 6
REMARK VINA RESULT:      -6.8      4.168      8.889
REMARK  Name = 
REMARK  7 active torsions:
REMARK  status: ('A' for Active; 'I' for Inactive)
REMARK    1  A    between atoms: C_1  and  O_2
REMARK    2  A    between atoms: O_2  and  C_3
REMARK    3  A    between atoms: C_11  and  N_12
REMARK    4  A    between atoms: C_20  and  C_21
REMARK    5  A    between atoms: N_22  and  C_23
REMARK    6  A    between atoms: C_23  and  C_24
REMARK    7  A    between atoms: C_23  and  C_25
REMARK                            x       y       z     vdW  Elec       q    Type
REMARK                         _______ _______ _______ _____ _____    ______ ____
ROOT
ATOM      1  C   UNL     1       1.184  15.472  19.825  0.00  0.00    +0.000 C 
ATOM      2  C   UNL     1      -0.070  14.973  19.100  0.00  0.00    +0.000 C 
ATOM      3  C   UNL     1      -0.259  13.466  19.278  0.00  0.00    +0.000 C 
ATOM      4  N   UNL     1       0.957  12.776  18.868  0.00  0.00    +0.000 N 
ATOM      5  C   UNL     1       0.872  11.425  18.572  0.00  0.00    +0.000 A 
ATOM      6  N   UNL     1      -0.318  10.831  18.437  0.00  0.00    +0.000 NA
ATOM      7  C   UNL     1      -0.318   9.541  18.054  0.00  0.00    +0.000 A 
ATOM      8  C   UNL     1       0.821   8.820  17.800  0.00  0.00    +0.000 A 
ATOM      9  C   UNL     1       2.009   9.495  17.951  0.00  0.00    +0.000 A 
ATOM     10  N   UNL     1       2.021  10.773  18.356  0.00  0.00    +0.000 NA
ATOM     11  C   UNL     1       2.207  13.195  19.506  0.00  0.00    +0.000 C 
ATOM     12  C   UNL     1       2.420  14.696  19.350  0.00  0.00    +0.000 C 
ATOM     13  F   UNL     1       2.665  14.978  18.036  0.00  0.00    +0.000 F 
ENDROOT
BRANCH   9  14
ATOM     14  N   UNL     1       3.211   8.871  17.582  0.00  0.00    +0.000 N 
ATOM     15  C   UNL     1       3.505   7.501  17.554  0.00  0.00    +0.000 A 
ATOM     16  C   UNL     1       2.849   6.591  18.388  0.00  0.00    +0.000 A 
ATOM     17  C   UNL     1       3.193   5.245  18.252  0.00  0.00    +0.000 A 
ATOM     18  C   UNL     1       4.203   4.849  17.389  0.00  0.00    +0.000 A 
ATOM     19  C   UNL     1       4.858   5.819  16.628  0.00  0.00    +0.000 A 
ATOM     20  N   UNL     1       4.492   7.130  16.707  0.00  0.00    +0.000 NA
ATOM     21  N   UNL     1       4.379   3.493  17.450  0.00  0.00    +0.000 NA
ATOM     22  C   UNL     1       3.482   3.039  18.305  0.00  0.00    +0.000 A 
ATOM     23  C   UNL     1       3.334   1.599  18.636  0.00  0.00    +0.000 C 
ATOM     24  N   UNL     1       2.713   4.073  18.812  0.00  0.00    +0.000 N 
ATOM     25  H   UNL     1       3.726   9.334  16.846  0.00  0.00    +0.000 HD
BRANCH  24  26
ATOM     26  C   UNL     1       1.552   4.006  19.701  0.00  0.00    +0.000 C 
ATOM     27  C   UNL     1       0.521   2.963  19.269  0.00  0.00    +0.000 C 
ATOM     28  C   UNL     1       1.917   3.869  21.178  0.00  0.00    +0.000 C 
ENDBRANCH  24  26
ENDBRANCH   9  14
BRANCH   1  30
ATOM     29  C   UNL     1       0.174  17.630  20.087  0.00  0.00    +0.000 C 
ATOM     30  O   UNL     1       1.286  16.888  19.605  0.00  0.00    +0.000 OA
ENDBRANCH   1  30
TORSDOF 3
ENDMDL
MODEL 7
REMARK VINA RESULT:      -6.7      4.114      8.911
REMARK  Name = 
REMARK  7 active torsions:
REMARK  status: ('A' for Active; 'I' for Inactive)
REMARK    1  A    between atoms: C_1  and  O_2
REMARK    2  A    between atoms: O_2  and  C_3
REMARK    3  A    between atoms: C_11  and  N_12
REMARK    4  A    between atoms: C_20  and  C_21
REMARK    5  A    between atoms: N_22  and  C_23
REMARK    6  A    between atoms: C_23  and  C_24
REMARK    7  A    between atoms: C_23  and  C_25
REMARK                            x       y       z     vdW  Elec       q    Type
REMARK                         _______ _______ _______ _____ _____    ______ ____
ROOT
ATOM      1  C   UNL     1       0.788  14.892  21.446  0.00  0.00    +0.000 C 
ATOM      2  C   UNL     1      -0.386  14.675  20.487  0.00  0.00    +0.000 C 
ATOM      3  C   UNL     1      -0.628  13.188  20.222  0.00  0.00    +0.000 C 
ATOM      4  N   UNL     1       0.611  12.573  19.766  0.00  0.00    +0.000 N 
ATOM      5  C   UNL     1       0.530  11.359  19.103  0.00  0.00    +0.000 A 
ATOM      6  N   UNL     1      -0.650  10.887  18.687  0.00  0.00    +0.000 NA
ATOM      7  C   UNL     1      -0.635   9.751  17.966  0.00  0.00    +0.000 A 
ATOM      8  C   UNL     1       0.509   9.067  17.642  0.00  0.00    +0.000 A 
ATOM      9  C   UNL     1       1.687   9.613  18.095  0.00  0.00    +0.000 A 
ATOM     10  N   UNL     1       1.681  10.730  18.835  0.00  0.00    +0.000 NA
ATOM     11  C   UNL     1       1.790  12.736  20.620  0.00  0.00    +0.000 C 
ATOM     12  C   UNL     1       2.052  14.210  20.907  0.00  0.00    +0.000 C 
ATOM     13  F   UNL     1       2.451  14.825  19.753  0.00  0.00    +0.000 F 
ENDROOT
BRANCH   9  14
ATOM     14  N   UNL     1       2.909   9.049  17.694  0.00  0.00    +0.000 N 
ATOM     15  C   UNL     1       3.279   7.697  17.680  0.00  0.00    +0.000 A 
ATOM     16  C   UNL     1       2.706   6.769  18.555  0.00  0.00    +0.000 A 
ATOM     17  C   UNL     1       3.120   5.442  18.431  0.00  0.00    +0.000 A 
ATOM     18  C   UNL     1       4.121   5.086  17.540  0.00  0.00    +0.000 A 
ATOM     19  C   UNL     1       4.693   6.076  16.737  0.00  0.00    +0.000 A 
ATOM     20  N   UNL     1       4.256   7.365  16.806  0.00  0.00    +0.000 NA
ATOM     21  N   UNL     1       4.376   3.744  17.619  0.00  0.00    +0.000 NA
ATOM     22  C   UNL     1       3.536   3.258  18.514  0.00  0.00    +0.000 A 
ATOM     23  C   UNL     1       3.483   1.819  18.877  0.00  0.00    +0.000 C 
ATOM     24  N   UNL     1       2.728   4.257  19.030  0.00  0.00    +0.000 N 
ATOM     25  H   UNL     1       3.371   9.525  16.932  0.00  0.00    +0.000 HD
BRANCH  24  26
ATOM     26  C   UNL     1       1.604   4.143  19.961  0.00  0.00    +0.000 C 
ATOM     27  C   UNL     1       0.549   3.133  19.512  0.00  0.00    +0.000 C 
ATOM     28  C   UNL     1       2.030   3.917  21.410  0.00  0.00    +0.000 C 
ENDBRANCH  24  26
ENDBRANCH   9  14
BRANCH   1  30
ATOM     29  C   UNL     1       2.029  16.660  22.486  0.00  0.00    +0.000 C 
ATOM     30  O   UNL     1       0.946  16.307  21.636  0.00  0.00    +0.000 OA
ENDBRANCH   1  30
TORSDOF 3
ENDMDL
MODEL 8
REMARK VINA RESULT:      -6.6      3.186      4.422
REMARK  Name = 
REMARK  7 active torsions:
REMARK  status: ('A' for Active; 'I' for Inactive)
REMARK    1  A    between atoms: C_1  and  O_2
REMARK    2  A    between atoms: O_2  and  C_3
REMARK    3  A    between atoms: C_11  and  N_12
REMARK    4  A    between atoms: C_20  and  C_21
REMARK    5  A    between atoms: N_22  and  C_23
REMARK    6  A    between atoms: C_23  and  C_24
REMARK    7  A    between atoms: C_23  and  C_25
REMARK                            x       y       z     vdW  Elec       q    Type
REMARK                         _______ _______ _______ _____ _____    ______ ____
ROOT
ATOM      1  C   UNL     1       3.785   3.647  19.053  0.00  0.00    +0.000 C 
ATOM      2  C   UNL     1       3.316   4.263  17.732  0.00  0.00    +0.000 C 
ATOM      3  C   UNL     1       3.368   5.791  17.775  0.00  0.00    +0.000 C 
ATOM      4  N   UNL     1       2.619   6.265  18.931  0.00  0.00    +0.000 N 
ATOM      5  C   UNL     1       2.206   7.588  18.942  0.00  0.00    +0.000 A 
ATOM      6  N   UNL     1       2.282   8.335  17.835  0.00  0.00    +0.000 NA
ATOM      7  C   UNL     1       1.771   9.577  17.900  0.00  0.00    +0.000 A 
ATOM      8  C   UNL     1       1.187  10.106  19.023  0.00  0.00    +0.000 A 
ATOM      9  C   UNL     1       1.135   9.281  20.121  0.00  0.00    +0.000 A 
ATOM     10  N   UNL     1       1.663   8.050  20.075  0.00  0.00    +0.000 NA
ATOM     11  C   UNL     1       2.997   5.722  20.238  0.00  0.00    +0.000 C 
ATOM     12  C   UNL     1       2.960   4.198  20.223  0.00  0.00    +0.000 C 
ATOM     13  F   UNL     1       1.663   3.784  20.109  0.00  0.00    +0.000 F 
ENDROOT
BRANCH   9  14
ATOM     14  N   UNL     1       0.436   9.697  21.266  0.00  0.00    +0.000 N 
ATOM     15  C   UNL     1       0.057  10.997  21.627  0.00  0.00    +0.000 A 
ATOM     16  C   UNL     1       0.771  12.118  21.195  0.00  0.00    +0.000 A 
ATOM     17  C   UNL     1       0.286  13.368  21.584  0.00  0.00    +0.000 A 
ATOM     18  C   UNL     1      -0.804  13.478  22.433  0.00  0.00    +0.000 A 
ATOM     19  C   UNL     1      -1.435  12.313  22.876  0.00  0.00    +0.000 A 
ATOM     20  N   UNL     1      -1.008  11.088  22.456  0.00  0.00    +0.000 NA
ATOM     21  N   UNL     1      -1.075  14.793  22.696  0.00  0.00    +0.000 NA
ATOM     22  C   UNL     1      -0.199  15.498  22.004  0.00  0.00    +0.000 A 
ATOM     23  C   UNL     1      -0.172  16.983  22.006  0.00  0.00    +0.000 C 
ATOM     24  N   UNL     1       0.648  14.670  21.287  0.00  0.00    +0.000 N 
ATOM     25  H   UNL     1      -0.257   9.045  21.604  0.00  0.00    +0.000 HD
BRANCH  24  26
ATOM     26  C   UNL     1       1.687  15.031  20.321  0.00  0.00    +0.000 C 
ATOM     27  C   UNL     1       3.069  14.490  20.691  0.00  0.00    +0.000 C 
ATOM     28  C   UNL     1       1.318  14.709  18.875  0.00  0.00    +0.000 C 
ENDBRANCH  24  26
ENDBRANCH   9  14
BRANCH   1  30
ATOM     29  C   UNL     1       2.924   1.779  17.822  0.00  0.00    +0.000 C 
ATOM     30  O   UNL     1       3.703   2.218  18.927  0.00  0.00    +0.000 OA
ENDBRANCH   1  30
TORSDOF 3
ENDMDL
MODEL 9
REMARK VINA RESULT:      -6.6      4.026      9.192
REMARK  Name = 
REMARK  7 active torsions:
REMARK  status: ('A' for Active; 'I' for Inactive)
REMARK    1  A    between atoms: C_1  and  O_2
REMARK    2  A    between atoms: O_2  and  C_3
REMARK    3  A    between atoms: C_11  and  N_12
REMARK    4  A    between atoms: C_20  and  C_21
REMARK    5  A    between atoms: N_22  and  C_23
REMARK    6  A    between atoms: C_23  and  C_24
REMARK    7  A    between atoms: C_23  and  C_25
REMARK                            x       y       z     vdW  Elec       q    Type
REMARK                         _______ _______ _______ _____ _____    ______ ____
ROOT
ATOM      1  C   UNL     1      -2.030  12.660  23.044  0.00  0.00    +0.000 C 
ATOM      2  C   UNL     1      -2.809  12.901  21.748  0.00  0.00    +0.000 C 
ATOM      3  C   UNL     1      -2.707  11.705  20.800  0.00  0.00    +0.000 C 
ATOM      4  N   UNL     1      -1.303  11.385  20.579  0.00  0.00    +0.000 N 
ATOM      5  C   UNL     1      -0.976  10.618  19.473  0.00  0.00    +0.000 A 
ATOM      6  N   UNL     1      -1.881  10.379  18.517  0.00  0.00    +0.000 NA
ATOM      7  C   UNL     1      -1.459   9.709  17.430  0.00  0.00    +0.000 A 
ATOM      8  C   UNL     1      -0.172   9.267  17.255  0.00  0.00    +0.000 A 
ATOM      9  C   UNL     1       0.707   9.552  18.273  0.00  0.00    +0.000 A 
ATOM     10  N   UNL     1       0.292  10.198  19.372  0.00  0.00    +0.000 NA
ATOM     11  C   UNL     1      -0.479  11.146  21.766  0.00  0.00    +0.000 C 
ATOM     12  C   UNL     1      -0.566  12.321  22.733  0.00  0.00    +0.000 C 
ATOM     13  F   UNL     1       0.049  13.406  22.175  0.00  0.00    +0.000 F 
ENDROOT
BRANCH   9  14
ATOM     14  N   UNL     1       2.069   9.253  18.115  0.00  0.00    +0.000 N 
ATOM     15  C   UNL     1       2.682   7.994  18.066  0.00  0.00    +0.000 A 
ATOM     16  C   UNL     1       2.124   6.880  18.700  0.00  0.00    +0.000 A 
ATOM     17  C   UNL     1       2.798   5.666  18.558  0.00  0.00    +0.000 A 
ATOM     18  C   UNL     1       4.011   5.596  17.891  0.00  0.00    +0.000 A 
ATOM     19  C   UNL     1       4.541   6.761  17.331  0.00  0.00    +0.000 A 
ATOM     20  N   UNL     1       3.865   7.941  17.412  0.00  0.00    +0.000 NA
ATOM     21  N   UNL     1       4.493   4.315  17.906  0.00  0.00    +0.000 NA
ATOM     22  C   UNL     1       3.591   3.587  18.539  0.00  0.00    +0.000 A 
ATOM     23  C   UNL     1       3.735   2.124  18.751  0.00  0.00    +0.000 C 
ATOM     24  N   UNL     1       2.519   4.365  18.943  0.00  0.00    +0.000 N 
ATOM     25  H   UNL     1       2.582   9.893  17.523  0.00  0.00    +0.000 HD
BRANCH  24  26
ATOM     26  C   UNL     1       1.268   3.950  19.578  0.00  0.00    +0.000 C 
ATOM     27  C   UNL     1       0.485   2.926  18.756  0.00  0.00    +0.000 C 
ATOM     28  C   UNL     1       1.435   3.508  21.030  0.00  0.00    +0.000 C 
ENDBRANCH  24  26
ENDBRANCH   9  14
BRANCH   1  30
ATOM     29  C   UNL     1      -3.519  14.276  24.003  0.00  0.00    +0.000 C 
ATOM     30  O   UNL     1      -2.177  13.827  23.870  0.00  0.00    +0.000 OA
ENDBRANCH   1  30
TORSDOF 3
ENDMDL
