MODEL 1
REMARK VINA RESULT:      -9.2      0.000      0.000
REMARK  Name = 
REMARK  6 active torsions:
REMARK  status: ('A' for Active; 'I' for Inactive)
REMARK    1  A    between atoms: C_2  and  C_3
REMARK    2  A    between atoms: C_3  and  C_4
REMARK    3  A    between atoms: C_4  and  C_5
REMARK    4  A    between atoms: N_11  and  C_12
REMARK    5  A    between atoms: C_16  and  S_17
REMARK    6  A    between atoms: S_17  and  N_20
REMARK                            x       y       z     vdW  Elec       q    Type
REMARK                         _______ _______ _______ _____ _____    ______ ____
ROOT
ATOM      1  C   UNL     1       6.325   6.508  16.827  0.00  0.00    +0.000 A 
ATOM      2  C   UNL     1       6.825   5.613  15.873  0.00  0.00    +0.000 A 
ATOM      3  C   UNL     1       6.159   4.413  15.581  0.00  0.00    +0.000 A 
ATOM      4  C   UNL     1       4.954   4.107  16.206  0.00  0.00    +0.000 A 
ATOM      5  C   UNL     1       4.434   5.001  17.142  0.00  0.00    +0.000 A 
ATOM      6  C   UNL     1       5.138   6.168  17.494  0.00  0.00    +0.000 A 
ENDROOT
BRANCH   1   9
ATOM      7  O   UNL     1       8.437   7.220  18.755  0.00  0.00    +0.000 OA
ATOM      8  C   UNL     1       7.942   8.046  17.986  0.00  0.00    +0.000 C 
ATOM      9  N   UNL     1       6.907   7.777  17.106  0.00  0.00    +0.000 N 
ATOM     10  H   UNL     1       6.518   8.552  16.586  0.00  0.00    +0.000 HD
BRANCH   8  11
ATOM     11  C   UNL     1       8.581   9.435  17.920  0.00  0.00    +0.000 C 
BRANCH  11  12
ATOM     12  C   UNL     1       9.021  10.110  19.216  0.00  0.00    +0.000 C 
BRANCH  12  13
ATOM     13  C   UNL     1      10.131  11.111  18.985  0.00  0.00    +0.000 A 
ATOM     14  C   UNL     1      10.893  11.601  20.064  0.00  0.00    +0.000 A 
ATOM     15  C   UNL     1      11.911  12.538  19.850  0.00  0.00    +0.000 A 
ATOM     16  C   UNL     1      12.177  13.007  18.565  0.00  0.00    +0.000 A 
ATOM     17  C   UNL     1      11.421  12.535  17.492  0.00  0.00    +0.000 A 
ATOM     18  C   UNL     1      10.408  11.598  17.701  0.00  0.00    +0.000 A 
ENDBRANCH  12  13
ENDBRANCH  11  12
ENDBRANCH   8  11
ENDBRANCH   1   9
BRANCH   5  19
ATOM     19  S   UNL     1       2.810   4.688  17.811  0.00  0.00    +0.000 S 
ATOM     20  O   UNL     1       2.123   5.956  17.896  0.00  0.00    +0.000 OA
ATOM     21  O   UNL     1       2.238   3.577  17.074  0.00  0.00    +0.000 OA
BRANCH  19  22
ATOM     22  N   UNL     1       3.133   4.150  19.399  0.00  0.00    +0.000 NA
ATOM     23  C   UNL     1       3.203   2.677  19.638  0.00  0.00    +0.000 C 
ATOM     24  C   UNL     1       1.808   2.059  19.767  0.00  0.00    +0.000 C 
ATOM     25  O   UNL     1       1.069   2.674  20.828  0.00  0.00    +0.000 OA
ATOM     26  C   UNL     1       0.942   4.092  20.643  0.00  0.00    +0.000 C 
ATOM     27  C   UNL     1       2.306   4.782  20.480  0.00  0.00    +0.000 C 
ENDBRANCH  19  22
ENDBRANCH   5  19
TORSDOF 6
ENDMDL
MODEL 2
REMARK VINA RESULT:      -9.0      1.268      1.540
REMARK  Name = 
REMARK  6 active torsions:
REMARK  status: ('A' for Active; 'I' for Inactive)
REMARK    1  A    between atoms: C_2  and  C_3
REMARK    2  A    between atoms: C_3  and  C_4
REMARK    3  A    between atoms: C_4  and  C_5
REMARK    4  A    between atoms: N_11  and  C_12
REMARK    5  A    between atoms: C_16  and  S_17
REMARK    6  A    between atoms: S_17  and  N_20
REMARK                            x       y       z     vdW  Elec       q    Type
REMARK                         _______ _______ _______ _____ _____    ______ ____
ROOT
ATOM      1  C   UNL     1       6.363   6.260  16.684  0.00  0.00    +0.000 A 
ATOM      2  C   UNL     1       6.338   5.774  15.371  0.00  0.00    +0.000 A 
ATOM      3  C   UNL     1       5.780   4.523  15.068  0.00  0.00    +0.000 A 
ATOM      4  C   UNL     1       5.195   3.752  16.068  0.00  0.00    +0.000 A 
ATOM      5  C   UNL     1       5.194   4.235  17.377  0.00  0.00    +0.000 A 
ATOM      6  C   UNL     1       5.821   5.454  17.697  0.00  0.00    +0.000 A 
ENDROOT
BRANCH   1   9
ATOM      7  O   UNL     1       8.376   7.031  18.693  0.00  0.00    +0.000 OA
ATOM      8  C   UNL     1       7.830   7.856  17.958  0.00  0.00    +0.000 C 
ATOM      9  N   UNL     1       6.836   7.554  17.042  0.00  0.00    +0.000 N 
ATOM     10  H   UNL     1       6.396   8.323  16.556  0.00  0.00    +0.000 HD
BRANCH   8  11
ATOM     11  C   UNL     1       8.356   9.293  17.979  0.00  0.00    +0.000 C 
BRANCH  11  12
ATOM     12  C   UNL     1       8.895   9.864  19.288  0.00  0.00    +0.000 C 
BRANCH  12  13
ATOM     13  C   UNL     1      10.008  10.863  19.053  0.00  0.00    +0.000 A 
ATOM     14  C   UNL     1      10.727  11.404  20.137  0.00  0.00    +0.000 A 
ATOM     15  C   UNL     1      11.747  12.339  19.920  0.00  0.00    +0.000 A 
ATOM     16  C   UNL     1      12.056  12.753  18.626  0.00  0.00    +0.000 A 
ATOM     17  C   UNL     1      11.343  12.231  17.548  0.00  0.00    +0.000 A 
ATOM     18  C   UNL     1      10.328  11.296  17.761  0.00  0.00    +0.000 A 
ENDBRANCH  12  13
ENDBRANCH  11  12
ENDBRANCH   8  11
ENDBRANCH   1   9
BRANCH   5  19
ATOM     19  S   UNL     1       4.295   3.326  18.622  0.00  0.00    +0.000 S 
ATOM     20  O   UNL     1       3.771   2.134  17.996  0.00  0.00    +0.000 OA
ATOM     21  O   UNL     1       5.140   3.241  19.798  0.00  0.00    +0.000 OA
BRANCH  19  22
ATOM     22  N   UNL     1       2.984   4.354  18.993  0.00  0.00    +0.000 NA
ATOM     23  C   UNL     1       2.603   4.511  20.429  0.00  0.00    +0.000 C 
ATOM     24  C   UNL     1       1.755   3.335  20.921  0.00  0.00    +0.000 C 
ATOM     25  O   UNL     1       0.568   3.192  20.131  0.00  0.00    +0.000 OA
ATOM     26  C   UNL     1       0.868   3.009  18.740  0.00  0.00    +0.000 C 
ATOM     27  C   UNL     1       1.741   4.142  18.179  0.00  0.00    +0.000 C 
ENDBRANCH  19  22
ENDBRANCH   5  19
TORSDOF 6
ENDMDL
MODEL 3
REMARK VINA RESULT:      -8.6      1.580      2.039
REMARK  Name = 
REMARK  6 active torsions:
REMARK  status: ('A' for Active; 'I' for Inactive)
REMARK    1  A    between atoms: C_2  and  C_3
REMARK    2  A    between atoms: C_3  and  C_4
REMARK    3  A    between atoms: C_4  and  C_5
REMARK    4  A    between atoms: N_11  and  C_12
REMARK    5  A    between atoms: C_16  and  S_17
REMARK    6  A    between atoms: S_17  and  N_20
REMARK                            x       y       z     vdW  Elec       q    Type
REMARK                         _______ _______ _______ _____ _____    ______ ____
ROOT
ATOM      1  C   UNL     1       6.933   5.382  17.017  0.00  0.00    +0.000 A 
ATOM      2  C   UNL     1       6.830   5.089  15.651  0.00  0.00    +0.000 A 
ATOM      3  C   UNL     1       5.911   4.139  15.178  0.00  0.00    +0.000 A 
ATOM      4  C   UNL     1       5.047   3.497  16.060  0.00  0.00    +0.000 A 
ATOM      5  C   UNL     1       5.125   3.797  17.420  0.00  0.00    +0.000 A 
ATOM      6  C   UNL     1       6.097   4.691  17.907  0.00  0.00    +0.000 A 
ENDROOT
BRANCH   1   9
ATOM      7  O   UNL     1       6.697   8.314  16.833  0.00  0.00    +0.000 OA
ATOM      8  C   UNL     1       7.592   7.764  17.480  0.00  0.00    +0.000 C 
ATOM      9  N   UNL     1       7.782   6.395  17.548  0.00  0.00    +0.000 N 
ATOM     10  H   UNL     1       8.601   6.058  18.035  0.00  0.00    +0.000 HD
BRANCH   8  11
ATOM     11  C   UNL     1       8.488   8.646  18.352  0.00  0.00    +0.000 C 
BRANCH  11  12
ATOM     12  C   UNL     1       8.376  10.163  18.233  0.00  0.00    +0.000 C 
BRANCH  12  13
ATOM     13  C   UNL     1       9.613  10.865  18.749  0.00  0.00    +0.000 A 
ATOM     14  C   UNL     1       9.759  11.145  20.122  0.00  0.00    +0.000 A 
ATOM     15  C   UNL     1      10.898  11.807  20.597  0.00  0.00    +0.000 A 
ATOM     16  C   UNL     1      11.899  12.206  19.714  0.00  0.00    +0.000 A 
ATOM     17  C   UNL     1      11.758  11.942  18.351  0.00  0.00    +0.000 A 
ATOM     18  C   UNL     1      10.626  11.279  17.875  0.00  0.00    +0.000 A 
ENDBRANCH  12  13
ENDBRANCH  11  12
ENDBRANCH   8  11
ENDBRANCH   1   9
BRANCH   5  19
ATOM     19  S   UNL     1       3.905   3.101  18.519  0.00  0.00    +0.000 S 
ATOM     20  O   UNL     1       3.601   1.770  18.045  0.00  0.00    +0.000 OA
ATOM     21  O   UNL     1       4.362   3.322  19.878  0.00  0.00    +0.000 OA
BRANCH  19  22
ATOM     22  N   UNL     1       2.533   4.084  18.263  0.00  0.00    +0.000 NA
ATOM     23  C   UNL     1       2.712   5.565  18.333  0.00  0.00    +0.000 C 
ATOM     24  C   UNL     1       2.736   6.065  19.780  0.00  0.00    +0.000 C 
ATOM     25  O   UNL     1       1.533   5.702  20.469  0.00  0.00    +0.000 OA
ATOM     26  C   UNL     1       1.318   4.283  20.461  0.00  0.00    +0.000 C 
ATOM     27  C   UNL     1       1.306   3.703  19.038  0.00  0.00    +0.000 C 
ENDBRANCH  19  22
ENDBRANCH   5  19
TORSDOF 6
ENDMDL
MODEL 4
REMARK VINA RESULT:      -8.6      1.458      1.890
REMARK  Name = 
REMARK  6 active torsions:
REMARK  status: ('A' for Active; 'I' for Inactive)
REMARK    1  A    between atoms: C_2  and  C_3
REMARK    2  A    between atoms: C_3  and  C_4
REMARK    3  A    between atoms: C_4  and  C_5
REMARK    4  A    between atoms: N_11  and  C_12
REMARK    5  A    between atoms: C_16  and  S_17
REMARK    6  A    between atoms: S_17  and  N_20
REMARK                            x       y       z     vdW  Elec       q    Type
REMARK                         _______ _______ _______ _____ _____    ______ ____
ROOT
ATOM      1  C   UNL     1       6.228   6.033  16.589  0.00  0.00    +0.000 A 
ATOM      2  C   UNL     1       6.384   5.450  15.325  0.00  0.00    +0.000 A 
ATOM      3  C   UNL     1       5.862   4.179  15.040  0.00  0.00    +0.000 A 
ATOM      4  C   UNL     1       5.134   3.485  16.002  0.00  0.00    +0.000 A 
ATOM      5  C   UNL     1       4.953   4.065  17.257  0.00  0.00    +0.000 A 
ATOM      6  C   UNL     1       5.541   5.305  17.572  0.00  0.00    +0.000 A 
ENDROOT
BRANCH   1   9
ATOM      7  O   UNL     1       8.249   6.918  18.542  0.00  0.00    +0.000 OA
ATOM      8  C   UNL     1       7.658   7.708  17.803  0.00  0.00    +0.000 C 
ATOM      9  N   UNL     1       6.659   7.351  16.913  0.00  0.00    +0.000 N 
ATOM     10  H   UNL     1       6.180   8.093  16.422  0.00  0.00    +0.000 HD
BRANCH   8  11
ATOM     11  C   UNL     1       8.129   9.164  17.788  0.00  0.00    +0.000 C 
BRANCH  11  12
ATOM     12  C   UNL     1       8.984   9.677  18.943  0.00  0.00    +0.000 C 
BRANCH  12  13
ATOM     13  C   UNL     1       9.632  11.005  18.621  0.00  0.00    +0.000 A 
ATOM     14  C   UNL     1      10.941  11.290  19.056  0.00  0.00    +0.000 A 
ATOM     15  C   UNL     1      11.535  12.525  18.770  0.00  0.00    +0.000 A 
ATOM     16  C   UNL     1      10.832  13.494  18.056  0.00  0.00    +0.000 A 
ATOM     17  C   UNL     1       9.532  13.225  17.629  0.00  0.00    +0.000 A 
ATOM     18  C   UNL     1       8.939  11.993  17.911  0.00  0.00    +0.000 A 
ENDBRANCH  12  13
ENDBRANCH  11  12
ENDBRANCH   8  11
ENDBRANCH   1   9
BRANCH   5  19
ATOM     19  S   UNL     1       3.879   3.251  18.426  0.00  0.00    +0.000 S 
ATOM     20  O   UNL     1       3.702   1.888  17.979  0.00  0.00    +0.000 OA
ATOM     21  O   UNL     1       4.378   3.541  19.757  0.00  0.00    +0.000 OA
BRANCH  19  22
ATOM     22  N   UNL     1       2.393   4.070  18.236  0.00  0.00    +0.000 NA
ATOM     23  C   UNL     1       2.400   5.561  18.328  0.00  0.00    +0.000 C 
ATOM     24  C   UNL     1       2.418   6.038  19.783  0.00  0.00    +0.000 C 
ATOM     25  O   UNL     1       1.293   5.526  20.506  0.00  0.00    +0.000 OA
ATOM     26  C   UNL     1       1.244   4.092  20.479  0.00  0.00    +0.000 C 
ATOM     27  C   UNL     1       1.248   3.536  19.046  0.00  0.00    +0.000 C 
ENDBRANCH  19  22
ENDBRANCH   5  19
TORSDOF 6
ENDMDL
MODEL 5
REMARK VINA RESULT:      -8.5      1.012      1.095
REMARK  Name = 
REMARK  6 active torsions:
REMARK  status: ('A' for Active; 'I' for Inactive)
REMARK    1  A    between atoms: C_2  and  C_3
REMARK    2  A    between atoms: C_3  and  C_4
REMARK    3  A    between atoms: C_4  and  C_5
REMARK    4  A    between atoms: N_11  and  C_12
REMARK    5  A    between atoms: C_16  and  S_17
REMARK    6  A    between atoms: S_17  and  N_20
REMARK                            x       y       z     vdW  Elec       q    Type
REMARK                         _______ _______ _______ _____ _____    ______ ____
ROOT
ATOM      1  C   UNL     1       6.296   5.912  16.521  0.00  0.00    +0.000 A 
ATOM      2  C   UNL     1       6.728   5.248  15.366  0.00  0.00    +0.000 A 
ATOM      3  C   UNL     1       6.176   4.016  14.985  0.00  0.00    +0.000 A 
ATOM      4  C   UNL     1       5.147   3.445  15.729  0.00  0.00    +0.000 A 
ATOM      5  C   UNL     1       4.692   4.108  16.869  0.00  0.00    +0.000 A 
ATOM      6  C   UNL     1       5.297   5.305  17.297  0.00  0.00    +0.000 A 
ENDROOT
BRANCH   1   9
ATOM      7  O   UNL     1       8.114   6.668  18.713  0.00  0.00    +0.000 OA
ATOM      8  C   UNL     1       7.658   7.495  17.920  0.00  0.00    +0.000 C 
ATOM      9  N   UNL     1       6.755   7.201  16.913  0.00  0.00    +0.000 N 
ATOM     10  H   UNL     1       6.379   7.973  16.379  0.00  0.00    +0.000 HD
BRANCH   8  11
ATOM     11  C   UNL     1       8.206   8.923  17.982  0.00  0.00    +0.000 C 
BRANCH  11  12
ATOM     12  C   UNL     1       9.005   9.357  19.208  0.00  0.00    +0.000 C 
BRANCH  12  13
ATOM     13  C   UNL     1       9.555  10.759  19.058  0.00  0.00    +0.000 A 
ATOM     14  C   UNL     1       9.719  11.590  20.183  0.00  0.00    +0.000 A 
ATOM     15  C   UNL     1      10.214  12.892  20.041  0.00  0.00    +0.000 A 
ATOM     16  C   UNL     1      10.543  13.385  18.780  0.00  0.00    +0.000 A 
ATOM     17  C   UNL     1      10.374  12.573  17.659  0.00  0.00    +0.000 A 
ATOM     18  C   UNL     1       9.884  11.274  17.798  0.00  0.00    +0.000 A 
ENDBRANCH  12  13
ENDBRANCH  11  12
ENDBRANCH   8  11
ENDBRANCH   1   9
BRANCH   5  19
ATOM     19  S   UNL     1       3.264   3.461  17.719  0.00  0.00    +0.000 S 
ATOM     20  O   UNL     1       2.090   3.988  17.061  0.00  0.00    +0.000 OA
ATOM     21  O   UNL     1       3.454   2.031  17.872  0.00  0.00    +0.000 OA
BRANCH  19  22
ATOM     22  N   UNL     1       3.370   4.171  19.268  0.00  0.00    +0.000 NA
ATOM     23  C   UNL     1       3.697   3.283  20.424  0.00  0.00    +0.000 C 
ATOM     24  C   UNL     1       2.466   2.517  20.915  0.00  0.00    +0.000 C 
ATOM     25  O   UNL     1       1.418   3.417  21.295  0.00  0.00    +0.000 OA
ATOM     26  C   UNL     1       1.037   4.283  20.215  0.00  0.00    +0.000 C 
ATOM     27  C   UNL     1       2.230   5.070  19.651  0.00  0.00    +0.000 C 
ENDBRANCH  19  22
ENDBRANCH   5  19
TORSDOF 6
ENDMDL
MODEL 6
REMARK VINA RESULT:      -8.5      0.947      1.327
REMARK  Name = 
REMARK  6 active torsions:
REMARK  status: ('A' for Active; 'I' for Inactive)
REMARK    1  A    between atoms: C_2  and  C_3
REMARK    2  A    between atoms: C_3  and  C_4
REMARK    3  A    between atoms: C_4  and  C_5
REMARK    4  A    between atoms: N_11  and  C_12
REMARK    5  A    between atoms: C_16  and  S_17
REMARK    6  A    between atoms: S_17  and  N_20
REMARK                            x       y       z     vdW  Elec       q    Type
REMARK                         _______ _______ _______ _____ _____    ______ ____
ROOT
ATOM      1  C   UNL     1       6.737   5.684  17.481  0.00  0.00    +0.000 A 
ATOM      2  C   UNL     1       6.954   4.765  16.446  0.00  0.00    +0.000 A 
ATOM      3  C   UNL     1       5.925   3.930  15.985  0.00  0.00    +0.000 A 
ATOM      4  C   UNL     1       4.644   4.030  16.522  0.00  0.00    +0.000 A 
ATOM      5  C   UNL     1       4.410   4.957  17.537  0.00  0.00    +0.000 A 
ATOM      6  C   UNL     1       5.457   5.742  18.055  0.00  0.00    +0.000 A 
ENDROOT
BRANCH   1   9
ATOM      7  O   UNL     1       6.981   8.565  16.915  0.00  0.00    +0.000 OA
ATOM      8  C   UNL     1       7.749   7.977  17.680  0.00  0.00    +0.000 C 
ATOM      9  N   UNL     1       7.714   6.616  17.932  0.00  0.00    +0.000 N 
ATOM     10  H   UNL     1       8.448   6.225  18.506  0.00  0.00    +0.000 HD
BRANCH   8  11
ATOM     11  C   UNL     1       8.738   8.819  18.489  0.00  0.00    +0.000 C 
BRANCH  11  12
ATOM     12  C   UNL     1       8.532  10.329  18.570  0.00  0.00    +0.000 C 
BRANCH  12  13
ATOM     13  C   UNL     1       9.830  11.065  18.820  0.00  0.00    +0.000 A 
ATOM     14  C   UNL     1      10.655  11.450  17.745  0.00  0.00    +0.000 A 
ATOM     15  C   UNL     1      11.863  12.118  17.978  0.00  0.00    +0.000 A 
ATOM     16  C   UNL     1      12.269  12.402  19.281  0.00  0.00    +0.000 A 
ATOM     17  C   UNL     1      11.464  12.015  20.352  0.00  0.00    +0.000 A 
ATOM     18  C   UNL     1      10.257  11.352  20.122  0.00  0.00    +0.000 A 
ENDBRANCH  12  13
ENDBRANCH  11  12
ENDBRANCH   8  11
ENDBRANCH   1   9
BRANCH   5  19
ATOM     19  S   UNL     1       2.734   5.200  18.100  0.00  0.00    +0.000 S 
ATOM     20  O   UNL     1       2.464   6.619  18.062  0.00  0.00    +0.000 OA
ATOM     21  O   UNL     1       1.891   4.261  17.386  0.00  0.00    +0.000 OA
BRANCH  19  22
ATOM     22  N   UNL     1       2.791   4.712  19.735  0.00  0.00    +0.000 NA
ATOM     23  C   UNL     1       3.549   3.469  20.069  0.00  0.00    +0.000 C 
ATOM     24  C   UNL     1       2.729   2.211  19.774  0.00  0.00    +0.000 C 
ATOM     25  O   UNL     1       1.495   2.219  20.502  0.00  0.00    +0.000 OA
ATOM     26  C   UNL     1       0.704   3.380  20.204  0.00  0.00    +0.000 C 
ATOM     27  C   UNL     1       1.472   4.687  20.452  0.00  0.00    +0.000 C 
ENDBRANCH  19  22
ENDBRANCH   5  19
TORSDOF 6
ENDMDL
MODEL 7
REMARK VINA RESULT:      -8.5      1.255      1.488
REMARK  Name = 
REMARK  6 active torsions:
REMARK  status: ('A' for Active; 'I' for Inactive)
REMARK    1  A    between atoms: C_2  and  C_3
REMARK    2  A    between atoms: C_3  and  C_4
REMARK    3  A    between atoms: C_4  and  C_5
REMARK    4  A    between atoms: N_11  and  C_12
REMARK    5  A    between atoms: C_16  and  S_17
REMARK    6  A    between atoms: S_17  and  N_20
REMARK                            x       y       z     vdW  Elec       q    Type
REMARK                         _______ _______ _______ _____ _____    ______ ____
ROOT
ATOM      1  C   UNL     1       6.923   5.373  16.502  0.00  0.00    +0.000 A 
ATOM      2  C   UNL     1       7.024   4.885  15.193  0.00  0.00    +0.000 A 
ATOM      3  C   UNL     1       6.141   3.907  14.712  0.00  0.00    +0.000 A 
ATOM      4  C   UNL     1       5.110   3.431  15.517  0.00  0.00    +0.000 A 
ATOM      5  C   UNL     1       4.986   3.926  16.815  0.00  0.00    +0.000 A 
ATOM      6  C   UNL     1       5.917   4.850  17.327  0.00  0.00    +0.000 A 
ENDROOT
BRANCH   1   9
ATOM      7  O   UNL     1       6.211   8.172  17.089  0.00  0.00    +0.000 OA
ATOM      8  C   UNL     1       7.330   7.712  17.332  0.00  0.00    +0.000 C 
ATOM      9  N   UNL     1       7.732   6.424  17.020  0.00  0.00    +0.000 N 
ATOM     10  H   UNL     1       8.700   6.182  17.183  0.00  0.00    +0.000 HD
BRANCH   8  11
ATOM     11  C   UNL     1       8.305   8.584  18.126  0.00  0.00    +0.000 C 
BRANCH  11  12
ATOM     12  C   UNL     1       8.395  10.073  17.806  0.00  0.00    +0.000 C 
BRANCH  12  13
ATOM     13  C   UNL     1       9.493  10.755  18.593  0.00  0.00    +0.000 A 
ATOM     14  C   UNL     1       9.385  10.910  19.989  0.00  0.00    +0.000 A 
ATOM     15  C   UNL     1      10.395  11.555  20.714  0.00  0.00    +0.000 A 
ATOM     16  C   UNL     1      11.517  12.060  20.060  0.00  0.00    +0.000 A 
ATOM     17  C   UNL     1      11.628  11.920  18.677  0.00  0.00    +0.000 A 
ATOM     18  C   UNL     1      10.624  11.275  17.952  0.00  0.00    +0.000 A 
ENDBRANCH  12  13
ENDBRANCH  11  12
ENDBRANCH   8  11
ENDBRANCH   1   9
BRANCH   5  19
ATOM     19  S   UNL     1       3.567   3.441  17.782  0.00  0.00    +0.000 S 
ATOM     20  O   UNL     1       2.466   4.292  17.394  0.00  0.00    +0.000 OA
ATOM     21  O   UNL     1       3.457   1.997  17.706  0.00  0.00    +0.000 OA
BRANCH  19  22
ATOM     22  N   UNL     1       4.017   3.847  19.378  0.00  0.00    +0.000 NA
ATOM     23  C   UNL     1       3.863   2.804  20.435  0.00  0.00    +0.000 C 
ATOM     24  C   UNL     1       2.416   2.703  20.924  0.00  0.00    +0.000 C 
ATOM     25  O   UNL     1       1.956   3.960  21.432  0.00  0.00    +0.000 OA
ATOM     26  C   UNL     1       2.052   5.004  20.451  0.00  0.00    +0.000 C 
ATOM     27  C   UNL     1       3.477   5.149  19.894  0.00  0.00    +0.000 C 
ENDBRANCH  19  22
ENDBRANCH   5  19
TORSDOF 6
ENDMDL
MODEL 8
REMARK VINA RESULT:      -8.4      1.212      1.487
REMARK  Name = 
REMARK  6 active torsions:
REMARK  status: ('A' for Active; 'I' for Inactive)
REMARK    1  A    between atoms: C_2  and  C_3
REMARK    2  A    between atoms: C_3  and  C_4
REMARK    3  A    between atoms: C_4  and  C_5
REMARK    4  A    between atoms: N_11  and  C_12
REMARK    5  A    between atoms: C_16  and  S_17
REMARK    6  A    between atoms: S_17  and  N_20
REMARK                            x       y       z     vdW  Elec       q    Type
REMARK                         _______ _______ _______ _____ _____    ______ ____
ROOT
ATOM      1  C   UNL     1       5.753   6.182  16.846  0.00  0.00    +0.000 A 
ATOM      2  C   UNL     1       6.085   5.345  15.773  0.00  0.00    +0.000 A 
ATOM      3  C   UNL     1       5.350   4.180  15.504  0.00  0.00    +0.000 A 
ATOM      4  C   UNL     1       4.239   3.855  16.276  0.00  0.00    +0.000 A 
ATOM      5  C   UNL     1       3.885   4.692  17.334  0.00  0.00    +0.000 A 
ATOM      6  C   UNL     1       4.665   5.819  17.655  0.00  0.00    +0.000 A 
ENDROOT
BRANCH   1   9
ATOM      7  O   UNL     1       8.068   6.738  18.583  0.00  0.00    +0.000 OA
ATOM      8  C   UNL     1       7.529   7.614  17.902  0.00  0.00    +0.000 C 
ATOM      9  N   UNL     1       6.405   7.418  17.118  0.00  0.00    +0.000 N 
ATOM     10  H   UNL     1       5.995   8.228  16.674  0.00  0.00    +0.000 HD
BRANCH   8  11
ATOM     11  C   UNL     1       8.209   8.984  17.832  0.00  0.00    +0.000 C 
BRANCH  11  12
ATOM     12  C   UNL     1       9.076   9.441  19.002  0.00  0.00    +0.000 C 
BRANCH  12  13
ATOM     13  C   UNL     1       9.465  10.898  18.882  0.00  0.00    +0.000 A 
ATOM     14  C   UNL     1      10.362  11.479  19.799  0.00  0.00    +0.000 A 
ATOM     15  C   UNL     1      10.710  12.832  19.696  0.00  0.00    +0.000 A 
ATOM     16  C   UNL     1      10.164  13.623  18.687  0.00  0.00    +0.000 A 
ATOM     17  C   UNL     1       9.267  13.059  17.780  0.00  0.00    +0.000 A 
ATOM     18  C   UNL     1       8.921  11.710  17.879  0.00  0.00    +0.000 A 
ENDBRANCH  12  13
ENDBRANCH  11  12
ENDBRANCH   8  11
ENDBRANCH   1   9
BRANCH   5  19
ATOM     19  S   UNL     1       2.366   4.364  18.210  0.00  0.00    +0.000 S 
ATOM     20  O   UNL     1       2.326   5.244  19.355  0.00  0.00    +0.000 OA
ATOM     21  O   UNL     1       1.290   4.358  17.237  0.00  0.00    +0.000 OA
BRANCH  19  22
ATOM     22  N   UNL     1       2.571   2.766  18.773  0.00  0.00    +0.000 NA
ATOM     23  C   UNL     1       1.537   2.212  19.698  0.00  0.00    +0.000 C 
ATOM     24  C   UNL     1       1.748   2.691  21.136  0.00  0.00    +0.000 C 
ATOM     25  O   UNL     1       3.050   2.328  21.613  0.00  0.00    +0.000 OA
ATOM     26  C   UNL     1       4.093   2.856  20.780  0.00  0.00    +0.000 C 
ATOM     27  C   UNL     1       3.933   2.436  19.311  0.00  0.00    +0.000 C 
ENDBRANCH  19  22
ENDBRANCH   5  19
TORSDOF 6
ENDMDL
MODEL 9
REMARK VINA RESULT:      -8.3      1.114      1.549
REMARK  Name = 
REMARK  6 active torsions:
REMARK  status: ('A' for Active; 'I' for Inactive)
REMARK    1  A    between atoms: C_2  and  C_3
REMARK    2  A    between atoms: C_3  and  C_4
REMARK    3  A    between atoms: C_4  and  C_5
REMARK    4  A    between atoms: N_11  and  C_12
REMARK    5  A    between atoms: C_16  and  S_17
REMARK    6  A    between atoms: S_17  and  N_20
REMARK                            x       y       z     vdW  Elec       q    Type
REMARK                         _______ _______ _______ _____ _____    ______ ____
ROOT
ATOM      1  C   UNL     1       6.561   5.714  16.582  0.00  0.00    +0.000 A 
ATOM      2  C   UNL     1       6.832   5.145  15.331  0.00  0.00    +0.000 A 
ATOM      3  C   UNL     1       6.092   4.052  14.854  0.00  0.00    +0.000 A 
ATOM      4  C   UNL     1       5.037   3.536  15.600  0.00  0.00    +0.000 A 
ATOM      5  C   UNL     1       4.744   4.109  16.838  0.00  0.00    +0.000 A 
ATOM      6  C   UNL     1       5.532   5.155  17.354  0.00  0.00    +0.000 A 
ENDROOT
BRANCH   1   9
ATOM      7  O   UNL     1       7.841   6.162  19.199  0.00  0.00    +0.000 OA
ATOM      8  C   UNL     1       7.853   7.012  18.305  0.00  0.00    +0.000 C 
ATOM      9  N   UNL     1       7.217   6.874  17.083  0.00  0.00    +0.000 N 
ATOM     10  H   UNL     1       7.218   7.671  16.461  0.00  0.00    +0.000 HD
BRANCH   8  11
ATOM     11  C   UNL     1       8.718   8.257  18.515  0.00  0.00    +0.000 C 
BRANCH  11  12
ATOM     12  C   UNL     1       8.234   9.595  17.965  0.00  0.00    +0.000 C 
BRANCH  12  13
ATOM     13  C   UNL     1       9.003  10.759  18.551  0.00  0.00    +0.000 A 
ATOM     14  C   UNL     1       9.176  11.948  17.816  0.00  0.00    +0.000 A 
ATOM     15  C   UNL     1       9.901  13.019  18.354  0.00  0.00    +0.000 A 
ATOM     16  C   UNL     1      10.469  12.917  19.622  0.00  0.00    +0.000 A 
ATOM     17  C   UNL     1      10.311  11.740  20.353  0.00  0.00    +0.000 A 
ATOM     18  C   UNL     1       9.586  10.672  19.821  0.00  0.00    +0.000 A 
ENDBRANCH  12  13
ENDBRANCH  11  12
ENDBRANCH   8  11
ENDBRANCH   1   9
BRANCH   5  19
ATOM     19  S   UNL     1       3.288   3.558  17.710  0.00  0.00    +0.000 S 
ATOM     20  O   UNL     1       2.206   4.448  17.357  0.00  0.00    +0.000 OA
ATOM     21  O   UNL     1       3.172   2.126  17.509  0.00  0.00    +0.000 OA
BRANCH  19  22
ATOM     22  N   UNL     1       3.684   3.824  19.350  0.00  0.00    +0.000 NA
ATOM     23  C   UNL     1       3.508   2.690  20.305  0.00  0.00    +0.000 C 
ATOM     24  C   UNL     1       2.048   2.535  20.736  0.00  0.00    +0.000 C 
ATOM     25  O   UNL     1       1.558   3.739  21.339  0.00  0.00    +0.000 OA
ATOM     26  C   UNL     1       1.675   4.866  20.458  0.00  0.00    +0.000 C 
ATOM     27  C   UNL     1       3.114   5.071  19.961  0.00  0.00    +0.000 C 
ENDBRANCH  19  22
ENDBRANCH   5  19
TORSDOF 6
ENDMDL
