MODEL 1
REMARK VINA RESULT:      -8.4      0.000      0.000
REMARK  Name = 
REMARK  9 active torsions:
REMARK  status: ('A' for Active; 'I' for Inactive)
REMARK    1  A    between atoms: C_1  and  C_2
REMARK    2  A    between atoms: C_2  and  C_3
REMARK    3  A    between atoms: C_3  and  N_4
REMARK    4  A    between atoms: N_4  and  C_5
REMARK    5  A    between atoms: C_5  and  C_6
REMARK    6  A    between atoms: C_6  and  C_7
REMARK    7  A    between atoms: C_8  and  C_10
REMARK    8  A    between atoms: C_15  and  C_16
REMARK    9  A    between atoms: N_18  and  C_19
REMARK                            x       y       z     vdW  Elec       q    Type
REMARK                         _______ _______ _______ _____ _____    ______ ____
ROOT
ATOM      1  C   UNL     1       3.296   5.572  17.859  0.00  0.00    +0.000 C 
ATOM      2  C   UNL     1       3.466   6.921  17.845  0.00  0.00    +0.000 C 
ATOM      3  C   UNL     1       2.543   7.875  18.509  0.00  0.00    +0.000 A 
ATOM      4  C   UNL     1       2.208   9.045  17.811  0.00  0.00    +0.000 A 
ATOM      5  C   UNL     1       1.256   9.932  18.327  0.00  0.00    +0.000 A 
ATOM      6  C   UNL     1       0.635   9.676  19.555  0.00  0.00    +0.000 A 
ATOM      7  C   UNL     1       0.993   8.542  20.280  0.00  0.00    +0.000 A 
ATOM      8  C   UNL     1       1.947   7.641  19.774  0.00  0.00    +0.000 A 
ATOM      9  N   UNL     1       2.240   6.542  20.602  0.00  0.00    +0.000 NA
ATOM     10  C   UNL     1       2.308   5.349  20.095  0.00  0.00    +0.000 C 
ATOM     11  N   UNL     1       2.575   4.302  20.937  0.00  0.00    +0.000 N 
ATOM     12  C   UNL     1       2.105   5.052  18.617  0.00  0.00    +0.000 C 
ATOM     13  H   UNL     1       2.920   4.612  21.840  0.00  0.00    +0.000 HD
ATOM     14  H   UNL     1       3.091   3.517  20.559  0.00  0.00    +0.000 HD
ENDROOT
BRANCH   6  15
ATOM     15  C   UNL     1      -0.456  10.587  19.992  0.00  0.00    +0.000 C 
ATOM     16  O   UNL     1      -1.401  10.734  19.219  0.00  0.00    +0.000 OA
ATOM     17  N   UNL     1      -0.286  11.230  21.207  0.00  0.00    +0.000 N 
ATOM     18  H   UNL     1       0.616  11.150  21.654  0.00  0.00    +0.000 HD
BRANCH  17  19
ATOM     19  C   UNL     1      -1.195  12.161  21.771  0.00  0.00    +0.000 A 
ATOM     20  C   UNL     1      -1.303  13.481  21.340  0.00  0.00    +0.000 A 
ATOM     21  C   UNL     1      -2.172  14.332  22.005  0.00  0.00    +0.000 A 
ATOM     22  N   UNL     1      -2.943  13.957  23.046  0.00  0.00    +0.000 NA
ATOM     23  C   UNL     1      -2.843  12.667  23.428  0.00  0.00    +0.000 A 
ATOM     24  C   UNL     1      -2.007  11.739  22.822  0.00  0.00    +0.000 A 
ENDBRANCH  17  19
ENDBRANCH   6  15
BRANCH   1  26
ATOM     25  N   UNL     1       5.578   5.288  16.673  0.00  0.00    +0.000 N 
ATOM     26  C   UNL     1       4.331   4.777  17.067  0.00  0.00    +0.000 C 
ATOM     27  O   UNL     1       4.043   3.609  16.773  0.00  0.00    +0.000 OA
BRANCH  25  28
ATOM     28  C   UNL     1       6.498   4.368  15.973  0.00  0.00    +0.000 C 
BRANCH  28  30
ATOM     29  C   UNL     1       5.975   3.831  13.520  0.00  0.00    +0.000 C 
ATOM     30  C   UNL     1       6.767   4.688  14.494  0.00  0.00    +0.000 C 
ENDBRANCH  28  30
ENDBRANCH  25  28
BRANCH  25  31
ATOM     31  C   UNL     1       6.099   6.556  17.163  0.00  0.00    +0.000 C 
BRANCH  31  32
ATOM     32  C   UNL     1       7.492   6.710  17.768  0.00  0.00    +0.000 C 
ATOM     33  C   UNL     1       7.904   8.181  17.669  0.00  0.00    +0.000 C 
ENDBRANCH  31  32
ENDBRANCH  25  31
ENDBRANCH   1  26
TORSDOF 7
ENDMDL
MODEL 2
REMARK VINA RESULT:      -8.4      0.607      1.094
REMARK  Name = 
REMARK  9 active torsions:
REMARK  status: ('A' for Active; 'I' for Inactive)
REMARK    1  A    between atoms: C_1  and  C_2
REMARK    2  A    between atoms: C_2  and  C_3
REMARK    3  A    between atoms: C_3  and  N_4
REMARK    4  A    between atoms: N_4  and  C_5
REMARK    5  A    between atoms: C_5  and  C_6
REMARK    6  A    between atoms: C_6  and  C_7
REMARK    7  A    between atoms: C_8  and  C_10
REMARK    8  A    between atoms: C_15  and  C_16
REMARK    9  A    between atoms: N_18  and  C_19
REMARK                            x       y       z     vdW  Elec       q    Type
REMARK                         _______ _______ _______ _____ _____    ______ ____
ROOT
ATOM      1  C   UNL     1       3.053   5.365  17.932  0.00  0.00    +0.000 C 
ATOM      2  C   UNL     1       3.314   6.698  17.899  0.00  0.00    +0.000 C 
ATOM      3  C   UNL     1       2.509   7.714  18.623  0.00  0.00    +0.000 A 
ATOM      4  C   UNL     1       2.206   8.905  17.946  0.00  0.00    +0.000 A 
ATOM      5  C   UNL     1       1.356   9.854  18.525  0.00  0.00    +0.000 A 
ATOM      6  C   UNL     1       0.810   9.641  19.795  0.00  0.00    +0.000 A 
ATOM      7  C   UNL     1       1.140   8.485  20.497  0.00  0.00    +0.000 A 
ATOM      8  C   UNL     1       1.990   7.521  19.928  0.00  0.00    +0.000 A 
ATOM      9  N   UNL     1       2.266   6.404  20.739  0.00  0.00    +0.000 NA
ATOM     10  C   UNL     1       2.215   5.209  20.233  0.00  0.00    +0.000 C 
ATOM     11  N   UNL     1       2.470   4.145  21.059  0.00  0.00    +0.000 N 
ATOM     12  C   UNL     1       1.887   4.928  18.775  0.00  0.00    +0.000 C 
ATOM     13  H   UNL     1       2.899   4.431  21.933  0.00  0.00    +0.000 HD
ATOM     14  H   UNL     1       2.902   3.327  20.648  0.00  0.00    +0.000 HD
ENDROOT
BRANCH   6  15
ATOM     15  C   UNL     1      -0.182  10.625  20.305  0.00  0.00    +0.000 C 
ATOM     16  O   UNL     1      -1.027  11.029  19.508  0.00  0.00    +0.000 OA
ATOM     17  N   UNL     1      -0.034  11.040  21.619  0.00  0.00    +0.000 N 
ATOM     18  H   UNL     1       0.806  10.759  22.104  0.00  0.00    +0.000 HD
BRANCH  17  19
ATOM     19  C   UNL     1      -0.854  11.997  22.269  0.00  0.00    +0.000 A 
ATOM     20  C   UNL     1      -2.012  11.664  22.968  0.00  0.00    +0.000 A 
ATOM     21  C   UNL     1      -2.782  12.681  23.509  0.00  0.00    +0.000 A 
ATOM     22  N   UNL     1      -2.473  13.990  23.416  0.00  0.00    +0.000 NA
ATOM     23  C   UNL     1      -1.332  14.288  22.760  0.00  0.00    +0.000 A 
ATOM     24  C   UNL     1      -0.492  13.341  22.189  0.00  0.00    +0.000 A 
ENDBRANCH  17  19
ENDBRANCH   6  15
BRANCH   1  26
ATOM     25  N   UNL     1       5.188   4.947  16.531  0.00  0.00    +0.000 N 
ATOM     26  C   UNL     1       3.972   4.500  17.071  0.00  0.00    +0.000 C 
ATOM     27  O   UNL     1       3.613   3.334  16.856  0.00  0.00    +0.000 OA
BRANCH  25  28
ATOM     28  C   UNL     1       5.997   3.965  15.778  0.00  0.00    +0.000 C 
BRANCH  28  30
ATOM     29  C   UNL     1       6.045   3.712  13.226  0.00  0.00    +0.000 C 
ATOM     30  C   UNL     1       6.572   4.457  14.441  0.00  0.00    +0.000 C 
ENDBRANCH  28  30
ENDBRANCH  25  28
BRANCH  25  31
ATOM     31  C   UNL     1       5.802   6.210  16.913  0.00  0.00    +0.000 C 
BRANCH  31  32
ATOM     32  C   UNL     1       7.135   6.303  17.651  0.00  0.00    +0.000 C 
ATOM     33  C   UNL     1       6.990   5.605  19.006  0.00  0.00    +0.000 C 
ENDBRANCH  31  32
ENDBRANCH  25  31
ENDBRANCH   1  26
TORSDOF 7
ENDMDL
MODEL 3
REMARK VINA RESULT:      -8.1      1.529      1.658
REMARK  Name = 
REMARK  9 active torsions:
REMARK  status: ('A' for Active; 'I' for Inactive)
REMARK    1  A    between atoms: C_1  and  C_2
REMARK    2  A    between atoms: C_2  and  C_3
REMARK    3  A    between atoms: C_3  and  N_4
REMARK    4  A    between atoms: N_4  and  C_5
REMARK    5  A    between atoms: C_5  and  C_6
REMARK    6  A    between atoms: C_6  and  C_7
REMARK    7  A    between atoms: C_8  and  C_10
REMARK    8  A    between atoms: C_15  and  C_16
REMARK    9  A    between atoms: N_18  and  C_19
REMARK                            x       y       z     vdW  Elec       q    Type
REMARK                         _______ _______ _______ _____ _____    ______ ____
ROOT
ATOM      1  C   UNL     1       3.199   5.519  17.912  0.00  0.00    +0.000 C 
ATOM      2  C   UNL     1       3.381   6.865  17.868  0.00  0.00    +0.000 C 
ATOM      3  C   UNL     1       2.490   7.840  18.548  0.00  0.00    +0.000 A 
ATOM      4  C   UNL     1       2.140   9.001  17.843  0.00  0.00    +0.000 A 
ATOM      5  C   UNL     1       1.215   9.904  18.378  0.00  0.00    +0.000 A 
ATOM      6  C   UNL     1       0.638   9.676  19.632  0.00  0.00    +0.000 A 
ATOM      7  C   UNL     1       1.013   8.551  20.363  0.00  0.00    +0.000 A 
ATOM      8  C   UNL     1       1.939   7.633  19.838  0.00  0.00    +0.000 A 
ATOM      9  N   UNL     1       2.254   6.546  20.674  0.00  0.00    +0.000 NA
ATOM     10  C   UNL     1       2.292   5.343  20.186  0.00  0.00    +0.000 C 
ATOM     11  N   UNL     1       2.582   4.308  21.036  0.00  0.00    +0.000 N 
ATOM     12  C   UNL     1       2.033   5.023  18.722  0.00  0.00    +0.000 C 
ATOM     13  H   UNL     1       2.962   4.631  21.920  0.00  0.00    +0.000 HD
ATOM     14  H   UNL     1       3.076   3.512  20.652  0.00  0.00    +0.000 HD
ENDROOT
BRANCH   6  15
ATOM     15  C   UNL     1      -0.429  10.604  20.092  0.00  0.00    +0.000 C 
ATOM     16  O   UNL     1      -0.399  10.944  21.273  0.00  0.00    +0.000 OA
ATOM     17  N   UNL     1      -1.391  10.961  19.162  0.00  0.00    +0.000 N 
ATOM     18  H   UNL     1      -1.391  10.471  18.279  0.00  0.00    +0.000 HD
BRANCH  17  19
ATOM     19  C   UNL     1      -2.504  11.802  19.422  0.00  0.00    +0.000 A 
ATOM     20  C   UNL     1      -2.479  12.839  20.350  0.00  0.00    +0.000 A 
ATOM     21  C   UNL     1      -3.641  13.557  20.582  0.00  0.00    +0.000 A 
ATOM     22  N   UNL     1      -4.808  13.326  19.946  0.00  0.00    +0.000 NA
ATOM     23  C   UNL     1      -4.802  12.335  19.030  0.00  0.00    +0.000 A 
ATOM     24  C   UNL     1      -3.688  11.565  18.725  0.00  0.00    +0.000 A 
ENDBRANCH  17  19
ENDBRANCH   6  15
BRANCH   1  26
ATOM     25  N   UNL     1       5.424   5.200  16.630  0.00  0.00    +0.000 N 
ATOM     26  C   UNL     1       4.198   4.700  17.097  0.00  0.00    +0.000 C 
ATOM     27  O   UNL     1       3.898   3.524  16.851  0.00  0.00    +0.000 OA
BRANCH  25  28
ATOM     28  C   UNL     1       6.312   4.259  15.915  0.00  0.00    +0.000 C 
BRANCH  28  30
ATOM     29  C   UNL     1       6.163   3.819  13.393  0.00  0.00    +0.000 C 
ATOM     30  C   UNL     1       6.738   4.684  14.502  0.00  0.00    +0.000 C 
ENDBRANCH  28  30
ENDBRANCH  25  28
BRANCH  25  31
ATOM     31  C   UNL     1       5.966   6.481  17.058  0.00  0.00    +0.000 C 
BRANCH  31  32
ATOM     32  C   UNL     1       7.306   6.627  17.774  0.00  0.00    +0.000 C 
ATOM     33  C   UNL     1       7.773   8.079  17.642  0.00  0.00    +0.000 C 
ENDBRANCH  31  32
ENDBRANCH  25  31
ENDBRANCH   1  26
TORSDOF 7
ENDMDL
MODEL 4
REMARK VINA RESULT:      -8.0      1.357      2.531
REMARK  Name = 
REMARK  9 active torsions:
REMARK  status: ('A' for Active; 'I' for Inactive)
REMARK    1  A    between atoms: C_1  and  C_2
REMARK    2  A    between atoms: C_2  and  C_3
REMARK    3  A    between atoms: C_3  and  N_4
REMARK    4  A    between atoms: N_4  and  C_5
REMARK    5  A    between atoms: C_5  and  C_6
REMARK    6  A    between atoms: C_6  and  C_7
REMARK    7  A    between atoms: C_8  and  C_10
REMARK    8  A    between atoms: C_15  and  C_16
REMARK    9  A    between atoms: N_18  and  C_19
REMARK                            x       y       z     vdW  Elec       q    Type
REMARK                         _______ _______ _______ _____ _____    ______ ____
ROOT
ATOM      1  C   UNL     1       3.210   6.420  17.812  0.00  0.00    +0.000 C 
ATOM      2  C   UNL     1       3.272   7.777  17.853  0.00  0.00    +0.000 C 
ATOM      3  C   UNL     1       2.281   8.626  18.561  0.00  0.00    +0.000 A 
ATOM      4  C   UNL     1       1.847   9.793  17.915  0.00  0.00    +0.000 A 
ATOM      5  C   UNL     1       0.831  10.578  18.473  0.00  0.00    +0.000 A 
ATOM      6  C   UNL     1       0.245  10.223  19.693  0.00  0.00    +0.000 A 
ATOM      7  C   UNL     1       0.700   9.092  20.367  0.00  0.00    +0.000 A 
ATOM      8  C   UNL     1       1.717   8.293  19.819  0.00  0.00    +0.000 A 
ATOM      9  N   UNL     1       2.106   7.188  20.599  0.00  0.00    +0.000 NA
ATOM     10  C   UNL     1       2.264   6.026  20.042  0.00  0.00    +0.000 C 
ATOM     11  N   UNL     1       2.623   4.970  20.838  0.00  0.00    +0.000 N 
ATOM     12  C   UNL     1       2.073   5.775  18.554  0.00  0.00    +0.000 C 
ATOM     13  H   UNL     1       2.950   5.270  21.751  0.00  0.00    +0.000 HD
ATOM     14  H   UNL     1       3.196   4.245  20.424  0.00  0.00    +0.000 HD
ENDROOT
BRANCH   6  15
ATOM     15  C   UNL     1      -0.912  11.024  20.173  0.00  0.00    +0.000 C 
ATOM     16  O   UNL     1      -1.847  11.178  19.390  0.00  0.00    +0.000 OA
ATOM     17  N   UNL     1      -0.812  11.570  21.443  0.00  0.00    +0.000 N 
ATOM     18  H   UNL     1       0.084  11.508  21.907  0.00  0.00    +0.000 HD
BRANCH  17  19
ATOM     19  C   UNL     1      -1.790  12.392  22.057  0.00  0.00    +0.000 A 
ATOM     20  C   UNL     1      -2.582  11.972  23.123  0.00  0.00    +0.000 A 
ATOM     21  C   UNL     1      -3.559  12.827  23.607  0.00  0.00    +0.000 A 
ATOM     22  N   UNL     1      -3.787  14.063  23.119  0.00  0.00    +0.000 NA
ATOM     23  C   UNL     1      -2.989  14.460  22.105  0.00  0.00    +0.000 A 
ATOM     24  C   UNL     1      -1.981  13.679  21.557  0.00  0.00    +0.000 A 
ENDBRANCH  17  19
ENDBRANCH   6  15
BRANCH   1  26
ATOM     25  N   UNL     1       4.794   4.455  17.239  0.00  0.00    +0.000 N 
ATOM     26  C   UNL     1       4.299   5.744  16.981  0.00  0.00    +0.000 C 
ATOM     27  O   UNL     1       4.754   6.379  16.020  0.00  0.00    +0.000 OA
BRANCH  25  28
ATOM     28  C   UNL     1       5.798   3.915  16.299  0.00  0.00    +0.000 C 
BRANCH  28  30
ATOM     29  C   UNL     1       7.654   4.685  17.893  0.00  0.00    +0.000 C 
ATOM     30  C   UNL     1       7.224   4.468  16.452  0.00  0.00    +0.000 C 
ENDBRANCH  28  30
ENDBRANCH  25  28
BRANCH  25  31
ATOM     31  C   UNL     1       4.171   3.548  18.191  0.00  0.00    +0.000 C 
BRANCH  31  32
ATOM     32  C   UNL     1       3.521   2.228  17.787  0.00  0.00    +0.000 C 
ATOM     33  C   UNL     1       2.116   2.172  18.392  0.00  0.00    +0.000 C 
ENDBRANCH  31  32
ENDBRANCH  25  31
ENDBRANCH   1  26
TORSDOF 7
ENDMDL
MODEL 5
REMARK VINA RESULT:      -7.9      2.945     10.433
REMARK  Name = 
REMARK  9 active torsions:
REMARK  status: ('A' for Active; 'I' for Inactive)
REMARK    1  A    between atoms: C_1  and  C_2
REMARK    2  A    between atoms: C_2  and  C_3
REMARK    3  A    between atoms: C_3  and  N_4
REMARK    4  A    between atoms: N_4  and  C_5
REMARK    5  A    between atoms: C_5  and  C_6
REMARK    6  A    between atoms: C_6  and  C_7
REMARK    7  A    between atoms: C_8  and  C_10
REMARK    8  A    between atoms: C_15  and  C_16
REMARK    9  A    between atoms: N_18  and  C_19
REMARK                            x       y       z     vdW  Elec       q    Type
REMARK                         _______ _______ _______ _____ _____    ______ ____
ROOT
ATOM      1  C   UNL     1      -1.463  11.905  20.866  0.00  0.00    +0.000 C 
ATOM      2  C   UNL     1      -0.415  11.273  21.458  0.00  0.00    +0.000 C 
ATOM      3  C   UNL     1       0.418  10.248  20.780  0.00  0.00    +0.000 A 
ATOM      4  C   UNL     1       0.775   9.110  21.519  0.00  0.00    +0.000 A 
ATOM      5  C   UNL     1       1.462   8.054  20.909  0.00  0.00    +0.000 A 
ATOM      6  C   UNL     1       1.820   8.123  19.558  0.00  0.00    +0.000 A 
ATOM      7  C   UNL     1       1.513   9.267  18.826  0.00  0.00    +0.000 A 
ATOM      8  C   UNL     1       0.822  10.335  19.424  0.00  0.00    +0.000 A 
ATOM      9  N   UNL     1       0.584  11.444  18.591  0.00  0.00    +0.000 NA
ATOM     10  C   UNL     1      -0.589  12.002  18.575  0.00  0.00    +0.000 C 
ATOM     11  N   UNL     1      -0.787  13.066  17.736  0.00  0.00    +0.000 N 
ATOM     12  C   UNL     1      -1.752  11.536  19.437  0.00  0.00    +0.000 C 
ATOM     13  H   UNL     1       0.085  13.446  17.383  0.00  0.00    +0.000 HD
ATOM     14  H   UNL     1      -1.446  13.777  18.030  0.00  0.00    +0.000 HD
ENDROOT
BRANCH   6  15
ATOM     15  C   UNL     1       2.436   6.921  18.934  0.00  0.00    +0.000 C 
ATOM     16  O   UNL     1       3.140   7.107  17.944  0.00  0.00    +0.000 OA
ATOM     17  N   UNL     1       2.118   5.694  19.493  0.00  0.00    +0.000 N 
ATOM     18  H   UNL     1       1.390   5.675  20.193  0.00  0.00    +0.000 HD
BRANCH  17  19
ATOM     19  C   UNL     1       2.574   4.438  19.017  0.00  0.00    +0.000 A 
ATOM     20  C   UNL     1       1.929   3.722  18.011  0.00  0.00    +0.000 A 
ATOM     21  C   UNL     1       2.414   2.470  17.666  0.00  0.00    +0.000 A 
ATOM     22  N   UNL     1       3.495   1.898  18.236  0.00  0.00    +0.000 NA
ATOM     23  C   UNL     1       4.120   2.622  19.187  0.00  0.00    +0.000 A 
ATOM     24  C   UNL     1       3.714   3.885  19.597  0.00  0.00    +0.000 A 
ENDBRANCH  17  19
ENDBRANCH   6  15
BRANCH   1  26
ATOM     25  N   UNL     1      -3.601  13.127  21.661  0.00  0.00    +0.000 N 
ATOM     26  C   UNL     1      -2.222  12.884  21.760  0.00  0.00    +0.000 C 
ATOM     27  O   UNL     1      -1.569  13.482  22.626  0.00  0.00    +0.000 OA
BRANCH  25  28
ATOM     28  C   UNL     1      -4.199  14.052  22.647  0.00  0.00    +0.000 C 
BRANCH  28  30
ATOM     29  C   UNL     1      -4.399  12.475  24.660  0.00  0.00    +0.000 C 
ATOM     30  C   UNL     1      -5.116  13.407  23.697  0.00  0.00    +0.000 C 
ENDBRANCH  28  30
ENDBRANCH  25  28
BRANCH  25  31
ATOM     31  C   UNL     1      -4.487  12.314  20.841  0.00  0.00    +0.000 C 
BRANCH  31  32
ATOM     32  C   UNL     1      -5.258  12.863  19.644  0.00  0.00    +0.000 C 
ATOM     33  C   UNL     1      -5.793  11.683  18.829  0.00  0.00    +0.000 C 
ENDBRANCH  31  32
ENDBRANCH  25  31
ENDBRANCH   1  26
TORSDOF 7
ENDMDL
MODEL 6
REMARK VINA RESULT:      -7.9      1.929     10.001
REMARK  Name = 
REMARK  9 active torsions:
REMARK  status: ('A' for Active; 'I' for Inactive)
REMARK    1  A    between atoms: C_1  and  C_2
REMARK    2  A    between atoms: C_2  and  C_3
REMARK    3  A    between atoms: C_3  and  N_4
REMARK    4  A    between atoms: N_4  and  C_5
REMARK    5  A    between atoms: C_5  and  C_6
REMARK    6  A    between atoms: C_6  and  C_7
REMARK    7  A    between atoms: C_8  and  C_10
REMARK    8  A    between atoms: C_15  and  C_16
REMARK    9  A    between atoms: N_18  and  C_19
REMARK                            x       y       z     vdW  Elec       q    Type
REMARK                         _______ _______ _______ _____ _____    ______ ____
ROOT
ATOM      1  C   UNL     1      -0.455  11.569  20.316  0.00  0.00    +0.000 C 
ATOM      2  C   UNL     1      -0.390  10.741  19.241  0.00  0.00    +0.000 C 
ATOM      3  C   UNL     1       0.522   9.571  19.155  0.00  0.00    +0.000 A 
ATOM      4  C   UNL     1       1.186   9.355  17.939  0.00  0.00    +0.000 A 
ATOM      5  C   UNL     1       2.145   8.342  17.824  0.00  0.00    +0.000 A 
ATOM      6  C   UNL     1       2.443   7.516  18.913  0.00  0.00    +0.000 A 
ATOM      7  C   UNL     1       1.756   7.690  20.112  0.00  0.00    +0.000 A 
ATOM      8  C   UNL     1       0.792   8.705  20.243  0.00  0.00    +0.000 A 
ATOM      9  N   UNL     1       0.152   8.773  21.495  0.00  0.00    +0.000 NA
ATOM     10  C   UNL     1      -0.008   9.921  22.079  0.00  0.00    +0.000 C 
ATOM     11  N   UNL     1      -0.617   9.944  23.306  0.00  0.00    +0.000 N 
ATOM     12  C   UNL     1       0.446  11.241  21.474  0.00  0.00    +0.000 C 
ATOM     13  H   UNL     1      -1.086   9.070  23.519  0.00  0.00    +0.000 HD
ATOM     14  H   UNL     1      -1.167  10.762  23.540  0.00  0.00    +0.000 HD
ENDROOT
BRANCH   6  15
ATOM     15  C   UNL     1       3.556   6.540  18.769  0.00  0.00    +0.000 C 
ATOM     16  O   UNL     1       3.680   5.702  19.659  0.00  0.00    +0.000 OA
ATOM     17  N   UNL     1       4.387   6.696  17.671  0.00  0.00    +0.000 N 
ATOM     18  H   UNL     1       4.273   7.533  17.116  0.00  0.00    +0.000 HD
BRANCH  17  19
ATOM     19  C   UNL     1       5.519   5.893  17.385  0.00  0.00    +0.000 A 
ATOM     20  C   UNL     1       6.519   5.619  18.315  0.00  0.00    +0.000 A 
ATOM     21  C   UNL     1       7.621   4.881  17.915  0.00  0.00    +0.000 A 
ATOM     22  N   UNL     1       7.786   4.389  16.670  0.00  0.00    +0.000 NA
ATOM     23  C   UNL     1       6.792   4.642  15.793  0.00  0.00    +0.000 A 
ATOM     24  C   UNL     1       5.648   5.365  16.100  0.00  0.00    +0.000 A 
ENDBRANCH  17  19
ENDBRANCH   6  15
BRANCH   1  26
ATOM     25  N   UNL     1      -2.478  12.999  21.063  0.00  0.00    +0.000 N 
ATOM     26  C   UNL     1      -1.421  12.744  20.175  0.00  0.00    +0.000 C 
ATOM     27  O   UNL     1      -1.239  13.514  19.223  0.00  0.00    +0.000 OA
BRANCH  25  28
ATOM     28  C   UNL     1      -3.280  14.218  20.829  0.00  0.00    +0.000 C 
BRANCH  28  30
ATOM     29  C   UNL     1      -5.096  12.823  19.673  0.00  0.00    +0.000 C 
ATOM     30  C   UNL     1      -4.781  13.996  20.588  0.00  0.00    +0.000 C 
ENDBRANCH  28  30
ENDBRANCH  25  28
BRANCH  25  31
ATOM     31  C   UNL     1      -2.632  12.296  22.328  0.00  0.00    +0.000 C 
BRANCH  31  32
ATOM     32  C   UNL     1      -2.652  13.001  23.681  0.00  0.00    +0.000 C 
ATOM     33  C   UNL     1      -1.399  13.873  23.794  0.00  0.00    +0.000 C 
ENDBRANCH  31  32
ENDBRANCH  25  31
ENDBRANCH   1  26
TORSDOF 7
ENDMDL
MODEL 7
REMARK VINA RESULT:      -7.9      2.941     10.072
REMARK  Name = 
REMARK  9 active torsions:
REMARK  status: ('A' for Active; 'I' for Inactive)
REMARK    1  A    between atoms: C_1  and  C_2
REMARK    2  A    between atoms: C_2  and  C_3
REMARK    3  A    between atoms: C_3  and  N_4
REMARK    4  A    between atoms: N_4  and  C_5
REMARK    5  A    between atoms: C_5  and  C_6
REMARK    6  A    between atoms: C_6  and  C_7
REMARK    7  A    between atoms: C_8  and  C_10
REMARK    8  A    between atoms: C_15  and  C_16
REMARK    9  A    between atoms: N_18  and  C_19
REMARK                            x       y       z     vdW  Elec       q    Type
REMARK                         _______ _______ _______ _____ _____    ______ ____
ROOT
ATOM      1  C   UNL     1      -1.581  11.844  20.838  0.00  0.00    +0.000 C 
ATOM      2  C   UNL     1      -0.546  11.226  21.466  0.00  0.00    +0.000 C 
ATOM      3  C   UNL     1       0.325  10.213  20.817  0.00  0.00    +0.000 A 
ATOM      4  C   UNL     1       0.672   9.080  21.568  0.00  0.00    +0.000 A 
ATOM      5  C   UNL     1       1.393   8.034  20.982  0.00  0.00    +0.000 A 
ATOM      6  C   UNL     1       1.797   8.108  19.644  0.00  0.00    +0.000 A 
ATOM      7  C   UNL     1       1.500   9.248  18.902  0.00  0.00    +0.000 A 
ATOM      8  C   UNL     1       0.774  10.306  19.476  0.00  0.00    +0.000 A 
ATOM      9  N   UNL     1       0.550  11.412  18.636  0.00  0.00    +0.000 NA
ATOM     10  C   UNL     1      -0.629  11.954  18.578  0.00  0.00    +0.000 C 
ATOM     11  N   UNL     1      -0.814  13.016  17.733  0.00  0.00    +0.000 N 
ATOM     12  C   UNL     1      -1.815  11.472  19.400  0.00  0.00    +0.000 C 
ATOM     13  H   UNL     1       0.065  13.408  17.410  0.00  0.00    +0.000 HD
ATOM     14  H   UNL     1      -1.492  13.718  18.004  0.00  0.00    +0.000 HD
ENDROOT
BRANCH   6  15
ATOM     15  C   UNL     1       2.451   6.916  19.042  0.00  0.00    +0.000 C 
ATOM     16  O   UNL     1       3.250   7.119  18.130  0.00  0.00    +0.000 OA
ATOM     17  N   UNL     1       2.062   5.677  19.527  0.00  0.00    +0.000 N 
ATOM     18  H   UNL     1       1.271   5.650  20.154  0.00  0.00    +0.000 HD
BRANCH  17  19
ATOM     19  C   UNL     1       2.542   4.429  19.055  0.00  0.00    +0.000 A 
ATOM     20  C   UNL     1       1.981   3.754  17.973  0.00  0.00    +0.000 A 
ATOM     21  C   UNL     1       2.478   2.506  17.634  0.00  0.00    +0.000 A 
ATOM     22  N   UNL     1       3.494   1.899  18.281  0.00  0.00    +0.000 NA
ATOM     23  C   UNL     1       4.041   2.583  19.307  0.00  0.00    +0.000 A 
ATOM     24  C   UNL     1       3.617   3.840  19.718  0.00  0.00    +0.000 A 
ENDBRANCH  17  19
ENDBRANCH   6  15
BRANCH   1  26
ATOM     25  N   UNL     1      -2.147  14.195  21.759  0.00  0.00    +0.000 N 
ATOM     26  C   UNL     1      -2.384  12.812  21.705  0.00  0.00    +0.000 C 
ATOM     27  O   UNL     1      -3.302  12.334  22.385  0.00  0.00    +0.000 OA
BRANCH  25  28
ATOM     28  C   UNL     1      -3.058  15.006  22.594  0.00  0.00    +0.000 C 
BRANCH  28  30
ATOM     29  C   UNL     1      -1.335  14.901  24.490  0.00  0.00    +0.000 C 
ATOM     30  C   UNL     1      -2.805  14.952  24.108  0.00  0.00    +0.000 C 
ENDBRANCH  28  30
ENDBRANCH  25  28
BRANCH  25  31
ATOM     31  C   UNL     1      -1.255  14.878  20.835  0.00  0.00    +0.000 C 
BRANCH  31  32
ATOM     32  C   UNL     1       0.075  15.496  21.258  0.00  0.00    +0.000 C 
ATOM     33  C   UNL     1       1.144  14.401  21.252  0.00  0.00    +0.000 C 
ENDBRANCH  31  32
ENDBRANCH  25  31
ENDBRANCH   1  26
TORSDOF 7
ENDMDL
MODEL 8
REMARK VINA RESULT:      -7.9      2.573     10.662
REMARK  Name = 
REMARK  9 active torsions:
REMARK  status: ('A' for Active; 'I' for Inactive)
REMARK    1  A    between atoms: C_1  and  C_2
REMARK    2  A    between atoms: C_2  and  C_3
REMARK    3  A    between atoms: C_3  and  N_4
REMARK    4  A    between atoms: N_4  and  C_5
REMARK    5  A    between atoms: C_5  and  C_6
REMARK    6  A    between atoms: C_6  and  C_7
REMARK    7  A    between atoms: C_8  and  C_10
REMARK    8  A    between atoms: C_15  and  C_16
REMARK    9  A    between atoms: N_18  and  C_19
REMARK                            x       y       z     vdW  Elec       q    Type
REMARK                         _______ _______ _______ _____ _____    ______ ____
ROOT
ATOM      1  C   UNL     1      -1.563  12.667  20.943  0.00  0.00    +0.000 C 
ATOM      2  C   UNL     1      -0.548  12.104  21.651  0.00  0.00    +0.000 C 
ATOM      3  C   UNL     1       0.175  10.880  21.222  0.00  0.00    +0.000 A 
ATOM      4  C   UNL     1       0.467   9.922  22.204  0.00  0.00    +0.000 A 
ATOM      5  C   UNL     1       1.043   8.697  21.851  0.00  0.00    +0.000 A 
ATOM      6  C   UNL     1       1.356   8.414  20.517  0.00  0.00    +0.000 A 
ATOM      7  C   UNL     1       1.115   9.376  19.539  0.00  0.00    +0.000 A 
ATOM      8  C   UNL     1       0.534  10.610  19.878  0.00  0.00    +0.000 A 
ATOM      9  N   UNL     1       0.355  11.508  18.809  0.00  0.00    +0.000 NA
ATOM     10  C   UNL     1      -0.769  12.146  18.680  0.00  0.00    +0.000 C 
ATOM     11  N   UNL     1      -0.913  12.996  17.615  0.00  0.00    +0.000 N 
ATOM     12  C   UNL     1      -1.933  11.999  19.648  0.00  0.00    +0.000 C 
ATOM     13  H   UNL     1      -0.026  13.205  17.167  0.00  0.00    +0.000 HD
ATOM     14  H   UNL     1      -1.501  13.810  17.743  0.00  0.00    +0.000 HD
ENDROOT
BRANCH   6  15
ATOM     15  C   UNL     1       1.850   7.051  20.186  0.00  0.00    +0.000 C 
ATOM     16  O   UNL     1       1.543   6.145  20.958  0.00  0.00    +0.000 OA
ATOM     17  N   UNL     1       2.657   6.932  19.066  0.00  0.00    +0.000 N 
ATOM     18  H   UNL     1       2.970   7.785  18.625  0.00  0.00    +0.000 HD
BRANCH  17  19
ATOM     19  C   UNL     1       3.254   5.727  18.615  0.00  0.00    +0.000 A 
ATOM     20  C   UNL     1       4.571   5.373  18.897  0.00  0.00    +0.000 A 
ATOM     21  C   UNL     1       5.081   4.207  18.349  0.00  0.00    +0.000 A 
ATOM     22  N   UNL     1       4.373   3.372  17.563  0.00  0.00    +0.000 NA
ATOM     23  C   UNL     1       3.091   3.720  17.326  0.00  0.00    +0.000 A 
ATOM     24  C   UNL     1       2.488   4.863  17.834  0.00  0.00    +0.000 A 
ENDBRANCH  17  19
ENDBRANCH   6  15
BRANCH   1  26
ATOM     25  N   UNL     1      -3.546  13.941  22.012  0.00  0.00    +0.000 N 
ATOM     26  C   UNL     1      -2.208  13.891  21.591  0.00  0.00    +0.000 C 
ATOM     27  O   UNL     1      -1.490  14.886  21.759  0.00  0.00    +0.000 OA
BRANCH  25  28
ATOM     28  C   UNL     1      -3.999  15.175  22.686  0.00  0.00    +0.000 C 
BRANCH  28  30
ATOM     29  C   UNL     1      -3.069  15.298  25.073  0.00  0.00    +0.000 C 
ATOM     30  C   UNL     1      -4.281  15.050  24.191  0.00  0.00    +0.000 C 
ENDBRANCH  28  30
ENDBRANCH  25  28
BRANCH  25  31
ATOM     31  C   UNL     1      -4.398  12.762  22.070  0.00  0.00    +0.000 C 
BRANCH  31  32
ATOM     32  C   UNL     1      -5.853  12.757  21.609  0.00  0.00    +0.000 C 
ATOM     33  C   UNL     1      -5.925  12.087  20.235  0.00  0.00    +0.000 C 
ENDBRANCH  31  32
ENDBRANCH  25  31
ENDBRANCH   1  26
TORSDOF 7
ENDMDL
MODEL 9
REMARK VINA RESULT:      -7.9      1.162      1.215
REMARK  Name = 
REMARK  9 active torsions:
REMARK  status: ('A' for Active; 'I' for Inactive)
REMARK    1  A    between atoms: C_1  and  C_2
REMARK    2  A    between atoms: C_2  and  C_3
REMARK    3  A    between atoms: C_3  and  N_4
REMARK    4  A    between atoms: N_4  and  C_5
REMARK    5  A    between atoms: C_5  and  C_6
REMARK    6  A    between atoms: C_6  and  C_7
REMARK    7  A    between atoms: C_8  and  C_10
REMARK    8  A    between atoms: C_15  and  C_16
REMARK    9  A    between atoms: N_18  and  C_19
REMARK                            x       y       z     vdW  Elec       q    Type
REMARK                         _______ _______ _______ _____ _____    ______ ____
ROOT
ATOM      1  C   UNL     1       3.297   4.917  17.735  0.00  0.00    +0.000 C 
ATOM      2  C   UNL     1       3.493   6.250  17.912  0.00  0.00    +0.000 C 
ATOM      3  C   UNL     1       2.683   7.087  18.834  0.00  0.00    +0.000 A 
ATOM      4  C   UNL     1       2.286   8.353  18.380  0.00  0.00    +0.000 A 
ATOM      5  C   UNL     1       1.427   9.146  19.150  0.00  0.00    +0.000 A 
ATOM      6  C   UNL     1       0.965   8.698  20.392  0.00  0.00    +0.000 A 
ATOM      7  C   UNL     1       1.390   7.462  20.875  0.00  0.00    +0.000 A 
ATOM      8  C   UNL     1       2.251   6.654  20.112  0.00  0.00    +0.000 A 
ATOM      9  N   UNL     1       2.626   5.437  20.711  0.00  0.00    +0.000 NA
ATOM     10  C   UNL     1       2.602   4.339  20.017  0.00  0.00    +0.000 C 
ATOM     11  N   UNL     1       2.954   3.171  20.640  0.00  0.00    +0.000 N 
ATOM     12  C   UNL     1       2.204   4.283  18.550  0.00  0.00    +0.000 C 
ATOM     13  H   UNL     1       3.419   3.334  21.528  0.00  0.00    +0.000 HD
ATOM     14  H   UNL     1       3.399   2.457  20.078  0.00  0.00    +0.000 HD
ENDROOT
BRANCH   6  15
ATOM     15  C   UNL     1      -0.041   9.527  21.107  0.00  0.00    +0.000 C 
ATOM     16  O   UNL     1      -0.702   8.971  21.982  0.00  0.00    +0.000 OA
ATOM     17  N   UNL     1      -0.182  10.840  20.687  0.00  0.00    +0.000 N 
ATOM     18  H   UNL     1       0.302  11.114  19.844  0.00  0.00    +0.000 HD
BRANCH  17  19
ATOM     19  C   UNL     1      -1.111  11.771  21.217  0.00  0.00    +0.000 A 
ATOM     20  C   UNL     1      -2.196  12.263  20.497  0.00  0.00    +0.000 A 
ATOM     21  C   UNL     1      -3.006  13.224  21.081  0.00  0.00    +0.000 A 
ATOM     22  N   UNL     1      -2.820  13.710  22.325  0.00  0.00    +0.000 NA
ATOM     23  C   UNL     1      -1.780  13.198  23.016  0.00  0.00    +0.000 A 
ATOM     24  C   UNL     1      -0.917  12.230  22.519  0.00  0.00    +0.000 A 
ENDBRANCH  17  19
ENDBRANCH   6  15
BRANCH   1  26
ATOM     25  N   UNL     1       5.574   4.536  16.566  0.00  0.00    +0.000 N 
ATOM     26  C   UNL     1       4.204   4.258  16.698  0.00  0.00    +0.000 C 
ATOM     27  O   UNL     1       3.687   3.422  15.944  0.00  0.00    +0.000 OA
BRANCH  25  28
ATOM     28  C   UNL     1       6.329   3.761  15.560  0.00  0.00    +0.000 C 
BRANCH  28  30
ATOM     29  C   UNL     1       5.887   3.673  13.034  0.00  0.00    +0.000 C 
ATOM     30  C   UNL     1       6.509   4.437  14.192  0.00  0.00    +0.000 C 
ENDBRANCH  28  30
ENDBRANCH  25  28
BRANCH  25  31
ATOM     31  C   UNL     1       6.315   5.320  17.542  0.00  0.00    +0.000 C 
BRANCH  31  32
ATOM     32  C   UNL     1       7.209   6.499  17.165  0.00  0.00    +0.000 C 
ATOM     33  C   UNL     1       7.944   6.973  18.421  0.00  0.00    +0.000 C 
ENDBRANCH  31  32
ENDBRANCH  25  31
ENDBRANCH   1  26
TORSDOF 7
ENDMDL
