MODEL 1
REMARK VINA RESULT:      -7.0      0.000      0.000
REMARK  Name = 
REMARK  3 active torsions:
REMARK  status: ('A' for Active; 'I' for Inactive)
REMARK    1  A    between atoms: C_1  and  O_2
REMARK    2  A    between atoms: O_2  and  C_3
REMARK    3  A    between atoms: C_7  and  C_8
REMARK                            x       y       z     vdW  Elec       q    Type
REMARK                         _______ _______ _______ _____ _____    ______ ____
ROOT
ATOM      1  C   UNL     1       4.623   3.724  18.900  0.00  0.00    +0.000 C 
ATOM      2  O   UNL     1       5.323   3.138  19.716  0.00  0.00    +0.000 OA
ATOM      3  N   UNL     1       3.267   3.930  18.979  0.00  0.00    +0.000 N 
ATOM      4  C   UNL     1       2.485   3.486  20.005  0.00  0.00    +0.000 A 
ATOM      5  N   UNL     1       2.949   2.929  21.167  0.00  0.00    +0.000 NA
ATOM      6  N   UNL     1       1.884   2.604  21.888  0.00  0.00    +0.000 NA
ATOM      7  N   UNL     1       0.847   2.961  21.124  0.00  0.00    +0.000 N 
ATOM      8  N   UNL     1       1.148   3.551  19.955  0.00  0.00    +0.000 NA
ATOM      9  H   UNL     1       2.794   4.373  18.204  0.00  0.00    +0.000 HD
ATOM     10  H   UNL     1      -0.110   2.780  21.413  0.00  0.00    +0.000 HD
ENDROOT
BRANCH   1  15
ATOM     11  C   UNL     1       6.722   5.780  16.548  0.00  0.00    +0.000 A 
ATOM     12  C   UNL     1       6.327   5.227  15.337  0.00  0.00    +0.000 A 
ATOM     13  C   UNL     1       5.391   4.199  15.354  0.00  0.00    +0.000 A 
ATOM     14  N   UNL     1       4.839   3.694  16.479  0.00  0.00    +0.000 NA
ATOM     15  C   UNL     1       5.235   4.269  17.648  0.00  0.00    +0.000 A 
ATOM     16  C   UNL     1       6.164   5.298  17.728  0.00  0.00    +0.000 A 
BRANCH  11  18
ATOM     17  C   UNL     1       7.793   7.306  18.029  0.00  0.00    +0.000 C 
ATOM     18  O   UNL     1       7.632   6.786  16.714  0.00  0.00    +0.000 OA
ENDBRANCH  11  18
ENDBRANCH   1  15
TORSDOF 2
ENDMDL
MODEL 2
REMARK VINA RESULT:      -7.0      3.804      5.508
REMARK  Name = 
REMARK  3 active torsions:
REMARK  status: ('A' for Active; 'I' for Inactive)
REMARK    1  A    between atoms: C_1  and  O_2
REMARK    2  A    between atoms: O_2  and  C_3
REMARK    3  A    between atoms: C_7  and  C_8
REMARK                            x       y       z     vdW  Elec       q    Type
REMARK                         _______ _______ _______ _____ _____    ______ ____
ROOT
ATOM      1  C   UNL     1       6.401   5.032  15.849  0.00  0.00    +0.000 C 
ATOM      2  O   UNL     1       5.310   5.486  16.168  0.00  0.00    +0.000 OA
ATOM      3  N   UNL     1       7.455   4.761  16.689  0.00  0.00    +0.000 N 
ATOM      4  C   UNL     1       7.434   4.978  18.036  0.00  0.00    +0.000 A 
ATOM      5  N   UNL     1       6.327   5.331  18.761  0.00  0.00    +0.000 NA
ATOM      6  N   UNL     1       6.723   5.476  20.019  0.00  0.00    +0.000 NA
ATOM      7  N   UNL     1       8.035   5.223  19.983  0.00  0.00    +0.000 N 
ATOM      8  N   UNL     1       8.537   4.870  18.788  0.00  0.00    +0.000 NA
ATOM      9  H   UNL     1       8.329   4.449  16.291  0.00  0.00    +0.000 HD
ATOM     10  H   UNL     1       8.614   5.311  20.813  0.00  0.00    +0.000 HD
ENDROOT
BRANCH   1  15
ATOM     11  C   UNL     1       6.239   3.577  12.382  0.00  0.00    +0.000 A 
ATOM     12  C   UNL     1       7.283   4.272  11.787  0.00  0.00    +0.000 A 
ATOM     13  C   UNL     1       7.987   5.192  12.556  0.00  0.00    +0.000 A 
ATOM     14  N   UNL     1       7.720   5.460  13.853  0.00  0.00    +0.000 NA
ATOM     15  C   UNL     1       6.701   4.749  14.411  0.00  0.00    +0.000 A 
ATOM     16  C   UNL     1       5.942   3.813  13.721  0.00  0.00    +0.000 A 
BRANCH  11  18
ATOM     17  C   UNL     1       4.217   3.111  11.215  0.00  0.00    +0.000 C 
ATOM     18  O   UNL     1       5.441   2.649  11.774  0.00  0.00    +0.000 OA
ENDBRANCH  11  18
ENDBRANCH   1  15
TORSDOF 2
ENDMDL
MODEL 3
REMARK VINA RESULT:      -7.0      1.470      2.195
REMARK  Name = 
REMARK  3 active torsions:
REMARK  status: ('A' for Active; 'I' for Inactive)
REMARK    1  A    between atoms: C_1  and  O_2
REMARK    2  A    between atoms: O_2  and  C_3
REMARK    3  A    between atoms: C_7  and  C_8
REMARK                            x       y       z     vdW  Elec       q    Type
REMARK                         _______ _______ _______ _____ _____    ______ ____
ROOT
ATOM      1  C   UNL     1       4.700   3.473  19.290  0.00  0.00    +0.000 C 
ATOM      2  O   UNL     1       5.195   2.701  20.102  0.00  0.00    +0.000 OA
ATOM      3  N   UNL     1       3.389   3.883  19.241  0.00  0.00    +0.000 N 
ATOM      4  C   UNL     1       2.425   3.465  20.111  0.00  0.00    +0.000 A 
ATOM      5  N   UNL     1       2.649   2.724  21.241  0.00  0.00    +0.000 NA
ATOM      6  N   UNL     1       1.463   2.500  21.793  0.00  0.00    +0.000 NA
ATOM      7  N   UNL     1       0.597   3.095  20.968  0.00  0.00    +0.000 N 
ATOM      8  N   UNL     1       1.130   3.747  19.921  0.00  0.00    +0.000 NA
ATOM      9  H   UNL     1       3.091   4.473  18.478  0.00  0.00    +0.000 HD
ATOM     10  H   UNL     1      -0.405   3.039  21.123  0.00  0.00    +0.000 HD
ENDROOT
BRANCH   1  15
ATOM     11  C   UNL     1       5.870   4.566  15.884  0.00  0.00    +0.000 A 
ATOM     12  C   UNL     1       7.110   5.093  16.220  0.00  0.00    +0.000 A 
ATOM     13  C   UNL     1       7.499   5.068  17.555  0.00  0.00    +0.000 A 
ATOM     14  N   UNL     1       6.744   4.564  18.556  0.00  0.00    +0.000 NA
ATOM     15  C   UNL     1       5.541   4.040  18.191  0.00  0.00    +0.000 A 
ATOM     16  C   UNL     1       5.070   4.023  16.885  0.00  0.00    +0.000 A 
BRANCH  11  18
ATOM     17  C   UNL     1       6.076   3.838  13.627  0.00  0.00    +0.000 C 
ATOM     18  O   UNL     1       5.330   4.517  14.630  0.00  0.00    +0.000 OA
ENDBRANCH  11  18
ENDBRANCH   1  15
TORSDOF 2
ENDMDL
MODEL 4
REMARK VINA RESULT:      -6.9      2.937      4.505
REMARK  Name = 
REMARK  3 active torsions:
REMARK  status: ('A' for Active; 'I' for Inactive)
REMARK    1  A    between atoms: C_1  and  O_2
REMARK    2  A    between atoms: O_2  and  C_3
REMARK    3  A    between atoms: C_7  and  C_8
REMARK                            x       y       z     vdW  Elec       q    Type
REMARK                         _______ _______ _______ _____ _____    ______ ____
ROOT
ATOM      1  C   UNL     1       6.786   4.450  16.125  0.00  0.00    +0.000 C 
ATOM      2  O   UNL     1       7.738   4.751  16.834  0.00  0.00    +0.000 OA
ATOM      3  N   UNL     1       5.540   4.055  16.548  0.00  0.00    +0.000 N 
ATOM      4  C   UNL     1       5.182   3.927  17.859  0.00  0.00    +0.000 A 
ATOM      5  N   UNL     1       5.941   4.328  18.926  0.00  0.00    +0.000 NA
ATOM      6  N   UNL     1       5.263   4.006  20.020  0.00  0.00    +0.000 NA
ATOM      7  N   UNL     1       4.154   3.419  19.560  0.00  0.00    +0.000 N 
ATOM      8  N   UNL     1       4.021   3.370  18.224  0.00  0.00    +0.000 NA
ATOM      9  H   UNL     1       4.859   3.768  15.860  0.00  0.00    +0.000 HD
ATOM     10  H   UNL     1       3.465   3.022  20.192  0.00  0.00    +0.000 HD
ENDROOT
BRANCH   1  15
ATOM     11  C   UNL     1       6.324   3.626  12.482  0.00  0.00    +0.000 A 
ATOM     12  C   UNL     1       7.231   4.517  11.923  0.00  0.00    +0.000 A 
ATOM     13  C   UNL     1       7.947   5.352  12.775  0.00  0.00    +0.000 A 
ATOM     14  N   UNL     1       7.817   5.357  14.119  0.00  0.00    +0.000 NA
ATOM     15  C   UNL     1       6.932   4.459  14.637  0.00  0.00    +0.000 A 
ATOM     16  C   UNL     1       6.174   3.589  13.865  0.00  0.00    +0.000 A 
BRANCH  11  18
ATOM     17  C   UNL     1       4.251   3.203  11.391  0.00  0.00    +0.000 C 
ATOM     18  O   UNL     1       5.536   2.745  11.797  0.00  0.00    +0.000 OA
ENDBRANCH  11  18
ENDBRANCH   1  15
TORSDOF 2
ENDMDL
MODEL 5
REMARK VINA RESULT:      -6.9      1.344      2.113
REMARK  Name = 
REMARK  3 active torsions:
REMARK  status: ('A' for Active; 'I' for Inactive)
REMARK    1  A    between atoms: C_1  and  O_2
REMARK    2  A    between atoms: O_2  and  C_3
REMARK    3  A    between atoms: C_7  and  C_8
REMARK                            x       y       z     vdW  Elec       q    Type
REMARK                         _______ _______ _______ _____ _____    ______ ____
ROOT
ATOM      1  C   UNL     1       4.832   3.937  19.402  0.00  0.00    +0.000 C 
ATOM      2  O   UNL     1       5.221   2.873  19.867  0.00  0.00    +0.000 OA
ATOM      3  N   UNL     1       3.561   4.455  19.487  0.00  0.00    +0.000 N 
ATOM      4  C   UNL     1       2.522   3.830  20.112  0.00  0.00    +0.000 A 
ATOM      5  N   UNL     1       2.626   2.699  20.877  0.00  0.00    +0.000 NA
ATOM      6  N   UNL     1       1.399   2.393  21.278  0.00  0.00    +0.000 NA
ATOM      7  N   UNL     1       0.627   3.334  20.725  0.00  0.00    +0.000 N 
ATOM      8  N   UNL     1       1.265   4.282  20.018  0.00  0.00    +0.000 NA
ATOM      9  H   UNL     1       3.351   5.315  19.001  0.00  0.00    +0.000 HD
ATOM     10  H   UNL     1      -0.383   3.316  20.827  0.00  0.00    +0.000 HD
ENDROOT
BRANCH   1  15
ATOM     11  C   UNL     1       6.484   5.753  16.550  0.00  0.00    +0.000 A 
ATOM     12  C   UNL     1       7.511   6.385  17.238  0.00  0.00    +0.000 A 
ATOM     13  C   UNL     1       7.606   6.187  18.611  0.00  0.00    +0.000 A 
ATOM     14  N   UNL     1       6.758   5.418  19.327  0.00  0.00    +0.000 NA
ATOM     15  C   UNL     1       5.772   4.798  18.620  0.00  0.00    +0.000 A 
ATOM     16  C   UNL     1       5.599   4.939  17.250  0.00  0.00    +0.000 A 
BRANCH  11  18
ATOM     17  C   UNL     1       6.778   4.821  14.379  0.00  0.00    +0.000 C 
ATOM     18  O   UNL     1       6.239   5.844  15.208  0.00  0.00    +0.000 OA
ENDBRANCH  11  18
ENDBRANCH   1  15
TORSDOF 2
ENDMDL
MODEL 6
REMARK VINA RESULT:      -6.8      2.882      6.655
REMARK  Name = 
REMARK  3 active torsions:
REMARK  status: ('A' for Active; 'I' for Inactive)
REMARK    1  A    between atoms: C_1  and  O_2
REMARK    2  A    between atoms: O_2  and  C_3
REMARK    3  A    between atoms: C_7  and  C_8
REMARK                            x       y       z     vdW  Elec       q    Type
REMARK                         _______ _______ _______ _____ _____    ______ ____
ROOT
ATOM      1  C   UNL     1       5.987   4.735  16.640  0.00  0.00    +0.000 C 
ATOM      2  O   UNL     1       6.631   5.731  16.945  0.00  0.00    +0.000 OA
ATOM      3  N   UNL     1       5.992   4.094  15.425  0.00  0.00    +0.000 N 
ATOM      4  C   UNL     1       6.730   4.498  14.350  0.00  0.00    +0.000 A 
ATOM      5  N   UNL     1       7.685   5.480  14.374  0.00  0.00    +0.000 NA
ATOM      6  N   UNL     1       8.148   5.593  13.136  0.00  0.00    +0.000 NA
ATOM      7  N   UNL     1       7.444   4.698  12.437  0.00  0.00    +0.000 N 
ATOM      8  N   UNL     1       6.571   3.954  13.137  0.00  0.00    +0.000 NA
ATOM      9  H   UNL     1       5.362   3.318  15.279  0.00  0.00    +0.000 HD
ATOM     10  H   UNL     1       7.559   4.602  11.432  0.00  0.00    +0.000 HD
ENDROOT
BRANCH   1  15
ATOM     11  C   UNL     1       2.924   3.184  18.182  0.00  0.00    +0.000 A 
ATOM     12  C   UNL     1       3.386   2.992  19.478  0.00  0.00    +0.000 A 
ATOM     13  C   UNL     1       4.688   3.377  19.779  0.00  0.00    +0.000 A 
ATOM     14  N   UNL     1       5.542   3.928  18.889  0.00  0.00    +0.000 NA
ATOM     15  C   UNL     1       5.053   4.119  17.632  0.00  0.00    +0.000 A 
ATOM     16  C   UNL     1       3.769   3.763  17.240  0.00  0.00    +0.000 A 
BRANCH  11  18
ATOM     17  C   UNL     1       0.689   2.535  18.680  0.00  0.00    +0.000 C 
ATOM     18  O   UNL     1       1.683   2.856  17.714  0.00  0.00    +0.000 OA
ENDBRANCH  11  18
ENDBRANCH   1  15
TORSDOF 2
ENDMDL
MODEL 7
REMARK VINA RESULT:      -6.8      1.633      2.247
REMARK  Name = 
REMARK  3 active torsions:
REMARK  status: ('A' for Active; 'I' for Inactive)
REMARK    1  A    between atoms: C_1  and  O_2
REMARK    2  A    between atoms: O_2  and  C_3
REMARK    3  A    between atoms: C_7  and  C_8
REMARK                            x       y       z     vdW  Elec       q    Type
REMARK                         _______ _______ _______ _____ _____    ______ ____
ROOT
ATOM      1  C   UNL     1       4.344   3.937  18.771  0.00  0.00    +0.000 C 
ATOM      2  O   UNL     1       5.155   3.372  19.493  0.00  0.00    +0.000 OA
ATOM      3  N   UNL     1       2.991   4.048  18.986  0.00  0.00    +0.000 N 
ATOM      4  C   UNL     1       2.341   3.517  20.062  0.00  0.00    +0.000 A 
ATOM      5  N   UNL     1       2.951   2.954  21.152  0.00  0.00    +0.000 NA
ATOM      6  N   UNL     1       1.984   2.534  21.957  0.00  0.00    +0.000 NA
ATOM      7  N   UNL     1       0.857   2.845  21.309  0.00  0.00    +0.000 N 
ATOM      8  N   UNL     1       1.005   3.493  20.141  0.00  0.00    +0.000 NA
ATOM      9  H   UNL     1       2.418   4.483  18.277  0.00  0.00    +0.000 HD
ATOM     10  H   UNL     1      -0.054   2.590  21.679  0.00  0.00    +0.000 HD
ENDROOT
BRANCH   1  15
ATOM     11  C   UNL     1       5.766   4.384  15.315  0.00  0.00    +0.000 A 
ATOM     12  C   UNL     1       5.597   5.754  15.168  0.00  0.00    +0.000 A 
ATOM     13  C   UNL     1       5.017   6.464  16.212  0.00  0.00    +0.000 A 
ATOM     14  N   UNL     1       4.599   5.907  17.370  0.00  0.00    +0.000 NA
ATOM     15  C   UNL     1       4.795   4.564  17.490  0.00  0.00    +0.000 A 
ATOM     16  C   UNL     1       5.364   3.774  16.500  0.00  0.00    +0.000 A 
BRANCH  11  18
ATOM     17  C   UNL     1       5.980   3.769  13.026  0.00  0.00    +0.000 C 
ATOM     18  O   UNL     1       6.308   3.536  14.391  0.00  0.00    +0.000 OA
ENDBRANCH  11  18
ENDBRANCH   1  15
TORSDOF 2
ENDMDL
MODEL 8
REMARK VINA RESULT:      -6.8      2.423      5.889
REMARK  Name = 
REMARK  3 active torsions:
REMARK  status: ('A' for Active; 'I' for Inactive)
REMARK    1  A    between atoms: C_1  and  O_2
REMARK    2  A    between atoms: O_2  and  C_3
REMARK    3  A    between atoms: C_7  and  C_8
REMARK                            x       y       z     vdW  Elec       q    Type
REMARK                         _______ _______ _______ _____ _____    ______ ____
ROOT
ATOM      1  C   UNL     1       5.409   4.458  18.413  0.00  0.00    +0.000 C 
ATOM      2  O   UNL     1       6.540   4.614  18.856  0.00  0.00    +0.000 OA
ATOM      3  N   UNL     1       5.029   4.515  17.094  0.00  0.00    +0.000 N 
ATOM      4  C   UNL     1       5.885   4.772  16.062  0.00  0.00    +0.000 A 
ATOM      5  N   UNL     1       7.249   4.842  16.168  0.00  0.00    +0.000 NA
ATOM      6  N   UNL     1       7.711   5.137  14.960  0.00  0.00    +0.000 NA
ATOM      7  N   UNL     1       6.614   5.247  14.204  0.00  0.00    +0.000 N 
ATOM      8  N   UNL     1       5.445   4.994  14.817  0.00  0.00    +0.000 NA
ATOM      9  H   UNL     1       4.049   4.435  16.864  0.00  0.00    +0.000 HD
ATOM     10  H   UNL     1       6.670   5.520  13.227  0.00  0.00    +0.000 HD
ENDROOT
BRANCH   1  15
ATOM     11  C   UNL     1       2.341   4.985  20.529  0.00  0.00    +0.000 A 
ATOM     12  C   UNL     1       2.199   3.709  21.058  0.00  0.00    +0.000 A 
ATOM     13  C   UNL     1       3.119   2.734  20.687  0.00  0.00    +0.000 A 
ATOM     14  N   UNL     1       4.148   2.945  19.837  0.00  0.00    +0.000 NA
ATOM     15  C   UNL     1       4.269   4.211  19.349  0.00  0.00    +0.000 A 
ATOM     16  C   UNL     1       3.398   5.246  19.662  0.00  0.00    +0.000 A 
BRANCH  11  18
ATOM     17  C   UNL     1       1.966   7.326  20.316  0.00  0.00    +0.000 C 
ATOM     18  O   UNL     1       1.527   6.054  20.778  0.00  0.00    +0.000 OA
ENDBRANCH  11  18
ENDBRANCH   1  15
TORSDOF 2
ENDMDL
MODEL 9
REMARK VINA RESULT:      -6.7      1.679      2.499
REMARK  Name = 
REMARK  3 active torsions:
REMARK  status: ('A' for Active; 'I' for Inactive)
REMARK    1  A    between atoms: C_1  and  O_2
REMARK    2  A    between atoms: O_2  and  C_3
REMARK    3  A    between atoms: C_7  and  C_8
REMARK                            x       y       z     vdW  Elec       q    Type
REMARK                         _______ _______ _______ _____ _____    ______ ____
ROOT
ATOM      1  C   UNL     1       3.818   4.154  18.434  0.00  0.00    +0.000 C 
ATOM      2  O   UNL     1       2.783   4.661  18.021  0.00  0.00    +0.000 OA
ATOM      3  N   UNL     1       3.962   3.381  19.561  0.00  0.00    +0.000 N 
ATOM      4  C   UNL     1       2.941   3.070  20.410  0.00  0.00    +0.000 A 
ATOM      5  N   UNL     1       1.616   3.334  20.181  0.00  0.00    +0.000 NA
ATOM      6  N   UNL     1       0.951   2.908  21.246  0.00  0.00    +0.000 NA
ATOM      7  N   UNL     1       1.899   2.433  22.059  0.00  0.00    +0.000 N 
ATOM      8  N   UNL     1       3.156   2.467  21.586  0.00  0.00    +0.000 NA
ATOM      9  H   UNL     1       4.887   3.077  19.829  0.00  0.00    +0.000 HD
ATOM     10  H   UNL     1       1.675   2.082  22.986  0.00  0.00    +0.000 HD
ENDROOT
BRANCH   1  15
ATOM     11  C   UNL     1       6.302   4.785  15.677  0.00  0.00    +0.000 A 
ATOM     12  C   UNL     1       7.475   4.811  16.420  0.00  0.00    +0.000 A 
ATOM     13  C   UNL     1       7.390   4.624  17.795  0.00  0.00    +0.000 A 
ATOM     14  N   UNL     1       6.234   4.422  18.464  0.00  0.00    +0.000 NA
ATOM     15  C   UNL     1       5.104   4.386  17.705  0.00  0.00    +0.000 A 
ATOM     16  C   UNL     1       5.092   4.564  16.328  0.00  0.00    +0.000 A 
BRANCH  11  18
ATOM     17  C   UNL     1       6.203   3.786  13.518  0.00  0.00    +0.000 C 
ATOM     18  O   UNL     1       6.202   4.959  14.325  0.00  0.00    +0.000 OA
ENDBRANCH  11  18
ENDBRANCH   1  15
TORSDOF 2
ENDMDL
