MODEL 1
REMARK VINA RESULT:      -8.4      0.000      0.000
REMARK  Name = 
REMARK  10 active torsions:
REMARK  status: ('A' for Active; 'I' for Inactive)
REMARK    1  A    between atoms: C_2  and  C_3
REMARK    2  A    between atoms: C_3  and  C_4
REMARK    3  A    between atoms: N_10  and  CA_11
REMARK    4  A    between atoms: CA_11  and  C_12
REMARK    5  A    between atoms: CA_11  and  C_30
REMARK    6  A    between atoms: C_12  and  C_13
REMARK    7  A    between atoms: C_18  and  O_19
REMARK    8  A    between atoms: O_19  and  C_20
REMARK    9  A    between atoms: C_20  and  C_21
REMARK   10  A    between atoms: C_30  and  OXT_32
REMARK                            x       y       z     vdW  Elec       q    Type
REMARK                         _______ _______ _______ _____ _____    ______ ____
ROOT
ATOM      1  C   UNL     1       4.930   4.369  17.642  0.00  0.00    +0.000 A 
ATOM      2  C   UNL     1       4.419   5.262  16.709  0.00  0.00    +0.000 A 
ATOM      3  N   UNL     1       5.461   6.008  16.259  0.00  0.00    +0.000 N 
ATOM      4  C   UNL     1       6.405   6.086  17.247  0.00  0.00    +0.000 A 
ATOM      5  C   UNL     1       7.437   7.031  17.346  0.00  0.00    +0.000 A 
ATOM      6  C   UNL     1       8.173   7.139  18.522  0.00  0.00    +0.000 A 
ATOM      7  C   UNL     1       7.939   6.190  19.518  0.00  0.00    +0.000 A 
ATOM      8  C   UNL     1       6.949   5.141  19.353  0.00  0.00    +0.000 A 
ATOM      9  C   UNL     1       6.097   5.101  18.195  0.00  0.00    +0.000 A 
ATOM     10  H   UNL     1       5.453   6.598  15.438  0.00  0.00    +0.000 HD
ENDROOT
BRANCH   1  11
ATOM     11  C   UNL     1       4.165   3.038  17.889  0.00  0.00    +0.000 C 
BRANCH  11  12
ATOM     12  CA  UNL     1       3.362   3.020  19.277  0.00  0.00    +0.000 C 
BRANCH  12  15
ATOM     13  O   UNL     1       1.272   4.955  18.638  0.00  0.00    +0.000 OA
ATOM     14  C   UNL     1       2.011   5.176  19.595  0.00  0.00    +0.000 C 
ATOM     15  N   UNL     1       3.100   4.370  19.902  0.00  0.00    +0.000 N 
ATOM     16  H   UNL     1       3.266   4.367  20.911  0.00  0.00    +0.000 HD
BRANCH  14  17
ATOM     17  C   UNL     1       1.846   6.407  20.508  0.00  0.00    +0.000 C 
BRANCH  17  18
ATOM     18  C   UNL     1       1.724   7.784  19.865  0.00  0.00    +0.000 A 
ATOM     19  C   UNL     1       2.246   7.977  18.570  0.00  0.00    +0.000 A 
ATOM     20  C   UNL     1       2.132   9.215  17.917  0.00  0.00    +0.000 A 
ATOM     21  C   UNL     1       1.481  10.266  18.539  0.00  0.00    +0.000 A 
ATOM     22  C   UNL     1       0.915  10.078  19.802  0.00  0.00    +0.000 A 
ATOM     23  C   UNL     1       1.026   8.845  20.454  0.00  0.00    +0.000 A 
ENDBRANCH  17  18
ENDBRANCH  14  17
ENDBRANCH  12  15
BRANCH  12  24
ATOM     24  C   UNL     1       4.067   2.268  20.435  0.00  0.00    +0.000 C 
ATOM     25  O   UNL     1       5.170   1.747  20.286  0.00  0.00    +0.000 OA
BRANCH  24  26
ATOM     26  OXT UNL     1       3.455   2.221  21.634  0.00  0.00    +0.000 OA
ATOM     27  HXT UNL     1       2.497   2.150  21.632  0.00  0.00    +0.000 HD
ENDBRANCH  24  26
ENDBRANCH  12  24
ENDBRANCH  11  12
ENDBRANCH   1  11
BRANCH   6  28
ATOM     28  O   UNL     1       8.814   8.344  18.611  0.00  0.00    +0.000 OA
BRANCH  28  29
ATOM     29  C   UNL     1       8.318   9.570  18.067  0.00  0.00    +0.000 C 
BRANCH  29  30
ATOM     30  C   UNL     1       9.143  10.759  18.613  0.00  0.00    +0.000 A 
ATOM     31  C   UNL     1       9.355  11.917  17.839  0.00  0.00    +0.000 A 
ATOM     32  C   UNL     1      10.091  13.011  18.345  0.00  0.00    +0.000 A 
ATOM     33  C   UNL     1      10.625  12.969  19.628  0.00  0.00    +0.000 A 
ATOM     34  C   UNL     1      10.407  11.842  20.414  0.00  0.00    +0.000 A 
ATOM     35  C   UNL     1       9.671  10.748  19.916  0.00  0.00    +0.000 A 
ENDBRANCH  29  30
ENDBRANCH  28  29
ENDBRANCH   6  28
TORSDOF 10
ENDMDL
MODEL 2
REMARK VINA RESULT:      -8.4      0.823      1.243
REMARK  Name = 
REMARK  10 active torsions:
REMARK  status: ('A' for Active; 'I' for Inactive)
REMARK    1  A    between atoms: C_2  and  C_3
REMARK    2  A    between atoms: C_3  and  C_4
REMARK    3  A    between atoms: N_10  and  CA_11
REMARK    4  A    between atoms: CA_11  and  C_12
REMARK    5  A    between atoms: CA_11  and  C_30
REMARK    6  A    between atoms: C_12  and  C_13
REMARK    7  A    between atoms: C_18  and  O_19
REMARK    8  A    between atoms: O_19  and  C_20
REMARK    9  A    between atoms: C_20  and  C_21
REMARK   10  A    between atoms: C_30  and  OXT_32
REMARK                            x       y       z     vdW  Elec       q    Type
REMARK                         _______ _______ _______ _____ _____    ______ ____
ROOT
ATOM      1  C   UNL     1       5.286   4.747  16.794  0.00  0.00    +0.000 A 
ATOM      2  C   UNL     1       4.807   5.757  15.970  0.00  0.00    +0.000 A 
ATOM      3  N   UNL     1       5.834   6.623  15.764  0.00  0.00    +0.000 N 
ATOM      4  C   UNL     1       6.669   6.581  16.847  0.00  0.00    +0.000 A 
ATOM      5  C   UNL     1       7.618   7.547  17.211  0.00  0.00    +0.000 A 
ATOM      6  C   UNL     1       8.226   7.491  18.461  0.00  0.00    +0.000 A 
ATOM      7  C   UNL     1       7.963   6.375  19.257  0.00  0.00    +0.000 A 
ATOM      8  C   UNL     1       7.069   5.319  18.815  0.00  0.00    +0.000 A 
ATOM      9  C   UNL     1       6.339   5.433  17.582  0.00  0.00    +0.000 A 
ATOM     10  H   UNL     1       5.865   7.343  15.055  0.00  0.00    +0.000 HD
ENDROOT
BRANCH   1  11
ATOM     11  C   UNL     1       4.595   3.355  16.733  0.00  0.00    +0.000 C 
BRANCH  11  12
ATOM     12  CA  UNL     1       3.658   3.060  18.002  0.00  0.00    +0.000 C 
BRANCH  12  15
ATOM     13  O   UNL     1       1.676   5.193  17.795  0.00  0.00    +0.000 OA
ATOM     14  C   UNL     1       2.383   5.137  18.798  0.00  0.00    +0.000 C 
ATOM     15  N   UNL     1       3.425   4.229  18.931  0.00  0.00    +0.000 N 
ATOM     16  H   UNL     1       3.549   3.971  19.913  0.00  0.00    +0.000 HD
BRANCH  14  17
ATOM     17  C   UNL     1       2.229   6.115  19.981  0.00  0.00    +0.000 C 
BRANCH  17  18
ATOM     18  C   UNL     1       1.892   7.572  19.687  0.00  0.00    +0.000 A 
ATOM     19  C   UNL     1       2.241   8.110  18.432  0.00  0.00    +0.000 A 
ATOM     20  C   UNL     1       1.924   9.435  18.094  0.00  0.00    +0.000 A 
ATOM     21  C   UNL     1       1.240  10.232  18.996  0.00  0.00    +0.000 A 
ATOM     22  C   UNL     1       0.843   9.701  20.226  0.00  0.00    +0.000 A 
ATOM     23  C   UNL     1       1.157   8.379  20.563  0.00  0.00    +0.000 A 
ENDBRANCH  17  18
ENDBRANCH  14  17
ENDBRANCH  12  15
BRANCH  12  24
ATOM     24  C   UNL     1       4.193   1.982  18.978  0.00  0.00    +0.000 C 
ATOM     25  O   UNL     1       3.859   0.804  18.882  0.00  0.00    +0.000 OA
BRANCH  24  26
ATOM     26  OXT UNL     1       5.070   2.358  19.929  0.00  0.00    +0.000 OA
ATOM     27  HXT UNL     1       5.945   1.963  19.895  0.00  0.00    +0.000 HD
ENDBRANCH  24  26
ENDBRANCH  12  24
ENDBRANCH  11  12
ENDBRANCH   1  11
BRANCH   6  28
ATOM     28  O   UNL     1       8.770   8.695  18.817  0.00  0.00    +0.000 OA
BRANCH  28  29
ATOM     29  C   UNL     1       8.672   9.891  18.039  0.00  0.00    +0.000 C 
BRANCH  29  30
ATOM     30  C   UNL     1       9.291  11.076  18.817  0.00  0.00    +0.000 A 
ATOM     31  C   UNL     1       9.955  10.876  20.044  0.00  0.00    +0.000 A 
ATOM     32  C   UNL     1      10.537  11.955  20.745  0.00  0.00    +0.000 A 
ATOM     33  C   UNL     1      10.469  13.247  20.235  0.00  0.00    +0.000 A 
ATOM     34  C   UNL     1       9.835  13.459  19.014  0.00  0.00    +0.000 A 
ATOM     35  C   UNL     1       9.254  12.386  18.309  0.00  0.00    +0.000 A 
ENDBRANCH  29  30
ENDBRANCH  28  29
ENDBRANCH   6  28
TORSDOF 10
ENDMDL
MODEL 3
REMARK VINA RESULT:      -8.3      5.193      9.700
REMARK  Name = 
REMARK  10 active torsions:
REMARK  status: ('A' for Active; 'I' for Inactive)
REMARK    1  A    between atoms: C_2  and  C_3
REMARK    2  A    between atoms: C_3  and  C_4
REMARK    3  A    between atoms: N_10  and  CA_11
REMARK    4  A    between atoms: CA_11  and  C_12
REMARK    5  A    between atoms: CA_11  and  C_30
REMARK    6  A    between atoms: C_12  and  C_13
REMARK    7  A    between atoms: C_18  and  O_19
REMARK    8  A    between atoms: O_19  and  C_20
REMARK    9  A    between atoms: C_20  and  C_21
REMARK   10  A    between atoms: C_30  and  OXT_32
REMARK                            x       y       z     vdW  Elec       q    Type
REMARK                         _______ _______ _______ _____ _____    ______ ____
ROOT
ATOM      1  C   UNL     1       1.366  12.853  19.167  0.00  0.00    +0.000 A 
ATOM      2  C   UNL     1       2.222  12.492  18.134  0.00  0.00    +0.000 A 
ATOM      3  N   UNL     1       1.948  11.198  17.825  0.00  0.00    +0.000 N 
ATOM      4  C   UNL     1       1.473  10.569  18.944  0.00  0.00    +0.000 A 
ATOM      5  C   UNL     1       1.420   9.186  19.169  0.00  0.00    +0.000 A 
ATOM      6  C   UNL     1       1.138   8.696  20.440  0.00  0.00    +0.000 A 
ATOM      7  C   UNL     1       0.776   9.620  21.422  0.00  0.00    +0.000 A 
ATOM      8  C   UNL     1       0.718  11.044  21.141  0.00  0.00    +0.000 A 
ATOM      9  C   UNL     1       1.132  11.566  19.868  0.00  0.00    +0.000 A 
ATOM     10  H   UNL     1       2.254  10.712  16.992  0.00  0.00    +0.000 HD
ENDROOT
BRANCH   1  11
ATOM     11  C   UNL     1       1.009  14.357  19.339  0.00  0.00    +0.000 C 
BRANCH  11  12
ATOM     12  CA  UNL     1      -0.446  14.591  19.972  0.00  0.00    +0.000 C 
BRANCH  12  15
ATOM     13  O   UNL     1      -2.203  12.784  21.444  0.00  0.00    +0.000 OA
ATOM     14  C   UNL     1      -2.396  12.949  20.242  0.00  0.00    +0.000 C 
ATOM     15  N   UNL     1      -1.544  13.699  19.442  0.00  0.00    +0.000 N 
ATOM     16  H   UNL     1      -2.068  14.141  18.683  0.00  0.00    +0.000 HD
BRANCH  14  17
ATOM     17  C   UNL     1      -3.565  12.283  19.488  0.00  0.00    +0.000 C 
BRANCH  17  18
ATOM     18  C   UNL     1      -3.265  11.502  18.214  0.00  0.00    +0.000 A 
ATOM     19  C   UNL     1      -2.169  10.615  18.204  0.00  0.00    +0.000 A 
ATOM     20  C   UNL     1      -1.866   9.845  17.070  0.00  0.00    +0.000 A 
ATOM     21  C   UNL     1      -2.664   9.935  15.943  0.00  0.00    +0.000 A 
ATOM     22  C   UNL     1      -3.783  10.770  15.952  0.00  0.00    +0.000 A 
ATOM     23  C   UNL     1      -4.087  11.539  17.082  0.00  0.00    +0.000 A 
ENDBRANCH  17  18
ENDBRANCH  14  17
ENDBRANCH  12  15
BRANCH  12  24
ATOM     24  C   UNL     1      -1.045  16.002  19.739  0.00  0.00    +0.000 C 
ATOM     25  O   UNL     1      -1.499  16.670  20.665  0.00  0.00    +0.000 OA
BRANCH  24  26
ATOM     26  OXT UNL     1      -1.031  16.504  18.489  0.00  0.00    +0.000 OA
ATOM     27  HXT UNL     1      -0.464  16.065  17.850  0.00  0.00    +0.000 HD
ENDBRANCH  24  26
ENDBRANCH  12  24
ENDBRANCH  11  12
ENDBRANCH   1  11
BRANCH   6  28
ATOM     28  O   UNL     1       1.540   7.396  20.585  0.00  0.00    +0.000 OA
BRANCH  28  29
ATOM     29  C   UNL     1       2.424   6.715  19.690  0.00  0.00    +0.000 C 
BRANCH  29  30
ATOM     30  C   UNL     1       1.923   5.271  19.456  0.00  0.00    +0.000 A 
ATOM     31  C   UNL     1       1.979   4.677  18.180  0.00  0.00    +0.000 A 
ATOM     32  C   UNL     1       1.540   3.351  17.969  0.00  0.00    +0.000 A 
ATOM     33  C   UNL     1       1.042   2.597  19.026  0.00  0.00    +0.000 A 
ATOM     34  C   UNL     1       1.000   3.160  20.297  0.00  0.00    +0.000 A 
ATOM     35  C   UNL     1       1.439   4.482  20.514  0.00  0.00    +0.000 A 
ENDBRANCH  29  30
ENDBRANCH  28  29
ENDBRANCH   6  28
TORSDOF 10
ENDMDL
MODEL 4
REMARK VINA RESULT:      -8.3      0.659      1.360
REMARK  Name = 
REMARK  10 active torsions:
REMARK  status: ('A' for Active; 'I' for Inactive)
REMARK    1  A    between atoms: C_2  and  C_3
REMARK    2  A    between atoms: C_3  and  C_4
REMARK    3  A    between atoms: N_10  and  CA_11
REMARK    4  A    between atoms: CA_11  and  C_12
REMARK    5  A    between atoms: CA_11  and  C_30
REMARK    6  A    between atoms: C_12  and  C_13
REMARK    7  A    between atoms: C_18  and  O_19
REMARK    8  A    between atoms: O_19  and  C_20
REMARK    9  A    between atoms: C_20  and  C_21
REMARK   10  A    between atoms: C_30  and  OXT_32
REMARK                            x       y       z     vdW  Elec       q    Type
REMARK                         _______ _______ _______ _____ _____    ______ ____
ROOT
ATOM      1  C   UNL     1       5.172   4.659  17.675  0.00  0.00    +0.000 A 
ATOM      2  C   UNL     1       4.391   5.516  16.911  0.00  0.00    +0.000 A 
ATOM      3  N   UNL     1       5.233   6.412  16.333  0.00  0.00    +0.000 N 
ATOM      4  C   UNL     1       6.327   6.571  17.138  0.00  0.00    +0.000 A 
ATOM      5  C   UNL     1       7.237   7.638  17.115  0.00  0.00    +0.000 A 
ATOM      6  C   UNL     1       8.160   7.791  18.145  0.00  0.00    +0.000 A 
ATOM      7  C   UNL     1       8.233   6.777  19.101  0.00  0.00    +0.000 A 
ATOM      8  C   UNL     1       7.364   5.615  19.045  0.00  0.00    +0.000 A 
ATOM      9  C   UNL     1       6.323   5.514  18.059  0.00  0.00    +0.000 A 
ATOM     10  H   UNL     1       5.000   7.032  15.568  0.00  0.00    +0.000 HD
ENDROOT
BRANCH   1  11
ATOM     11  C   UNL     1       4.633   3.229  17.965  0.00  0.00    +0.000 C 
BRANCH  11  12
ATOM     12  CA  UNL     1       3.632   3.173  19.217  0.00  0.00    +0.000 C 
BRANCH  12  15
ATOM     13  O   UNL     1       1.309   4.886  18.789  0.00  0.00    +0.000 OA
ATOM     14  C   UNL     1       2.119   5.193  19.661  0.00  0.00    +0.000 C 
ATOM     15  N   UNL     1       3.307   4.502  19.857  0.00  0.00    +0.000 N 
ATOM     16  H   UNL     1       3.577   4.532  20.843  0.00  0.00    +0.000 HD
BRANCH  14  17
ATOM     17  C   UNL     1       1.930   6.418  20.578  0.00  0.00    +0.000 C 
BRANCH  17  18
ATOM     18  C   UNL     1       1.647   7.774  19.942  0.00  0.00    +0.000 A 
ATOM     19  C   UNL     1       0.958   8.747  20.694  0.00  0.00    +0.000 A 
ATOM     20  C   UNL     1       0.700  10.024  20.171  0.00  0.00    +0.000 A 
ATOM     21  C   UNL     1       1.142  10.351  18.901  0.00  0.00    +0.000 A 
ATOM     22  C   UNL     1       1.870   9.416  18.159  0.00  0.00    +0.000 A 
ATOM     23  C   UNL     1       2.128   8.143  18.680  0.00  0.00    +0.000 A 
ENDBRANCH  17  18
ENDBRANCH  14  17
ENDBRANCH  12  15
BRANCH  12  24
ATOM     24  C   UNL     1       4.144   2.355  20.431  0.00  0.00    +0.000 C 
ATOM     25  O   UNL     1       5.214   1.753  20.396  0.00  0.00    +0.000 OA
BRANCH  24  26
ATOM     26  OXT UNL     1       3.399   2.341  21.553  0.00  0.00    +0.000 OA
ATOM     27  HXT UNL     1       2.728   3.024  21.639  0.00  0.00    +0.000 HD
ENDBRANCH  24  26
ENDBRANCH  12  24
ENDBRANCH  11  12
ENDBRANCH   1  11
BRANCH   6  28
ATOM     28  O   UNL     1       8.655   9.065  18.199  0.00  0.00    +0.000 OA
BRANCH  28  29
ATOM     29  C   UNL     1       8.979   9.760  19.406  0.00  0.00    +0.000 C 
BRANCH  29  30
ATOM     30  C   UNL     1       9.927  10.941  19.095  0.00  0.00    +0.000 A 
ATOM     31  C   UNL     1      10.594  11.633  20.125  0.00  0.00    +0.000 A 
ATOM     32  C   UNL     1      11.476  12.699  19.839  0.00  0.00    +0.000 A 
ATOM     33  C   UNL     1      11.708  13.089  18.525  0.00  0.00    +0.000 A 
ATOM     34  C   UNL     1      11.075  12.402  17.494  0.00  0.00    +0.000 A 
ATOM     35  C   UNL     1      10.195  11.336  17.773  0.00  0.00    +0.000 A 
ENDBRANCH  29  30
ENDBRANCH  28  29
ENDBRANCH   6  28
TORSDOF 10
ENDMDL
MODEL 5
REMARK VINA RESULT:      -8.2      4.177      7.423
REMARK  Name = 
REMARK  10 active torsions:
REMARK  status: ('A' for Active; 'I' for Inactive)
REMARK    1  A    between atoms: C_2  and  C_3
REMARK    2  A    between atoms: C_3  and  C_4
REMARK    3  A    between atoms: N_10  and  CA_11
REMARK    4  A    between atoms: CA_11  and  C_12
REMARK    5  A    between atoms: CA_11  and  C_30
REMARK    6  A    between atoms: C_12  and  C_13
REMARK    7  A    between atoms: C_18  and  O_19
REMARK    8  A    between atoms: O_19  and  C_20
REMARK    9  A    between atoms: C_20  and  C_21
REMARK   10  A    between atoms: C_30  and  OXT_32
REMARK                            x       y       z     vdW  Elec       q    Type
REMARK                         _______ _______ _______ _____ _____    ______ ____
ROOT
ATOM      1  C   UNL     1       4.312   6.552  17.559  0.00  0.00    +0.000 A 
ATOM      2  C   UNL     1       4.796   5.925  18.700  0.00  0.00    +0.000 A 
ATOM      3  N   UNL     1       3.751   5.804  19.560  0.00  0.00    +0.000 N 
ATOM      4  C   UNL     1       2.866   6.822  19.324  0.00  0.00    +0.000 A 
ATOM      5  C   UNL     1       1.869   7.283  20.195  0.00  0.00    +0.000 A 
ATOM      6  C   UNL     1       1.203   8.475  19.925  0.00  0.00    +0.000 A 
ATOM      7  C   UNL     1       1.466   9.097  18.704  0.00  0.00    +0.000 A 
ATOM      8  C   UNL     1       2.416   8.542  17.756  0.00  0.00    +0.000 A 
ATOM      9  C   UNL     1       3.200   7.383  18.084  0.00  0.00    +0.000 A 
ATOM     10  H   UNL     1       3.729   5.217  20.384  0.00  0.00    +0.000 HD
ENDROOT
BRANCH   1  11
ATOM     11  C   UNL     1       5.052   6.310  16.213  0.00  0.00    +0.000 C 
BRANCH  11  12
ATOM     12  CA  UNL     1       5.053   4.770  15.761  0.00  0.00    +0.000 C 
BRANCH  12  15
ATOM     13  O   UNL     1       2.433   3.578  16.244  0.00  0.00    +0.000 OA
ATOM     14  C   UNL     1       3.393   3.187  16.905  0.00  0.00    +0.000 C 
ATOM     15  N   UNL     1       4.648   3.775  16.823  0.00  0.00    +0.000 N 
ATOM     16  H   UNL     1       5.377   3.080  16.999  0.00  0.00    +0.000 HD
BRANCH  14  17
ATOM     17  C   UNL     1       3.281   2.052  17.943  0.00  0.00    +0.000 C 
BRANCH  17  18
ATOM     18  C   UNL     1       2.583   2.336  19.268  0.00  0.00    +0.000 A 
ATOM     19  C   UNL     1       3.348   2.337  20.452  0.00  0.00    +0.000 A 
ATOM     20  C   UNL     1       2.764   2.625  21.696  0.00  0.00    +0.000 A 
ATOM     21  C   UNL     1       1.416   2.935  21.769  0.00  0.00    +0.000 A 
ATOM     22  C   UNL     1       0.653   2.988  20.600  0.00  0.00    +0.000 A 
ATOM     23  C   UNL     1       1.235   2.701  19.360  0.00  0.00    +0.000 A 
ENDBRANCH  17  18
ENDBRANCH  14  17
ENDBRANCH  12  15
BRANCH  12  24
ATOM     24  C   UNL     1       6.431   4.216  15.318  0.00  0.00    +0.000 C 
ATOM     25  O   UNL     1       7.462   4.494  15.925  0.00  0.00    +0.000 OA
BRANCH  24  26
ATOM     26  OXT UNL     1       6.476   3.386  14.258  0.00  0.00    +0.000 OA
ATOM     27  HXT UNL     1       5.649   3.225  13.796  0.00  0.00    +0.000 HD
ENDBRANCH  24  26
ENDBRANCH  12  24
ENDBRANCH  11  12
ENDBRANCH   1  11
BRANCH   6  28
ATOM     28  O   UNL     1       0.602   8.986  21.042  0.00  0.00    +0.000 OA
BRANCH  28  29
ATOM     29  C   UNL     1       0.865  10.284  21.584  0.00  0.00    +0.000 C 
BRANCH  29  30
ATOM     30  C   UNL     1      -0.462  11.061  21.752  0.00  0.00    +0.000 A 
ATOM     31  C   UNL     1      -1.095  11.162  23.006  0.00  0.00    +0.000 A 
ATOM     32  C   UNL     1      -2.296  11.888  23.164  0.00  0.00    +0.000 A 
ATOM     33  C   UNL     1      -2.882  12.526  22.076  0.00  0.00    +0.000 A 
ATOM     34  C   UNL     1      -2.259  12.455  20.835  0.00  0.00    +0.000 A 
ATOM     35  C   UNL     1      -1.059  11.733  20.671  0.00  0.00    +0.000 A 
ENDBRANCH  29  30
ENDBRANCH  28  29
ENDBRANCH   6  28
TORSDOF 10
ENDMDL
MODEL 6
REMARK VINA RESULT:      -8.0      1.256      1.791
REMARK  Name = 
REMARK  10 active torsions:
REMARK  status: ('A' for Active; 'I' for Inactive)
REMARK    1  A    between atoms: C_2  and  C_3
REMARK    2  A    between atoms: C_3  and  C_4
REMARK    3  A    between atoms: N_10  and  CA_11
REMARK    4  A    between atoms: CA_11  and  C_12
REMARK    5  A    between atoms: CA_11  and  C_30
REMARK    6  A    between atoms: C_12  and  C_13
REMARK    7  A    between atoms: C_18  and  O_19
REMARK    8  A    between atoms: O_19  and  C_20
REMARK    9  A    between atoms: C_20  and  C_21
REMARK   10  A    between atoms: C_30  and  OXT_32
REMARK                            x       y       z     vdW  Elec       q    Type
REMARK                         _______ _______ _______ _____ _____    ______ ____
ROOT
ATOM      1  C   UNL     1       5.085   4.873  17.033  0.00  0.00    +0.000 A 
ATOM      2  C   UNL     1       4.614   5.888  16.210  0.00  0.00    +0.000 A 
ATOM      3  N   UNL     1       5.669   6.699  15.935  0.00  0.00    +0.000 N 
ATOM      4  C   UNL     1       6.553   6.639  16.978  0.00  0.00    +0.000 A 
ATOM      5  C   UNL     1       7.563   7.566  17.274  0.00  0.00    +0.000 A 
ATOM      6  C   UNL     1       8.228   7.508  18.495  0.00  0.00    +0.000 A 
ATOM      7  C   UNL     1       7.952   6.423  19.328  0.00  0.00    +0.000 A 
ATOM      8  C   UNL     1       6.989   5.402  18.954  0.00  0.00    +0.000 A 
ATOM      9  C   UNL     1       6.206   5.525  17.754  0.00  0.00    +0.000 A 
ATOM     10  H   UNL     1       5.700   7.402  15.209  0.00  0.00    +0.000 HD
ENDROOT
BRANCH   1  11
ATOM     11  C   UNL     1       4.327   3.515  17.038  0.00  0.00    +0.000 C 
BRANCH  11  12
ATOM     12  CA  UNL     1       2.768   3.663  17.388  0.00  0.00    +0.000 C 
BRANCH  12  15
ATOM     13  O   UNL     1       3.623   3.877  20.170  0.00  0.00    +0.000 OA
ATOM     14  C   UNL     1       2.965   4.792  19.680  0.00  0.00    +0.000 C 
ATOM     15  N   UNL     1       2.422   4.726  18.404  0.00  0.00    +0.000 N 
ATOM     16  H   UNL     1       2.378   5.658  17.988  0.00  0.00    +0.000 HD
BRANCH  14  17
ATOM     17  C   UNL     1       2.620   6.078  20.459  0.00  0.00    +0.000 C 
BRANCH  17  18
ATOM     18  C   UNL     1       2.189   7.314  19.678  0.00  0.00    +0.000 A 
ATOM     19  C   UNL     1       1.376   8.271  20.318  0.00  0.00    +0.000 A 
ATOM     20  C   UNL     1       0.978   9.445  19.659  0.00  0.00    +0.000 A 
ATOM     21  C   UNL     1       1.401   9.686  18.363  0.00  0.00    +0.000 A 
ATOM     22  C   UNL     1       2.248   8.772  17.731  0.00  0.00    +0.000 A 
ATOM     23  C   UNL     1       2.647   7.602  18.387  0.00  0.00    +0.000 A 
ENDBRANCH  17  18
ENDBRANCH  14  17
ENDBRANCH  12  15
BRANCH  12  24
ATOM     24  C   UNL     1       2.112   2.404  18.010  0.00  0.00    +0.000 C 
ATOM     25  O   UNL     1       0.901   2.339  18.205  0.00  0.00    +0.000 OA
BRANCH  24  26
ATOM     26  OXT UNL     1       2.900   1.353  18.309  0.00  0.00    +0.000 OA
ATOM     27  HXT UNL     1       3.766   1.326  17.893  0.00  0.00    +0.000 HD
ENDBRANCH  24  26
ENDBRANCH  12  24
ENDBRANCH  11  12
ENDBRANCH   1  11
BRANCH   6  28
ATOM     28  O   UNL     1       8.845   8.691  18.796  0.00  0.00    +0.000 OA
BRANCH  28  29
ATOM     29  C   UNL     1       8.518   9.951  18.202  0.00  0.00    +0.000 C 
BRANCH  29  30
ATOM     30  C   UNL     1       9.433  11.056  18.778  0.00  0.00    +0.000 A 
ATOM     31  C   UNL     1       8.905  12.285  19.220  0.00  0.00    +0.000 A 
ATOM     32  C   UNL     1       9.738  13.287  19.765  0.00  0.00    +0.000 A 
ATOM     33  C   UNL     1      11.108  13.080  19.879  0.00  0.00    +0.000 A 
ATOM     34  C   UNL     1      11.644  11.864  19.466  0.00  0.00    +0.000 A 
ATOM     35  C   UNL     1      10.817  10.859  18.924  0.00  0.00    +0.000 A 
ENDBRANCH  29  30
ENDBRANCH  28  29
ENDBRANCH   6  28
TORSDOF 10
ENDMDL
MODEL 7
REMARK VINA RESULT:      -7.8      5.626      9.858
REMARK  Name = 
REMARK  10 active torsions:
REMARK  status: ('A' for Active; 'I' for Inactive)
REMARK    1  A    between atoms: C_2  and  C_3
REMARK    2  A    between atoms: C_3  and  C_4
REMARK    3  A    between atoms: N_10  and  CA_11
REMARK    4  A    between atoms: CA_11  and  C_12
REMARK    5  A    between atoms: CA_11  and  C_30
REMARK    6  A    between atoms: C_12  and  C_13
REMARK    7  A    between atoms: C_18  and  O_19
REMARK    8  A    between atoms: O_19  and  C_20
REMARK    9  A    between atoms: C_20  and  C_21
REMARK   10  A    between atoms: C_30  and  OXT_32
REMARK                            x       y       z     vdW  Elec       q    Type
REMARK                         _______ _______ _______ _____ _____    ______ ____
ROOT
ATOM      1  C   UNL     1      -0.525  12.216  22.047  0.00  0.00    +0.000 A 
ATOM      2  C   UNL     1       0.327  13.016  21.296  0.00  0.00    +0.000 A 
ATOM      3  N   UNL     1       0.600  12.339  20.150  0.00  0.00    +0.000 N 
ATOM      4  C   UNL     1       0.514  10.997  20.400  0.00  0.00    +0.000 A 
ATOM      5  C   UNL     1       1.062   9.964  19.626  0.00  0.00    +0.000 A 
ATOM      6  C   UNL     1       1.103   8.665  20.123  0.00  0.00    +0.000 A 
ATOM      7  C   UNL     1       0.459   8.419  21.336  0.00  0.00    +0.000 A 
ATOM      8  C   UNL     1      -0.211   9.478  22.071  0.00  0.00    +0.000 A 
ATOM      9  C   UNL     1      -0.147  10.844  21.626  0.00  0.00    +0.000 A 
ATOM     10  H   UNL     1       1.020  12.733  19.318  0.00  0.00    +0.000 HD
ENDROOT
BRANCH   1  11
ATOM     11  C   UNL     1      -1.466  12.903  23.077  0.00  0.00    +0.000 C 
BRANCH  11  12
ATOM     12  CA  UNL     1      -2.851  12.119  23.286  0.00  0.00    +0.000 C 
BRANCH  12  15
ATOM     13  O   UNL     1      -3.452  14.248  21.383  0.00  0.00    +0.000 OA
ATOM     14  C   UNL     1      -3.912  13.126  21.182  0.00  0.00    +0.000 C 
ATOM     15  N   UNL     1      -3.773  12.085  22.090  0.00  0.00    +0.000 N 
ATOM     16  H   UNL     1      -3.735  11.189  21.599  0.00  0.00    +0.000 HD
BRANCH  14  17
ATOM     17  C   UNL     1      -4.750  12.782  19.934  0.00  0.00    +0.000 C 
BRANCH  17  18
ATOM     18  C   UNL     1      -4.069  12.077  18.766  0.00  0.00    +0.000 A 
ATOM     19  C   UNL     1      -2.712  11.715  18.890  0.00  0.00    +0.000 A 
ATOM     20  C   UNL     1      -2.044  11.034  17.860  0.00  0.00    +0.000 A 
ATOM     21  C   UNL     1      -2.725  10.690  16.705  0.00  0.00    +0.000 A 
ATOM     22  C   UNL     1      -4.083  10.996  16.585  0.00  0.00    +0.000 A 
ATOM     23  C   UNL     1      -4.751  11.674  17.612  0.00  0.00    +0.000 A 
ENDBRANCH  17  18
ENDBRANCH  14  17
ENDBRANCH  12  15
BRANCH  12  24
ATOM     24  C   UNL     1      -3.777  12.704  24.383  0.00  0.00    +0.000 C 
ATOM     25  O   UNL     1      -3.595  13.826  24.848  0.00  0.00    +0.000 OA
BRANCH  24  26
ATOM     26  OXT UNL     1      -4.822  11.963  24.801  0.00  0.00    +0.000 OA
ATOM     27  HXT UNL     1      -4.883  11.790  25.743  0.00  0.00    +0.000 HD
ENDBRANCH  24  26
ENDBRANCH  12  24
ENDBRANCH  11  12
ENDBRANCH   1  11
BRANCH   6  28
ATOM     28  O   UNL     1       2.022   7.896  19.463  0.00  0.00    +0.000 OA
BRANCH  28  29
ATOM     29  C   UNL     1       2.732   6.800  20.046  0.00  0.00    +0.000 C 
BRANCH  29  30
ATOM     30  C   UNL     1       2.075   5.465  19.625  0.00  0.00    +0.000 A 
ATOM     31  C   UNL     1       2.072   5.044  18.281  0.00  0.00    +0.000 A 
ATOM     32  C   UNL     1       1.490   3.815  17.900  0.00  0.00    +0.000 A 
ATOM     33  C   UNL     1       0.903   2.988  18.851  0.00  0.00    +0.000 A 
ATOM     34  C   UNL     1       0.915   3.378  20.186  0.00  0.00    +0.000 A 
ATOM     35  C   UNL     1       1.497   4.602  20.573  0.00  0.00    +0.000 A 
ENDBRANCH  29  30
ENDBRANCH  28  29
ENDBRANCH   6  28
TORSDOF 10
ENDMDL
MODEL 8
REMARK VINA RESULT:      -7.8      4.165      7.002
REMARK  Name = 
REMARK  10 active torsions:
REMARK  status: ('A' for Active; 'I' for Inactive)
REMARK    1  A    between atoms: C_2  and  C_3
REMARK    2  A    between atoms: C_3  and  C_4
REMARK    3  A    between atoms: N_10  and  CA_11
REMARK    4  A    between atoms: CA_11  and  C_12
REMARK    5  A    between atoms: CA_11  and  C_30
REMARK    6  A    between atoms: C_12  and  C_13
REMARK    7  A    between atoms: C_18  and  O_19
REMARK    8  A    between atoms: O_19  and  C_20
REMARK    9  A    between atoms: C_20  and  C_21
REMARK   10  A    between atoms: C_30  and  OXT_32
REMARK                            x       y       z     vdW  Elec       q    Type
REMARK                         _______ _______ _______ _____ _____    ______ ____
ROOT
ATOM      1  C   UNL     1       4.258   6.491  17.640  0.00  0.00    +0.000 A 
ATOM      2  C   UNL     1       4.747   5.896  18.796  0.00  0.00    +0.000 A 
ATOM      3  N   UNL     1       3.715   5.834  19.678  0.00  0.00    +0.000 N 
ATOM      4  C   UNL     1       2.851   6.862  19.418  0.00  0.00    +0.000 A 
ATOM      5  C   UNL     1       1.880   7.380  20.287  0.00  0.00    +0.000 A 
ATOM      6  C   UNL     1       1.238   8.577  19.982  0.00  0.00    +0.000 A 
ATOM      7  C   UNL     1       1.493   9.145  18.733  0.00  0.00    +0.000 A 
ATOM      8  C   UNL     1       2.412   8.531  17.791  0.00  0.00    +0.000 A 
ATOM      9  C   UNL     1       3.174   7.367  18.151  0.00  0.00    +0.000 A 
ATOM     10  H   UNL     1       3.695   5.279  20.523  0.00  0.00    +0.000 HD
ENDROOT
BRANCH   1  11
ATOM     11  C   UNL     1       4.968   6.179  16.291  0.00  0.00    +0.000 C 
BRANCH  11  12
ATOM     12  CA  UNL     1       5.478   4.662  16.183  0.00  0.00    +0.000 C 
BRANCH  12  15
ATOM     13  O   UNL     1       2.840   3.414  16.123  0.00  0.00    +0.000 OA
ATOM     14  C   UNL     1       3.637   3.073  16.994  0.00  0.00    +0.000 C 
ATOM     15  N   UNL     1       4.868   3.692  17.168  0.00  0.00    +0.000 N 
ATOM     16  H   UNL     1       5.554   3.024  17.527  0.00  0.00    +0.000 HD
BRANCH  14  17
ATOM     17  C   UNL     1       3.321   1.971  18.026  0.00  0.00    +0.000 C 
BRANCH  17  18
ATOM     18  C   UNL     1       2.663   2.367  19.343  0.00  0.00    +0.000 A 
ATOM     19  C   UNL     1       1.297   2.714  19.341  0.00  0.00    +0.000 A 
ATOM     20  C   UNL     1       0.631   3.054  20.530  0.00  0.00    +0.000 A 
ATOM     21  C   UNL     1       1.314   3.032  21.733  0.00  0.00    +0.000 A 
ATOM     22  C   UNL     1       2.656   2.642  21.761  0.00  0.00    +0.000 A 
ATOM     23  C   UNL     1       3.320   2.302  20.577  0.00  0.00    +0.000 A 
ENDBRANCH  17  18
ENDBRANCH  14  17
ENDBRANCH  12  15
BRANCH  12  24
ATOM     24  C   UNL     1       6.994   4.459  16.437  0.00  0.00    +0.000 C 
ATOM     25  O   UNL     1       7.825   4.645  15.553  0.00  0.00    +0.000 OA
BRANCH  24  26
ATOM     26  OXT UNL     1       7.393   4.099  17.673  0.00  0.00    +0.000 OA
ATOM     27  HXT UNL     1       7.534   3.162  17.829  0.00  0.00    +0.000 HD
ENDBRANCH  24  26
ENDBRANCH  12  24
ENDBRANCH  11  12
ENDBRANCH   1  11
BRANCH   6  28
ATOM     28  O   UNL     1       0.669   9.145  21.089  0.00  0.00    +0.000 OA
BRANCH  28  29
ATOM     29  C   UNL     1      -0.628   9.746  21.117  0.00  0.00    +0.000 C 
BRANCH  29  30
ATOM     30  C   UNL     1      -0.518  11.212  21.596  0.00  0.00    +0.000 A 
ATOM     31  C   UNL     1       0.290  12.144  20.915  0.00  0.00    +0.000 A 
ATOM     32  C   UNL     1       0.375  13.488  21.341  0.00  0.00    +0.000 A 
ATOM     33  C   UNL     1      -0.343  13.924  22.449  0.00  0.00    +0.000 A 
ATOM     34  C   UNL     1      -1.162  13.022  23.120  0.00  0.00    +0.000 A 
ATOM     35  C   UNL     1      -1.253  11.680  22.699  0.00  0.00    +0.000 A 
ENDBRANCH  29  30
ENDBRANCH  28  29
ENDBRANCH   6  28
TORSDOF 10
ENDMDL
MODEL 9
REMARK VINA RESULT:      -7.8      4.160      6.820
REMARK  Name = 
REMARK  10 active torsions:
REMARK  status: ('A' for Active; 'I' for Inactive)
REMARK    1  A    between atoms: C_2  and  C_3
REMARK    2  A    between atoms: C_3  and  C_4
REMARK    3  A    between atoms: N_10  and  CA_11
REMARK    4  A    between atoms: CA_11  and  C_12
REMARK    5  A    between atoms: CA_11  and  C_30
REMARK    6  A    between atoms: C_12  and  C_13
REMARK    7  A    between atoms: C_18  and  O_19
REMARK    8  A    between atoms: O_19  and  C_20
REMARK    9  A    between atoms: C_20  and  C_21
REMARK   10  A    between atoms: C_30  and  OXT_32
REMARK                            x       y       z     vdW  Elec       q    Type
REMARK                         _______ _______ _______ _____ _____    ______ ____
ROOT
ATOM      1  C   UNL     1       4.222   6.493  17.706  0.00  0.00    +0.000 A 
ATOM      2  C   UNL     1       4.683   5.893  18.871  0.00  0.00    +0.000 A 
ATOM      3  N   UNL     1       3.623   5.800  19.716  0.00  0.00    +0.000 N 
ATOM      4  C   UNL     1       2.748   6.815  19.440  0.00  0.00    +0.000 A 
ATOM      5  C   UNL     1       1.740   7.304  20.281  0.00  0.00    +0.000 A 
ATOM      6  C   UNL     1       1.085   8.492  19.970  0.00  0.00    +0.000 A 
ATOM      7  C   UNL     1       1.371   9.081  18.738  0.00  0.00    +0.000 A 
ATOM      8  C   UNL     1       2.333   8.497  17.820  0.00  0.00    +0.000 A 
ATOM      9  C   UNL     1       3.105   7.342  18.191  0.00  0.00    +0.000 A 
ATOM     10  H   UNL     1       3.585   5.235  20.554  0.00  0.00    +0.000 HD
ENDROOT
BRANCH   1  11
ATOM     11  C   UNL     1       4.982   6.212  16.379  0.00  0.00    +0.000 C 
BRANCH  11  12
ATOM     12  CA  UNL     1       5.475   4.691  16.244  0.00  0.00    +0.000 C 
BRANCH  12  15
ATOM     13  O   UNL     1       2.841   3.440  16.117  0.00  0.00    +0.000 OA
ATOM     14  C   UNL     1       3.621   3.091  17.001  0.00  0.00    +0.000 C 
ATOM     15  N   UNL     1       4.847   3.710  17.206  0.00  0.00    +0.000 N 
ATOM     16  H   UNL     1       5.526   3.040  17.572  0.00  0.00    +0.000 HD
BRANCH  14  17
ATOM     17  C   UNL     1       3.286   1.977  18.014  0.00  0.00    +0.000 C 
BRANCH  17  18
ATOM     18  C   UNL     1       2.554   2.351  19.298  0.00  0.00    +0.000 A 
ATOM     19  C   UNL     1       3.249   2.270  20.522  0.00  0.00    +0.000 A 
ATOM     20  C   UNL     1       2.635   2.634  21.732  0.00  0.00    +0.000 A 
ATOM     21  C   UNL     1       1.332   3.099  21.731  0.00  0.00    +0.000 A 
ATOM     22  C   UNL     1       0.645   3.233  20.522  0.00  0.00    +0.000 A 
ATOM     23  C   UNL     1       1.256   2.872  19.315  0.00  0.00    +0.000 A 
ENDBRANCH  17  18
ENDBRANCH  14  17
ENDBRANCH  12  15
BRANCH  12  24
ATOM     24  C   UNL     1       6.986   4.465  16.504  0.00  0.00    +0.000 C 
ATOM     25  O   UNL     1       7.823   4.629  15.620  0.00  0.00    +0.000 OA
BRANCH  24  26
ATOM     26  OXT UNL     1       7.376   4.110  17.744  0.00  0.00    +0.000 OA
ATOM     27  HXT UNL     1       7.720   3.220  17.854  0.00  0.00    +0.000 HD
ENDBRANCH  24  26
ENDBRANCH  12  24
ENDBRANCH  11  12
ENDBRANCH   1  11
BRANCH   6  28
ATOM     28  O   UNL     1       0.468   9.035  21.063  0.00  0.00    +0.000 OA
BRANCH  28  29
ATOM     29  C   UNL     1       0.880  10.241  21.712  0.00  0.00    +0.000 C 
BRANCH  29  30
ATOM     30  C   UNL     1       0.344  11.466  20.934  0.00  0.00    +0.000 A 
ATOM     31  C   UNL     1      -1.038  11.666  20.750  0.00  0.00    +0.000 A 
ATOM     32  C   UNL     1      -1.529  12.794  20.058  0.00  0.00    +0.000 A 
ATOM     33  C   UNL     1      -0.651  13.741  19.540  0.00  0.00    +0.000 A 
ATOM     34  C   UNL     1       0.716  13.570  19.731  0.00  0.00    +0.000 A 
ATOM     35  C   UNL     1       1.212  12.447  20.424  0.00  0.00    +0.000 A 
ENDBRANCH  29  30
ENDBRANCH  28  29
ENDBRANCH   6  28
TORSDOF 10
ENDMDL
