MODEL 1
REMARK VINA RESULT:      -7.8      0.000      0.000
REMARK  Name = 
REMARK  9 active torsions:
REMARK  status: ('A' for Active; 'I' for Inactive)
REMARK    1  A    between atoms: C_1  and  C_2
REMARK    2  A    between atoms: N_4  and  C_5
REMARK    3  A    between atoms: C_5  and  C_6
REMARK    4  A    between atoms: C_6  and  C_7
REMARK    5  A    between atoms: C_13  and  O_14
REMARK    6  A    between atoms: O_14  and  C_15
REMARK    7  A    between atoms: C_15  and  C_16
REMARK    8  A    between atoms: C_23  and  C_24
REMARK    9  A    between atoms: C_25  and  C_26
REMARK                            x       y       z     vdW  Elec       q    Type
REMARK                         _______ _______ _______ _____ _____    ______ ____
ROOT
ATOM      1  C   UNL     1       3.685   2.542  18.161  0.00  0.00    +0.000 C 
ATOM      2  O   UNL     1       3.751   1.329  17.998  0.00  0.00    +0.000 OA
ATOM      3  N   UNL     1       3.572   3.144  19.421  0.00  0.00    +0.000 N 
ATOM      4  C   UNL     1       3.591   2.349  20.648  0.00  0.00    +0.000 C 
ATOM      5  C   UNL     1       2.314   2.555  21.471  0.00  0.00    +0.000 C 
ATOM      6  C   UNL     1       1.962   4.038  21.662  0.00  0.00    +0.000 C 
ATOM      7  C   UNL     1       1.979   4.800  20.330  0.00  0.00    +0.000 C 
ATOM      8  C   UNL     1       3.347   4.570  19.657  0.00  0.00    +0.000 C 
ENDROOT
BRANCH   1   9
ATOM      9  C   UNL     1       3.799   3.508  16.990  0.00  0.00    +0.000 C 
BRANCH   9  10
ATOM     10  C   UNL     1       5.179   3.635  16.356  0.00  0.00    +0.000 C 
BRANCH  10  14
ATOM     11  C   UNL     1       8.206   5.684  19.531  0.00  0.00    +0.000 C 
ATOM     12  C   UNL     1       7.264   5.603  18.385  0.00  0.00    +0.000 A 
ATOM     13  N   UNL     1       6.648   4.458  18.085  0.00  0.00    +0.000 NA
ATOM     14  N   UNL     1       5.911   4.740  16.983  0.00  0.00    +0.000 N 
ATOM     15  C   UNL     1       6.033   6.052  16.589  0.00  0.00    +0.000 A 
ATOM     16  C   UNL     1       5.354   6.675  15.423  0.00  0.00    +0.000 C 
ATOM     17  C   UNL     1       6.905   6.642  17.494  0.00  0.00    +0.000 A 
ATOM     18  C   UNL     1       7.377   8.049  17.540  0.00  0.00    +0.000 C 
ENDBRANCH  10  14
ENDBRANCH   9  10
ENDBRANCH   1   9
BRANCH   7  19
ATOM     19  O   UNL     1       1.742   6.190  20.593  0.00  0.00    +0.000 OA
BRANCH  19  20
ATOM     20  C   UNL     1       2.485   7.054  19.724  0.00  0.00    +0.000 C 
BRANCH  20  21
ATOM     21  C   UNL     1       1.732   8.319  19.437  0.00  0.00    +0.000 A 
ATOM     22  C   UNL     1       1.709   8.917  18.175  0.00  0.00    +0.000 A 
ATOM     23  C   UNL     1       1.020  10.112  17.994  0.00  0.00    +0.000 A 
ATOM     24  C   UNL     1       0.383  10.679  19.086  0.00  0.00    +0.000 A 
ATOM     25  N   UNL     1       0.391  10.141  20.323  0.00  0.00    +0.000 NA
ATOM     26  C   UNL     1       1.068   8.980  20.469  0.00  0.00    +0.000 A 
ENDBRANCH  20  21
ENDBRANCH  19  20
ENDBRANCH   7  19
TORSDOF 6
ENDMDL
MODEL 2
REMARK VINA RESULT:      -7.6      0.930      1.132
REMARK  Name = 
REMARK  9 active torsions:
REMARK  status: ('A' for Active; 'I' for Inactive)
REMARK    1  A    between atoms: C_1  and  C_2
REMARK    2  A    between atoms: N_4  and  C_5
REMARK    3  A    between atoms: C_5  and  C_6
REMARK    4  A    between atoms: C_6  and  C_7
REMARK    5  A    between atoms: C_13  and  O_14
REMARK    6  A    between atoms: O_14  and  C_15
REMARK    7  A    between atoms: C_15  and  C_16
REMARK    8  A    between atoms: C_23  and  C_24
REMARK    9  A    between atoms: C_25  and  C_26
REMARK                            x       y       z     vdW  Elec       q    Type
REMARK                         _______ _______ _______ _____ _____    ______ ____
ROOT
ATOM      1  C   UNL     1       3.317   2.980  17.907  0.00  0.00    +0.000 C 
ATOM      2  O   UNL     1       3.056   1.785  17.841  0.00  0.00    +0.000 OA
ATOM      3  N   UNL     1       3.198   3.730  19.085  0.00  0.00    +0.000 N 
ATOM      4  C   UNL     1       2.807   3.104  20.347  0.00  0.00    +0.000 C 
ATOM      5  C   UNL     1       1.537   3.743  20.922  0.00  0.00    +0.000 C 
ATOM      6  C   UNL     1       1.601   5.277  20.947  0.00  0.00    +0.000 C 
ATOM      7  C   UNL     1       2.031   5.849  19.589  0.00  0.00    +0.000 C 
ATOM      8  C   UNL     1       3.359   5.180  19.181  0.00  0.00    +0.000 C 
ENDROOT
BRANCH   1   9
ATOM      9  C   UNL     1       3.875   3.738  16.711  0.00  0.00    +0.000 C 
BRANCH   9  10
ATOM     10  C   UNL     1       5.371   3.589  16.459  0.00  0.00    +0.000 C 
BRANCH  10  14
ATOM     11  C   UNL     1       8.337   5.740  19.623  0.00  0.00    +0.000 C 
ATOM     12  C   UNL     1       7.415   5.623  18.464  0.00  0.00    +0.000 A 
ATOM     13  N   UNL     1       6.807   4.467  18.187  0.00  0.00    +0.000 NA
ATOM     14  N   UNL     1       6.088   4.715  17.065  0.00  0.00    +0.000 N 
ATOM     15  C   UNL     1       6.212   6.016  16.636  0.00  0.00    +0.000 A 
ATOM     16  C   UNL     1       5.550   6.602  15.442  0.00  0.00    +0.000 C 
ATOM     17  C   UNL     1       7.067   6.635  17.538  0.00  0.00    +0.000 A 
ATOM     18  C   UNL     1       7.533   8.044  17.551  0.00  0.00    +0.000 C 
ENDBRANCH  10  14
ENDBRANCH   9  10
ENDBRANCH   1   9
BRANCH   7  19
ATOM     19  O   UNL     1       2.168   7.271  19.713  0.00  0.00    +0.000 OA
BRANCH  19  20
ATOM     20  C   UNL     1       1.598   7.780  20.925  0.00  0.00    +0.000 C 
BRANCH  20  21
ATOM     21  C   UNL     1       0.791   9.019  20.672  0.00  0.00    +0.000 A 
ATOM     22  C   UNL     1       0.728   9.638  19.422  0.00  0.00    +0.000 A 
ATOM     23  C   UNL     1      -0.010  10.809  19.273  0.00  0.00    +0.000 A 
ATOM     24  C   UNL     1      -0.654  11.330  20.383  0.00  0.00    +0.000 A 
ATOM     25  N   UNL     1      -0.607  10.770  21.610  0.00  0.00    +0.000 NA
ATOM     26  C   UNL     1       0.117   9.634  21.725  0.00  0.00    +0.000 A 
ENDBRANCH  20  21
ENDBRANCH  19  20
ENDBRANCH   7  19
TORSDOF 6
ENDMDL
MODEL 3
REMARK VINA RESULT:      -7.4      1.813      5.844
REMARK  Name = 
REMARK  9 active torsions:
REMARK  status: ('A' for Active; 'I' for Inactive)
REMARK    1  A    between atoms: C_1  and  C_2
REMARK    2  A    between atoms: N_4  and  C_5
REMARK    3  A    between atoms: C_5  and  C_6
REMARK    4  A    between atoms: C_6  and  C_7
REMARK    5  A    between atoms: C_13  and  O_14
REMARK    6  A    between atoms: O_14  and  C_15
REMARK    7  A    between atoms: C_15  and  C_16
REMARK    8  A    between atoms: C_23  and  C_24
REMARK    9  A    between atoms: C_25  and  C_26
REMARK                            x       y       z     vdW  Elec       q    Type
REMARK                         _______ _______ _______ _____ _____    ______ ____
ROOT
ATOM      1  C   UNL     1       1.381   3.684  20.531  0.00  0.00    +0.000 C 
ATOM      2  O   UNL     1       1.211   2.932  21.484  0.00  0.00    +0.000 OA
ATOM      3  N   UNL     1       1.808   3.244  19.271  0.00  0.00    +0.000 N 
ATOM      4  C   UNL     1       2.019   1.824  18.993  0.00  0.00    +0.000 C 
ATOM      5  C   UNL     1       3.457   1.548  18.539  0.00  0.00    +0.000 C 
ATOM      6  C   UNL     1       3.927   2.505  17.434  0.00  0.00    +0.000 C 
ATOM      7  C   UNL     1       3.656   3.971  17.801  0.00  0.00    +0.000 C 
ATOM      8  C   UNL     1       2.161   4.114  18.150  0.00  0.00    +0.000 C 
ENDROOT
BRANCH   1   9
ATOM      9  C   UNL     1       1.062   5.169  20.626  0.00  0.00    +0.000 C 
BRANCH   9  10
ATOM     10  C   UNL     1       2.247   6.119  20.500  0.00  0.00    +0.000 C 
BRANCH  10  14
ATOM     11  C   UNL     1      -0.012  10.327  21.292  0.00  0.00    +0.000 C 
ATOM     12  C   UNL     1       0.781   9.310  20.554  0.00  0.00    +0.000 A 
ATOM     13  N   UNL     1       0.992   8.099  21.072  0.00  0.00    +0.000 NA
ATOM     14  N   UNL     1       1.768   7.463  20.162  0.00  0.00    +0.000 N 
ATOM     15  C   UNL     1       2.039   8.244  19.063  0.00  0.00    +0.000 A 
ATOM     16  C   UNL     1       2.857   7.840  17.891  0.00  0.00    +0.000 C 
ATOM     17  C   UNL     1       1.397   9.455  19.288  0.00  0.00    +0.000 A 
ATOM     18  C   UNL     1       1.352  10.654  18.414  0.00  0.00    +0.000 C 
ENDBRANCH  10  14
ENDBRANCH   9  10
ENDBRANCH   1   9
BRANCH   7  19
ATOM     19  O   UNL     1       4.024   4.798  16.688  0.00  0.00    +0.000 OA
BRANCH  19  20
ATOM     20  C   UNL     1       5.376   4.585  16.261  0.00  0.00    +0.000 C 
BRANCH  20  21
ATOM     21  C   UNL     1       6.330   5.464  17.012  0.00  0.00    +0.000 A 
ATOM     22  C   UNL     1       7.077   5.013  18.102  0.00  0.00    +0.000 A 
ATOM     23  C   UNL     1       7.914   5.898  18.775  0.00  0.00    +0.000 A 
ATOM     24  C   UNL     1       7.969   7.213  18.342  0.00  0.00    +0.000 A 
ATOM     25  N   UNL     1       7.254   7.692  17.303  0.00  0.00    +0.000 NA
ATOM     26  C   UNL     1       6.451   6.809  16.668  0.00  0.00    +0.000 A 
ENDBRANCH  20  21
ENDBRANCH  19  20
ENDBRANCH   7  19
TORSDOF 6
ENDMDL
MODEL 4
REMARK VINA RESULT:      -7.2      1.609      6.399
REMARK  Name = 
REMARK  9 active torsions:
REMARK  status: ('A' for Active; 'I' for Inactive)
REMARK    1  A    between atoms: C_1  and  C_2
REMARK    2  A    between atoms: N_4  and  C_5
REMARK    3  A    between atoms: C_5  and  C_6
REMARK    4  A    between atoms: C_6  and  C_7
REMARK    5  A    between atoms: C_13  and  O_14
REMARK    6  A    between atoms: O_14  and  C_15
REMARK    7  A    between atoms: C_15  and  C_16
REMARK    8  A    between atoms: C_23  and  C_24
REMARK    9  A    between atoms: C_25  and  C_26
REMARK                            x       y       z     vdW  Elec       q    Type
REMARK                         _______ _______ _______ _____ _____    ______ ____
ROOT
ATOM      1  C   UNL     1       2.111   4.471  20.390  0.00  0.00    +0.000 C 
ATOM      2  O   UNL     1       1.886   3.967  21.484  0.00  0.00    +0.000 OA
ATOM      3  N   UNL     1       2.258   3.723  19.214  0.00  0.00    +0.000 N 
ATOM      4  C   UNL     1       2.084   2.272  19.210  0.00  0.00    +0.000 C 
ATOM      5  C   UNL     1       3.345   1.556  18.711  0.00  0.00    +0.000 C 
ATOM      6  C   UNL     1       3.889   2.151  17.404  0.00  0.00    +0.000 C 
ATOM      7  C   UNL     1       4.027   3.677  17.490  0.00  0.00    +0.000 C 
ATOM      8  C   UNL     1       2.667   4.263  17.918  0.00  0.00    +0.000 C 
ENDROOT
BRANCH   1   9
ATOM      9  C   UNL     1       2.174   5.981  20.210  0.00  0.00    +0.000 C 
BRANCH   9  10
ATOM     10  C   UNL     1       1.364   6.810  21.199  0.00  0.00    +0.000 C 
BRANCH  10  14
ATOM     11  C   UNL     1       1.668  10.338  17.897  0.00  0.00    +0.000 C 
ATOM     12  C   UNL     1       1.296   9.681  19.177  0.00  0.00    +0.000 A 
ATOM     13  N   UNL     1       1.707   8.442  19.456  0.00  0.00    +0.000 NA
ATOM     14  N   UNL     1       1.160   8.159  20.663  0.00  0.00    +0.000 N 
ATOM     15  C   UNL     1       0.423   9.206  21.166  0.00  0.00    +0.000 A 
ATOM     16  C   UNL     1      -0.299   9.214  22.465  0.00  0.00    +0.000 C 
ATOM     17  C   UNL     1       0.504  10.219  20.220  0.00  0.00    +0.000 A 
ATOM     18  C   UNL     1      -0.101  11.573  20.262  0.00  0.00    +0.000 C 
ENDBRANCH  10  14
ENDBRANCH   9  10
ENDBRANCH   1   9
BRANCH   7  19
ATOM     19  O   UNL     1       4.442   4.173  16.210  0.00  0.00    +0.000 OA
BRANCH  19  20
ATOM     20  C   UNL     1       5.861   4.105  16.021  0.00  0.00    +0.000 C 
BRANCH  20  21
ATOM     21  C   UNL     1       6.580   5.052  16.934  0.00  0.00    +0.000 A 
ATOM     22  C   UNL     1       6.624   6.430  16.713  0.00  0.00    +0.000 A 
ATOM     23  C   UNL     1       7.344   7.243  17.584  0.00  0.00    +0.000 A 
ATOM     24  C   UNL     1       8.009   6.648  18.644  0.00  0.00    +0.000 A 
ATOM     25  N   UNL     1       8.003   5.321  18.885  0.00  0.00    +0.000 NA
ATOM     26  C   UNL     1       7.294   4.557  18.024  0.00  0.00    +0.000 A 
ENDBRANCH  20  21
ENDBRANCH  19  20
ENDBRANCH   7  19
TORSDOF 6
ENDMDL
MODEL 5
REMARK VINA RESULT:      -7.1      1.796      6.350
REMARK  Name = 
REMARK  9 active torsions:
REMARK  status: ('A' for Active; 'I' for Inactive)
REMARK    1  A    between atoms: C_1  and  C_2
REMARK    2  A    between atoms: N_4  and  C_5
REMARK    3  A    between atoms: C_5  and  C_6
REMARK    4  A    between atoms: C_6  and  C_7
REMARK    5  A    between atoms: C_13  and  O_14
REMARK    6  A    between atoms: O_14  and  C_15
REMARK    7  A    between atoms: C_15  and  C_16
REMARK    8  A    between atoms: C_23  and  C_24
REMARK    9  A    between atoms: C_25  and  C_26
REMARK                            x       y       z     vdW  Elec       q    Type
REMARK                         _______ _______ _______ _____ _____    ______ ____
ROOT
ATOM      1  C   UNL     1       1.782   5.167  19.953  0.00  0.00    +0.000 C 
ATOM      2  O   UNL     1       0.907   4.906  20.771  0.00  0.00    +0.000 OA
ATOM      3  N   UNL     1       2.036   4.382  18.821  0.00  0.00    +0.000 N 
ATOM      4  C   UNL     1       1.214   3.214  18.506  0.00  0.00    +0.000 C 
ATOM      5  C   UNL     1       2.058   1.937  18.427  0.00  0.00    +0.000 C 
ATOM      6  C   UNL     1       3.312   2.105  17.557  0.00  0.00    +0.000 C 
ATOM      7  C   UNL     1       4.108   3.359  17.944  0.00  0.00    +0.000 C 
ATOM      8  C   UNL     1       3.155   4.571  17.898  0.00  0.00    +0.000 C 
ENDROOT
BRANCH   1   9
ATOM      9  C   UNL     1       2.624   6.430  20.068  0.00  0.00    +0.000 C 
BRANCH   9  10
ATOM     10  C   UNL     1       2.190   7.608  19.203  0.00  0.00    +0.000 C 
BRANCH  10  14
ATOM     11  C   UNL     1       0.199   9.399  23.236  0.00  0.00    +0.000 C 
ATOM     12  C   UNL     1       0.499   9.283  21.786  0.00  0.00    +0.000 A 
ATOM     13  N   UNL     1       1.246   8.280  21.319  0.00  0.00    +0.000 NA
ATOM     14  N   UNL     1       1.341   8.510  19.987  0.00  0.00    +0.000 N 
ATOM     15  C   UNL     1       0.651   9.633  19.595  0.00  0.00    +0.000 A 
ATOM     16  C   UNL     1       0.557  10.153  18.207  0.00  0.00    +0.000 C 
ATOM     17  C   UNL     1       0.082  10.153  20.750  0.00  0.00    +0.000 A 
ATOM     18  C   UNL     1      -0.775  11.356  20.898  0.00  0.00    +0.000 C 
ENDBRANCH  10  14
ENDBRANCH   9  10
ENDBRANCH   1   9
BRANCH   7  19
ATOM     19  O   UNL     1       5.203   3.508  17.031  0.00  0.00    +0.000 OA
BRANCH  19  20
ATOM     20  C   UNL     1       5.277   4.822  16.462  0.00  0.00    +0.000 C 
BRANCH  20  21
ATOM     21  C   UNL     1       6.306   5.661  17.159  0.00  0.00    +0.000 A 
ATOM     22  C   UNL     1       7.004   5.222  18.285  0.00  0.00    +0.000 A 
ATOM     23  C   UNL     1       7.917   6.073  18.902  0.00  0.00    +0.000 A 
ATOM     24  C   UNL     1       8.094   7.344  18.378  0.00  0.00    +0.000 A 
ATOM     25  N   UNL     1       7.430   7.811  17.300  0.00  0.00    +0.000 NA
ATOM     26  C   UNL     1       6.551   6.962  16.722  0.00  0.00    +0.000 A 
ENDBRANCH  20  21
ENDBRANCH  19  20
ENDBRANCH   7  19
TORSDOF 6
ENDMDL
MODEL 6
REMARK VINA RESULT:      -7.1      2.014      7.017
REMARK  Name = 
REMARK  9 active torsions:
REMARK  status: ('A' for Active; 'I' for Inactive)
REMARK    1  A    between atoms: C_1  and  C_2
REMARK    2  A    between atoms: N_4  and  C_5
REMARK    3  A    between atoms: C_5  and  C_6
REMARK    4  A    between atoms: C_6  and  C_7
REMARK    5  A    between atoms: C_13  and  O_14
REMARK    6  A    between atoms: O_14  and  C_15
REMARK    7  A    between atoms: C_15  and  C_16
REMARK    8  A    between atoms: C_23  and  C_24
REMARK    9  A    between atoms: C_25  and  C_26
REMARK                            x       y       z     vdW  Elec       q    Type
REMARK                         _______ _______ _______ _____ _____    ______ ____
ROOT
ATOM      1  C   UNL     1       3.116   7.455  17.608  0.00  0.00    +0.000 C 
ATOM      2  O   UNL     1       3.110   8.537  17.033  0.00  0.00    +0.000 OA
ATOM      3  N   UNL     1       4.141   6.511  17.459  0.00  0.00    +0.000 N 
ATOM      4  C   UNL     1       5.321   6.792  16.643  0.00  0.00    +0.000 C 
ATOM      5  C   UNL     1       5.485   5.762  15.519  0.00  0.00    +0.000 C 
ATOM      6  C   UNL     1       5.366   4.314  16.017  0.00  0.00    +0.000 C 
ATOM      7  C   UNL     1       4.110   4.110  16.875  0.00  0.00    +0.000 C 
ATOM      8  C   UNL     1       4.123   5.155  18.008  0.00  0.00    +0.000 C 
ENDROOT
BRANCH   1   9
ATOM      9  C   UNL     1       2.028   7.079  18.603  0.00  0.00    +0.000 C 
BRANCH   9  10
ATOM     10  C   UNL     1       2.128   7.722  19.982  0.00  0.00    +0.000 C 
BRANCH  10  14
ATOM     11  C   UNL     1      -1.072  10.946  18.307  0.00  0.00    +0.000 C 
ATOM     12  C   UNL     1      -0.232  10.233  19.303  0.00  0.00    +0.000 A 
ATOM     13  N   UNL     1       0.634   9.292  18.922  0.00  0.00    +0.000 NA
ATOM     14  N   UNL     1       1.187   8.842  20.074  0.00  0.00    +0.000 N 
ATOM     15  C   UNL     1       0.701   9.496  21.183  0.00  0.00    +0.000 A 
ATOM     16  C   UNL     1       1.106   9.239  22.589  0.00  0.00    +0.000 C 
ATOM     17  C   UNL     1      -0.221  10.419  20.707  0.00  0.00    +0.000 A 
ATOM     18  C   UNL     1      -1.034  11.393  21.476  0.00  0.00    +0.000 C 
ENDBRANCH  10  14
ENDBRANCH   9  10
ENDBRANCH   1   9
BRANCH   7  19
ATOM     19  O   UNL     1       4.116   2.770  17.386  0.00  0.00    +0.000 OA
BRANCH  19  20
ATOM     20  C   UNL     1       2.802   2.289  17.697  0.00  0.00    +0.000 C 
BRANCH  20  21
ATOM     21  C   UNL     1       2.436   2.583  19.122  0.00  0.00    +0.000 A 
ATOM     22  C   UNL     1       1.234   3.194  19.483  0.00  0.00    +0.000 A 
ATOM     23  C   UNL     1       0.981   3.471  20.824  0.00  0.00    +0.000 A 
ATOM     24  C   UNL     1       1.946   3.138  21.760  0.00  0.00    +0.000 A 
ATOM     25  N   UNL     1       3.125   2.559  21.451  0.00  0.00    +0.000 NA
ATOM     26  C   UNL     1       3.343   2.301  20.142  0.00  0.00    +0.000 A 
ENDBRANCH  20  21
ENDBRANCH  19  20
ENDBRANCH   7  19
TORSDOF 6
ENDMDL
MODEL 7
REMARK VINA RESULT:      -7.1      1.728      6.495
REMARK  Name = 
REMARK  9 active torsions:
REMARK  status: ('A' for Active; 'I' for Inactive)
REMARK    1  A    between atoms: C_1  and  C_2
REMARK    2  A    between atoms: N_4  and  C_5
REMARK    3  A    between atoms: C_5  and  C_6
REMARK    4  A    between atoms: C_6  and  C_7
REMARK    5  A    between atoms: C_13  and  O_14
REMARK    6  A    between atoms: O_14  and  C_15
REMARK    7  A    between atoms: C_15  and  C_16
REMARK    8  A    between atoms: C_23  and  C_24
REMARK    9  A    between atoms: C_25  and  C_26
REMARK                            x       y       z     vdW  Elec       q    Type
REMARK                         _______ _______ _______ _____ _____    ______ ____
ROOT
ATOM      1  C   UNL     1       2.057   5.275  20.072  0.00  0.00    +0.000 C 
ATOM      2  O   UNL     1       1.510   4.851  21.083  0.00  0.00    +0.000 OA
ATOM      3  N   UNL     1       2.048   4.592  18.848  0.00  0.00    +0.000 N 
ATOM      4  C   UNL     1       1.314   3.337  18.684  0.00  0.00    +0.000 C 
ATOM      5  C   UNL     1       2.241   2.198  18.245  0.00  0.00    +0.000 C 
ATOM      6  C   UNL     1       3.142   2.586  17.063  0.00  0.00    +0.000 C 
ATOM      7  C   UNL     1       3.862   3.918  17.312  0.00  0.00    +0.000 C 
ATOM      8  C   UNL     1       2.803   4.984  17.659  0.00  0.00    +0.000 C 
ENDROOT
BRANCH   1   9
ATOM      9  C   UNL     1       2.737   6.636  20.048  0.00  0.00    +0.000 C 
BRANCH   9  10
ATOM     10  C   UNL     1       2.092   7.695  19.162  0.00  0.00    +0.000 C 
BRANCH  10  14
ATOM     11  C   UNL     1       0.207   9.433  23.269  0.00  0.00    +0.000 C 
ATOM     12  C   UNL     1       0.463   9.331  21.809  0.00  0.00    +0.000 A 
ATOM     13  N   UNL     1       1.206   8.340  21.312  0.00  0.00    +0.000 NA
ATOM     14  N   UNL     1       1.257   8.581  19.979  0.00  0.00    +0.000 N 
ATOM     15  C   UNL     1       0.542   9.699  19.618  0.00  0.00    +0.000 A 
ATOM     16  C   UNL     1       0.398  10.228  18.237  0.00  0.00    +0.000 C 
ATOM     17  C   UNL     1       0.004  10.204  20.794  0.00  0.00    +0.000 A 
ATOM     18  C   UNL     1      -0.862  11.395  20.977  0.00  0.00    +0.000 C 
ENDBRANCH  10  14
ENDBRANCH   9  10
ENDBRANCH   1   9
BRANCH   7  19
ATOM     19  O   UNL     1       4.603   4.267  16.134  0.00  0.00    +0.000 OA
BRANCH  19  20
ATOM     20  C   UNL     1       6.003   3.988  16.257  0.00  0.00    +0.000 C 
BRANCH  20  21
ATOM     21  C   UNL     1       6.693   5.017  17.103  0.00  0.00    +0.000 A 
ATOM     22  C   UNL     1       6.758   6.366  16.750  0.00  0.00    +0.000 A 
ATOM     23  C   UNL     1       7.449   7.256  17.567  0.00  0.00    +0.000 A 
ATOM     24  C   UNL     1       8.066   6.765  18.706  0.00  0.00    +0.000 A 
ATOM     25  N   UNL     1       8.039   5.468  19.074  0.00  0.00    +0.000 NA
ATOM     26  C   UNL     1       7.359   4.626  18.263  0.00  0.00    +0.000 A 
ENDBRANCH  20  21
ENDBRANCH  19  20
ENDBRANCH   7  19
TORSDOF 6
ENDMDL
MODEL 8
REMARK VINA RESULT:      -7.1      1.771      6.437
REMARK  Name = 
REMARK  9 active torsions:
REMARK  status: ('A' for Active; 'I' for Inactive)
REMARK    1  A    between atoms: C_1  and  C_2
REMARK    2  A    between atoms: N_4  and  C_5
REMARK    3  A    between atoms: C_5  and  C_6
REMARK    4  A    between atoms: C_6  and  C_7
REMARK    5  A    between atoms: C_13  and  O_14
REMARK    6  A    between atoms: O_14  and  C_15
REMARK    7  A    between atoms: C_15  and  C_16
REMARK    8  A    between atoms: C_23  and  C_24
REMARK    9  A    between atoms: C_25  and  C_26
REMARK                            x       y       z     vdW  Elec       q    Type
REMARK                         _______ _______ _______ _____ _____    ______ ____
ROOT
ATOM      1  C   UNL     1       1.995   7.147  19.825  0.00  0.00    +0.000 C 
ATOM      2  O   UNL     1       1.542   7.698  20.822  0.00  0.00    +0.000 OA
ATOM      3  N   UNL     1       1.976   5.759  19.637  0.00  0.00    +0.000 N 
ATOM      4  C   UNL     1       1.344   4.869  20.610  0.00  0.00    +0.000 C 
ATOM      5  C   UNL     1       2.338   3.840  21.160  0.00  0.00    +0.000 C 
ATOM      6  C   UNL     1       3.137   3.134  20.054  0.00  0.00    +0.000 C 
ATOM      7  C   UNL     1       3.754   4.139  19.071  0.00  0.00    +0.000 C 
ATOM      8  C   UNL     1       2.629   5.048  18.538  0.00  0.00    +0.000 C 
ENDROOT
BRANCH   1   9
ATOM      9  C   UNL     1       2.555   7.951  18.661  0.00  0.00    +0.000 C 
BRANCH   9  10
ATOM     10  C   UNL     1       1.541   8.737  17.837  0.00  0.00    +0.000 C 
BRANCH  10  14
ATOM     11  C   UNL     1       2.876  13.371  18.258  0.00  0.00    +0.000 C 
ATOM     12  C   UNL     1       2.062  12.149  18.484  0.00  0.00    +0.000 A 
ATOM     13  N   UNL     1       2.432  10.975  17.970  0.00  0.00    +0.000 NA
ATOM     14  N   UNL     1       1.455  10.111  18.339  0.00  0.00    +0.000 N 
ATOM     15  C   UNL     1       0.478  10.714  19.097  0.00  0.00    +0.000 A 
ATOM     16  C   UNL     1      -0.723  10.042  19.658  0.00  0.00    +0.000 C 
ATOM     17  C   UNL     1       0.855  12.045  19.216  0.00  0.00    +0.000 A 
ATOM     18  C   UNL     1       0.162  13.140  19.940  0.00  0.00    +0.000 C 
ENDBRANCH  10  14
ENDBRANCH   9  10
ENDBRANCH   1   9
BRANCH   7  19
ATOM     19  O   UNL     1       4.396   3.412  18.015  0.00  0.00    +0.000 OA
BRANCH  19  20
ATOM     20  C   UNL     1       4.756   4.246  16.906  0.00  0.00    +0.000 C 
BRANCH  20  21
ATOM     21  C   UNL     1       5.843   5.210  17.278  0.00  0.00    +0.000 A 
ATOM     22  C   UNL     1       6.836   4.908  18.211  0.00  0.00    +0.000 A 
ATOM     23  C   UNL     1       7.789   5.869  18.535  0.00  0.00    +0.000 A 
ATOM     24  C   UNL     1       7.712   7.108  17.921  0.00  0.00    +0.000 A 
ATOM     25  N   UNL     1       6.762   7.445  17.025  0.00  0.00    +0.000 NA
ATOM     26  C   UNL     1       5.849   6.492  16.730  0.00  0.00    +0.000 A 
ENDBRANCH  20  21
ENDBRANCH  19  20
ENDBRANCH   7  19
TORSDOF 6
ENDMDL
MODEL 9
REMARK VINA RESULT:      -6.9      2.413      7.569
REMARK  Name = 
REMARK  9 active torsions:
REMARK  status: ('A' for Active; 'I' for Inactive)
REMARK    1  A    between atoms: C_1  and  C_2
REMARK    2  A    between atoms: N_4  and  C_5
REMARK    3  A    between atoms: C_5  and  C_6
REMARK    4  A    between atoms: C_6  and  C_7
REMARK    5  A    between atoms: C_13  and  O_14
REMARK    6  A    between atoms: O_14  and  C_15
REMARK    7  A    between atoms: C_15  and  C_16
REMARK    8  A    between atoms: C_23  and  C_24
REMARK    9  A    between atoms: C_25  and  C_26
REMARK                            x       y       z     vdW  Elec       q    Type
REMARK                         _______ _______ _______ _____ _____    ______ ____
ROOT
ATOM      1  C   UNL     1       2.114   7.297  19.422  0.00  0.00    +0.000 C 
ATOM      2  O   UNL     1       1.464   7.362  20.459  0.00  0.00    +0.000 OA
ATOM      3  N   UNL     1       2.567   6.091  18.872  0.00  0.00    +0.000 N 
ATOM      4  C   UNL     1       2.231   4.805  19.480  0.00  0.00    +0.000 C 
ATOM      5  C   UNL     1       3.489   4.019  19.866  0.00  0.00    +0.000 C 
ATOM      6  C   UNL     1       4.521   3.953  18.730  0.00  0.00    +0.000 C 
ATOM      7  C   UNL     1       4.805   5.341  18.141  0.00  0.00    +0.000 C 
ATOM      8  C   UNL     1       3.463   5.974  17.722  0.00  0.00    +0.000 C 
ENDROOT
BRANCH   1   9
ATOM      9  C   UNL     1       2.419   8.540  18.599  0.00  0.00    +0.000 C 
BRANCH   9  10
ATOM     10  C   UNL     1       1.285   9.061  17.723  0.00  0.00    +0.000 C 
BRANCH  10  14
ATOM     11  C   UNL     1       0.468  12.488  21.043  0.00  0.00    +0.000 C 
ATOM     12  C   UNL     1       0.161  11.544  19.938  0.00  0.00    +0.000 A 
ATOM     13  N   UNL     1       1.083  10.687  19.493  0.00  0.00    +0.000 NA
ATOM     14  N   UNL     1       0.478  10.023  18.479  0.00  0.00    +0.000 N 
ATOM     15  C   UNL     1      -0.822  10.429  18.284  0.00  0.00    +0.000 A 
ATOM     16  C   UNL     1      -1.752   9.895  17.256  0.00  0.00    +0.000 C 
ATOM     17  C   UNL     1      -1.059  11.416  19.231  0.00  0.00    +0.000 A 
ATOM     18  C   UNL     1      -2.304  12.187  19.470  0.00  0.00    +0.000 C 
ENDBRANCH  10  14
ENDBRANCH   9  10
ENDBRANCH   1   9
BRANCH   7  19
ATOM     19  O   UNL     1       5.695   5.193  17.026  0.00  0.00    +0.000 OA
BRANCH  19  20
ATOM     20  C   UNL     1       5.213   4.259  16.051  0.00  0.00    +0.000 C 
BRANCH  20  21
ATOM     21  C   UNL     1       5.963   4.383  14.759  0.00  0.00    +0.000 A 
ATOM     22  C   UNL     1       5.633   3.647  13.619  0.00  0.00    +0.000 A 
ATOM     23  C   UNL     1       6.400   3.786  12.466  0.00  0.00    +0.000 A 
ATOM     24  C   UNL     1       7.483   4.650  12.494  0.00  0.00    +0.000 A 
ATOM     25  N   UNL     1       7.844   5.368  13.577  0.00  0.00    +0.000 NA
ATOM     26  C   UNL     1       7.080   5.213  14.682  0.00  0.00    +0.000 A 
ENDBRANCH  20  21
ENDBRANCH  19  20
ENDBRANCH   7  19
TORSDOF 6
ENDMDL
