MODEL 1
REMARK VINA RESULT:      -8.0      0.000      0.000
REMARK  Name = 
REMARK  5 active torsions:
REMARK  status: ('A' for Active; 'I' for Inactive)
REMARK    1  A    between atoms: C_2  and  C_3
REMARK    2  A    between atoms: N_5  and  C_6
REMARK    3  A    between atoms: C_12  and  C_13
REMARK    4  A    between atoms: C_15  and  N_16
REMARK    5  A    between atoms: N_16  and  C_17
REMARK                            x       y       z     vdW  Elec       q    Type
REMARK                         _______ _______ _______ _____ _____    ______ ____
ROOT
ATOM      1  C   UNL     1       6.497   6.723  17.171  0.00  0.00    +0.000 A 
ATOM      2  C   UNL     1       6.850   5.654  16.365  0.00  0.00    +0.000 A 
ATOM      3  N   UNL     1       6.202   4.471  16.336  0.00  0.00    +0.000 NA
ATOM      4  C   UNL     1       5.135   4.305  17.100  0.00  0.00    +0.000 A 
ATOM      5  N   UNL     1       4.510   3.145  16.941  0.00  0.00    +0.000 NA
ATOM      6  C   UNL     1       3.370   2.921  17.613  0.00  0.00    +0.000 A 
ATOM      7  C   UNL     1       2.817   3.805  18.516  0.00  0.00    +0.000 A 
ATOM      8  C   UNL     1       3.523   4.993  18.786  0.00  0.00    +0.000 A 
ATOM      9  C   UNL     1       4.689   5.290  18.003  0.00  0.00    +0.000 A 
ATOM     10  C   UNL     1       5.432   6.510  18.048  0.00  0.00    +0.000 A 
ENDROOT
BRANCH   1  13
ATOM     11  C   UNL     1       8.128   8.381  18.004  0.00  0.00    +0.000 C 
ATOM     12  O   UNL     1       8.582   7.704  18.920  0.00  0.00    +0.000 OA
ATOM     13  N   UNL     1       7.145   7.984  17.111  0.00  0.00    +0.000 N 
ATOM     14  H   UNL     1       6.964   8.566  16.305  0.00  0.00    +0.000 HD
BRANCH  11  16
ATOM     15  C   UNL     1       9.233  10.421  18.751  0.00  0.00    +0.000 C 
ATOM     16  C   UNL     1       8.678   9.737  17.739  0.00  0.00    +0.000 C 
ENDBRANCH  11  16
ENDBRANCH   1  13
BRANCH   7  17
ATOM     17  C   UNL     1       1.540   3.470  19.062  0.00  0.00    +0.000 C 
ATOM     18  N   UNL     1       0.508   3.139  19.480  0.00  0.00    +0.000 NA
ENDBRANCH   7  17
BRANCH   8  19
ATOM     19  N   UNL     1       3.079   5.945  19.750  0.00  0.00    +0.000 N 
ATOM     20  H   UNL     1       3.677   5.962  20.574  0.00  0.00    +0.000 HD
BRANCH  19  21
ATOM     21  C   UNL     1       2.406   7.172  19.525  0.00  0.00    +0.000 A 
ATOM     22  C   UNL     1       2.294   7.739  18.245  0.00  0.00    +0.000 A 
ATOM     23  C   UNL     1       1.585   8.924  18.032  0.00  0.00    +0.000 A 
ATOM     24  C   UNL     1       0.928   9.540  19.090  0.00  0.00    +0.000 A 
ATOM     25  C   UNL     1       0.998   8.972  20.359  0.00  0.00    +0.000 A 
ATOM     26 BR   UNL     1       0.076   9.790  21.794  0.00  0.00    +0.000 Br
ATOM     27  C   UNL     1       1.729   7.799  20.581  0.00  0.00    +0.000 A 
ENDBRANCH  19  21
ENDBRANCH   8  19
TORSDOF 5
ENDMDL
MODEL 2
REMARK VINA RESULT:      -7.7      4.013      6.429
REMARK  Name = 
REMARK  5 active torsions:
REMARK  status: ('A' for Active; 'I' for Inactive)
REMARK    1  A    between atoms: C_2  and  C_3
REMARK    2  A    between atoms: N_5  and  C_6
REMARK    3  A    between atoms: C_12  and  C_13
REMARK    4  A    between atoms: C_15  and  N_16
REMARK    5  A    between atoms: N_16  and  C_17
REMARK                            x       y       z     vdW  Elec       q    Type
REMARK                         _______ _______ _______ _____ _____    ______ ____
ROOT
ATOM      1  C   UNL     1       6.143   3.463  13.293  0.00  0.00    +0.000 A 
ATOM      2  C   UNL     1       6.884   4.545  12.852  0.00  0.00    +0.000 A 
ATOM      3  N   UNL     1       7.359   5.523  13.650  0.00  0.00    +0.000 NA
ATOM      4  C   UNL     1       7.140   5.452  14.952  0.00  0.00    +0.000 A 
ATOM      5  N   UNL     1       7.720   6.408  15.668  0.00  0.00    +0.000 NA
ATOM      6  C   UNL     1       7.623   6.370  17.007  0.00  0.00    +0.000 A 
ATOM      7  C   UNL     1       6.905   5.420  17.704  0.00  0.00    +0.000 A 
ATOM      8  C   UNL     1       6.189   4.464  16.960  0.00  0.00    +0.000 A 
ATOM      9  C   UNL     1       6.364   4.432  15.536  0.00  0.00    +0.000 A 
ATOM     10  C   UNL     1       5.829   3.442  14.654  0.00  0.00    +0.000 A 
ENDROOT
BRANCH   1  13
ATOM     11  C   UNL     1       6.569   1.810  11.508  0.00  0.00    +0.000 C 
ATOM     12  O   UNL     1       7.749   2.088  11.319  0.00  0.00    +0.000 OA
ATOM     13  N   UNL     1       5.735   2.404  12.441  0.00  0.00    +0.000 N 
ATOM     14  H   UNL     1       4.831   1.985  12.613  0.00  0.00    +0.000 HD
BRANCH  11  16
ATOM     15  C   UNL     1       5.988  -0.541  11.226  0.00  0.00    +0.000 C 
ATOM     16  C   UNL     1       5.933   0.707  10.737  0.00  0.00    +0.000 C 
ENDBRANCH  11  16
ENDBRANCH   1  13
BRANCH   7  17
ATOM     17  C   UNL     1       6.995   5.449  19.129  0.00  0.00    +0.000 C 
ATOM     18  N   UNL     1       7.130   5.459  20.283  0.00  0.00    +0.000 NA
ENDBRANCH   7  17
BRANCH   8  19
ATOM     19  N   UNL     1       5.362   3.479  17.575  0.00  0.00    +0.000 N 
ATOM     20  H   UNL     1       5.906   2.796  18.100  0.00  0.00    +0.000 HD
BRANCH  19  21
ATOM     21  C   UNL     1       4.036   3.622  18.057  0.00  0.00    +0.000 A 
ATOM     22  C   UNL     1       2.975   4.003  17.220  0.00  0.00    +0.000 A 
ATOM     23  C   UNL     1       1.665   4.092  17.699  0.00  0.00    +0.000 A 
ATOM     24  C   UNL     1       1.382   3.749  19.016  0.00  0.00    +0.000 A 
ATOM     25  C   UNL     1       2.417   3.333  19.848  0.00  0.00    +0.000 A 
ATOM     26 BR   UNL     1       2.029   2.833  21.631  0.00  0.00    +0.000 Br
ATOM     27  C   UNL     1       3.734   3.269  19.380  0.00  0.00    +0.000 A 
ENDBRANCH  19  21
ENDBRANCH   8  19
TORSDOF 5
ENDMDL
MODEL 3
REMARK VINA RESULT:      -7.5      1.016      1.408
REMARK  Name = 
REMARK  5 active torsions:
REMARK  status: ('A' for Active; 'I' for Inactive)
REMARK    1  A    between atoms: C_2  and  C_3
REMARK    2  A    between atoms: N_5  and  C_6
REMARK    3  A    between atoms: C_12  and  C_13
REMARK    4  A    between atoms: C_15  and  N_16
REMARK    5  A    between atoms: N_16  and  C_17
REMARK                            x       y       z     vdW  Elec       q    Type
REMARK                         _______ _______ _______ _____ _____    ______ ____
ROOT
ATOM      1  C   UNL     1       6.205   6.568  17.086  0.00  0.00    +0.000 A 
ATOM      2  C   UNL     1       6.369   5.593  16.119  0.00  0.00    +0.000 A 
ATOM      3  N   UNL     1       5.641   4.459  16.044  0.00  0.00    +0.000 NA
ATOM      4  C   UNL     1       4.678   4.256  16.927  0.00  0.00    +0.000 A 
ATOM      5  N   UNL     1       3.956   3.161  16.722  0.00  0.00    +0.000 NA
ATOM      6  C   UNL     1       2.904   2.915  17.519  0.00  0.00    +0.000 A 
ATOM      7  C   UNL     1       2.541   3.707  18.589  0.00  0.00    +0.000 A 
ATOM      8  C   UNL     1       3.360   4.811  18.893  0.00  0.00    +0.000 A 
ATOM      9  C   UNL     1       4.428   5.142  17.993  0.00  0.00    +0.000 A 
ATOM     10  C   UNL     1       5.255   6.305  18.075  0.00  0.00    +0.000 A 
ENDROOT
BRANCH   1  13
ATOM     11  C   UNL     1       7.954   8.072  17.970  0.00  0.00    +0.000 C 
ATOM     12  O   UNL     1       8.389   7.315  18.830  0.00  0.00    +0.000 OA
ATOM     13  N   UNL     1       6.926   7.791  17.084  0.00  0.00    +0.000 N 
ATOM     14  H   UNL     1       6.761   8.431  16.320  0.00  0.00    +0.000 HD
BRANCH  11  16
ATOM     15  C   UNL     1       9.052  10.068  18.840  0.00  0.00    +0.000 C 
ATOM     16  C   UNL     1       8.579   9.408  17.772  0.00  0.00    +0.000 C 
ENDBRANCH  11  16
ENDBRANCH   1  13
BRANCH   7  17
ATOM     17  C   UNL     1       1.329   3.374  19.267  0.00  0.00    +0.000 C 
ATOM     18  N   UNL     1       0.377   3.063  19.855  0.00  0.00    +0.000 NA
ENDBRANCH   7  17
BRANCH   8  19
ATOM     19  N   UNL     1       3.118   5.656  20.015  0.00  0.00    +0.000 N 
ATOM     20  H   UNL     1       3.932   5.727  20.624  0.00  0.00    +0.000 HD
BRANCH  19  21
ATOM     21  C   UNL     1       2.265   6.786  20.096  0.00  0.00    +0.000 A 
ATOM     22  C   UNL     1       1.422   7.007  21.197  0.00  0.00    +0.000 A 
ATOM     23  C   UNL     1       0.623   8.150  21.286  0.00  0.00    +0.000 A 
ATOM     24  C   UNL     1       0.691   9.123  20.296  0.00  0.00    +0.000 A 
ATOM     25  C   UNL     1       1.550   8.937  19.216  0.00  0.00    +0.000 A 
ATOM     26 BR   UNL     1       1.670  10.277  17.885  0.00  0.00    +0.000 Br
ATOM     27  C   UNL     1       2.331   7.781  19.111  0.00  0.00    +0.000 A 
ENDBRANCH  19  21
ENDBRANCH   8  19
TORSDOF 5
ENDMDL
MODEL 4
REMARK VINA RESULT:      -7.2      1.493      1.839
REMARK  Name = 
REMARK  5 active torsions:
REMARK  status: ('A' for Active; 'I' for Inactive)
REMARK    1  A    between atoms: C_2  and  C_3
REMARK    2  A    between atoms: N_5  and  C_6
REMARK    3  A    between atoms: C_12  and  C_13
REMARK    4  A    between atoms: C_15  and  N_16
REMARK    5  A    between atoms: N_16  and  C_17
REMARK                            x       y       z     vdW  Elec       q    Type
REMARK                         _______ _______ _______ _____ _____    ______ ____
ROOT
ATOM      1  C   UNL     1       7.303   7.508  17.843  0.00  0.00    +0.000 A 
ATOM      2  C   UNL     1       8.021   6.383  18.207  0.00  0.00    +0.000 A 
ATOM      3  N   UNL     1       7.471   5.183  18.489  0.00  0.00    +0.000 NA
ATOM      4  C   UNL     1       6.160   5.039  18.389  0.00  0.00    +0.000 A 
ATOM      5  N   UNL     1       5.717   3.804  18.597  0.00  0.00    +0.000 NA
ATOM      6  C   UNL     1       4.410   3.544  18.436  0.00  0.00    +0.000 A 
ATOM      7  C   UNL     1       3.465   4.497  18.115  0.00  0.00    +0.000 A 
ATOM      8  C   UNL     1       3.894   5.833  18.002  0.00  0.00    +0.000 A 
ATOM      9  C   UNL     1       5.301   6.109  18.073  0.00  0.00    +0.000 A 
ATOM     10  C   UNL     1       5.913   7.380  17.835  0.00  0.00    +0.000 A 
ENDROOT
BRANCH   1  13
ATOM     11  C   UNL     1       8.658   9.514  18.336  0.00  0.00    +0.000 C 
ATOM     12  O   UNL     1       8.901   9.251  19.509  0.00  0.00    +0.000 OA
ATOM     13  N   UNL     1       7.918   8.730  17.465  0.00  0.00    +0.000 N 
ATOM     14  H   UNL     1       7.917   8.972  16.484  0.00  0.00    +0.000 HD
BRANCH  11  16
ATOM     15  C   UNL     1      10.126  11.459  18.406  0.00  0.00    +0.000 C 
ATOM     16  C   UNL     1       9.224  10.743  17.718  0.00  0.00    +0.000 C 
ENDBRANCH  11  16
ENDBRANCH   1  13
BRANCH   7  17
ATOM     17  C   UNL     1       2.135   4.040  17.866  0.00  0.00    +0.000 C 
ATOM     18  N   UNL     1       1.047   3.661  17.726  0.00  0.00    +0.000 NA
ENDBRANCH   7  17
BRANCH   8  19
ATOM     19  N   UNL     1       2.994   6.906  17.740  0.00  0.00    +0.000 N 
ATOM     20  H   UNL     1       2.526   6.803  16.841  0.00  0.00    +0.000 HD
BRANCH  19  21
ATOM     21  C   UNL     1       2.246   7.671  18.670  0.00  0.00    +0.000 A 
ATOM     22  C   UNL     1       2.077   7.267  20.005  0.00  0.00    +0.000 A 
ATOM     23  C   UNL     1       1.380   8.056  20.923  0.00  0.00    +0.000 A 
ATOM     24  C   UNL     1       0.880   9.294  20.536  0.00  0.00    +0.000 A 
ATOM     25  C   UNL     1       1.071   9.727  19.227  0.00  0.00    +0.000 A 
ATOM     26 BR   UNL     1       0.422  11.426  18.708  0.00  0.00    +0.000 Br
ATOM     27  C   UNL     1       1.746   8.927  18.298  0.00  0.00    +0.000 A 
ENDBRANCH  19  21
ENDBRANCH   8  19
TORSDOF 5
ENDMDL
MODEL 5
REMARK VINA RESULT:      -7.0      1.476      1.614
REMARK  Name = 
REMARK  5 active torsions:
REMARK  status: ('A' for Active; 'I' for Inactive)
REMARK    1  A    between atoms: C_2  and  C_3
REMARK    2  A    between atoms: N_5  and  C_6
REMARK    3  A    between atoms: C_12  and  C_13
REMARK    4  A    between atoms: C_15  and  N_16
REMARK    5  A    between atoms: N_16  and  C_17
REMARK                            x       y       z     vdW  Elec       q    Type
REMARK                         _______ _______ _______ _____ _____    ______ ____
ROOT
ATOM      1  C   UNL     1       7.209   7.524  17.952  0.00  0.00    +0.000 A 
ATOM      2  C   UNL     1       7.910   6.500  18.564  0.00  0.00    +0.000 A 
ATOM      3  N   UNL     1       7.361   5.339  18.979  0.00  0.00    +0.000 NA
ATOM      4  C   UNL     1       6.072   5.129  18.773  0.00  0.00    +0.000 A 
ATOM      5  N   UNL     1       5.639   3.926  19.132  0.00  0.00    +0.000 NA
ATOM      6  C   UNL     1       4.362   3.592  18.884  0.00  0.00    +0.000 A 
ATOM      7  C   UNL     1       3.435   4.443  18.319  0.00  0.00    +0.000 A 
ATOM      8  C   UNL     1       3.843   5.761  18.036  0.00  0.00    +0.000 A 
ATOM      9  C   UNL     1       5.227   6.101  18.203  0.00  0.00    +0.000 A 
ATOM     10  C   UNL     1       5.831   7.341  17.825  0.00  0.00    +0.000 A 
ENDROOT
BRANCH   1  13
ATOM     11  C   UNL     1       8.623   9.532  18.216  0.00  0.00    +0.000 C 
ATOM     12  O   UNL     1       8.910   9.366  19.396  0.00  0.00    +0.000 OA
ATOM     13  N   UNL     1       7.832   8.695  17.446  0.00  0.00    +0.000 N 
ATOM     14  H   UNL     1       7.795   8.851  16.448  0.00  0.00    +0.000 HD
BRANCH  11  16
ATOM     15  C   UNL     1      10.117  11.453  18.066  0.00  0.00    +0.000 C 
ATOM     16  C   UNL     1       9.187  10.690  17.471  0.00  0.00    +0.000 C 
ENDBRANCH  11  16
ENDBRANCH   1  13
BRANCH   7  17
ATOM     17  C   UNL     1       2.150   3.900  18.015  0.00  0.00    +0.000 C 
ATOM     18  N   UNL     1       1.084   3.479  17.824  0.00  0.00    +0.000 NA
ENDBRANCH   7  17
BRANCH   8  19
ATOM     19  N   UNL     1       2.950   6.742  17.514  0.00  0.00    +0.000 N 
ATOM     20  H   UNL     1       2.355   6.366  16.778  0.00  0.00    +0.000 HD
BRANCH  19  21
ATOM     21  C   UNL     1       2.370   7.847  18.187  0.00  0.00    +0.000 A 
ATOM     22  C   UNL     1       2.105   9.062  17.536  0.00  0.00    +0.000 A 
ATOM     23  C   UNL     1       1.486  10.125  18.199  0.00  0.00    +0.000 A 
ATOM     24  C   UNL     1       1.072   9.975  19.517  0.00  0.00    +0.000 A 
ATOM     25  C   UNL     1       1.292   8.763  20.166  0.00  0.00    +0.000 A 
ATOM     26 BR   UNL     1       0.698   8.544  21.949  0.00  0.00    +0.000 Br
ATOM     27  C   UNL     1       1.936   7.706  19.513  0.00  0.00    +0.000 A 
ENDBRANCH  19  21
ENDBRANCH   8  19
TORSDOF 5
ENDMDL
MODEL 6
REMARK VINA RESULT:      -7.0      3.369      5.819
REMARK  Name = 
REMARK  5 active torsions:
REMARK  status: ('A' for Active; 'I' for Inactive)
REMARK    1  A    between atoms: C_2  and  C_3
REMARK    2  A    between atoms: N_5  and  C_6
REMARK    3  A    between atoms: C_12  and  C_13
REMARK    4  A    between atoms: C_15  and  N_16
REMARK    5  A    between atoms: N_16  and  C_17
REMARK                            x       y       z     vdW  Elec       q    Type
REMARK                         _______ _______ _______ _____ _____    ______ ____
ROOT
ATOM      1  C   UNL     1       2.003   8.040  19.396  0.00  0.00    +0.000 A 
ATOM      2  C   UNL     1       1.455   7.760  20.635  0.00  0.00    +0.000 A 
ATOM      3  N   UNL     1       1.331   6.521  21.155  0.00  0.00    +0.000 NA
ATOM      4  C   UNL     1       1.784   5.488  20.465  0.00  0.00    +0.000 A 
ATOM      5  N   UNL     1       1.703   4.320  21.092  0.00  0.00    +0.000 NA
ATOM      6  C   UNL     1       2.213   3.227  20.503  0.00  0.00    +0.000 A 
ATOM      7  C   UNL     1       2.781   3.219  19.246  0.00  0.00    +0.000 A 
ATOM      8  C   UNL     1       2.775   4.423  18.517  0.00  0.00    +0.000 A 
ATOM      9  C   UNL     1       2.324   5.619  19.171  0.00  0.00    +0.000 A 
ATOM     10  C   UNL     1       2.389   6.939  18.628  0.00  0.00    +0.000 A 
ENDROOT
BRANCH   1  13
ATOM     11  C   UNL     1       1.170  10.270  18.736  0.00  0.00    +0.000 C 
ATOM     12  O   UNL     1      -0.014  10.074  18.989  0.00  0.00    +0.000 OA
ATOM     13  N   UNL     1       2.201   9.361  18.917  0.00  0.00    +0.000 N 
ATOM     14  H   UNL     1       3.152   9.688  18.822  0.00  0.00    +0.000 HD
BRANCH  11  16
ATOM     15  C   UNL     1       1.833  12.583  19.129  0.00  0.00    +0.000 C 
ATOM     16  C   UNL     1       1.613  11.601  18.242  0.00  0.00    +0.000 C 
ENDBRANCH  11  16
ENDBRANCH   1  13
BRANCH   7  17
ATOM     17  C   UNL     1       3.383   2.000  18.808  0.00  0.00    +0.000 C 
ATOM     18  N   UNL     1       3.926   1.027  18.481  0.00  0.00    +0.000 NA
ENDBRANCH   7  17
BRANCH   8  19
ATOM     19  N   UNL     1       3.274   4.514  17.184  0.00  0.00    +0.000 N 
ATOM     20  H   UNL     1       2.588   4.910  16.545  0.00  0.00    +0.000 HD
BRANCH  19  21
ATOM     21  C   UNL     1       4.612   4.717  16.760  0.00  0.00    +0.000 A 
ATOM     22  C   UNL     1       5.185   3.969  15.719  0.00  0.00    +0.000 A 
ATOM     23  C   UNL     1       6.488   4.214  15.277  0.00  0.00    +0.000 A 
ATOM     24  C   UNL     1       7.227   5.251  15.835  0.00  0.00    +0.000 A 
ATOM     25  C   UNL     1       6.659   6.026  16.842  0.00  0.00    +0.000 A 
ATOM     26 BR   UNL     1       7.650   7.459  17.580  0.00  0.00    +0.000 Br
ATOM     27  C   UNL     1       5.365   5.766  17.305  0.00  0.00    +0.000 A 
ENDBRANCH  19  21
ENDBRANCH   8  19
TORSDOF 5
ENDMDL
MODEL 7
REMARK VINA RESULT:      -6.9      1.358      1.687
REMARK  Name = 
REMARK  5 active torsions:
REMARK  status: ('A' for Active; 'I' for Inactive)
REMARK    1  A    between atoms: C_2  and  C_3
REMARK    2  A    between atoms: N_5  and  C_6
REMARK    3  A    between atoms: C_12  and  C_13
REMARK    4  A    between atoms: C_15  and  N_16
REMARK    5  A    between atoms: N_16  and  C_17
REMARK                            x       y       z     vdW  Elec       q    Type
REMARK                         _______ _______ _______ _____ _____    ______ ____
ROOT
ATOM      1  C   UNL     1       7.254   6.070  18.306  0.00  0.00    +0.000 A 
ATOM      2  C   UNL     1       7.588   5.256  17.238  0.00  0.00    +0.000 A 
ATOM      3  N   UNL     1       6.783   4.303  16.722  0.00  0.00    +0.000 NA
ATOM      4  C   UNL     1       5.576   4.135  17.235  0.00  0.00    +0.000 A 
ATOM      5  N   UNL     1       4.823   3.240  16.608  0.00  0.00    +0.000 NA
ATOM      6  C   UNL     1       3.553   3.061  17.006  0.00  0.00    +0.000 A 
ATOM      7  C   UNL     1       2.978   3.717  18.075  0.00  0.00    +0.000 A 
ATOM      8  C   UNL     1       3.792   4.586  18.825  0.00  0.00    +0.000 A 
ATOM      9  C   UNL     1       5.120   4.862  18.352  0.00  0.00    +0.000 A 
ATOM     10  C   UNL     1       6.019   5.824  18.909  0.00  0.00    +0.000 A 
ENDROOT
BRANCH   1  13
ATOM     11  C   UNL     1       8.151   8.366  18.160  0.00  0.00    +0.000 C 
ATOM     12  O   UNL     1       7.495   8.727  17.189  0.00  0.00    +0.000 OA
ATOM     13  N   UNL     1       8.086   7.123  18.768  0.00  0.00    +0.000 N 
ATOM     14  H   UNL     1       8.558   6.994  19.652  0.00  0.00    +0.000 HD
BRANCH  11  16
ATOM     15  C   UNL     1       9.068  10.607  18.446  0.00  0.00    +0.000 C 
ATOM     16  C   UNL     1       9.079   9.321  18.826  0.00  0.00    +0.000 C 
ENDBRANCH  11  16
ENDBRANCH   1  13
BRANCH   7  17
ATOM     17  C   UNL     1       1.584   3.503  18.300  0.00  0.00    +0.000 C 
ATOM     18  N   UNL     1       0.452   3.284  18.437  0.00  0.00    +0.000 NA
ENDBRANCH   7  17
BRANCH   8  19
ATOM     19  N   UNL     1       3.322   5.263  19.988  0.00  0.00    +0.000 N 
ATOM     20  H   UNL     1       3.979   5.195  20.763  0.00  0.00    +0.000 HD
BRANCH  19  21
ATOM     21  C   UNL     1       2.495   6.412  20.061  0.00  0.00    +0.000 A 
ATOM     22  C   UNL     1       1.688   6.681  21.179  0.00  0.00    +0.000 A 
ATOM     23  C   UNL     1       0.916   7.844  21.258  0.00  0.00    +0.000 A 
ATOM     24  C   UNL     1       0.976   8.788  20.239  0.00  0.00    +0.000 A 
ATOM     25  C   UNL     1       1.800   8.554  19.142  0.00  0.00    +0.000 A 
ATOM     26 BR   UNL     1       1.910   9.853  17.771  0.00  0.00    +0.000 Br
ATOM     27  C   UNL     1       2.554   7.379  19.047  0.00  0.00    +0.000 A 
ENDBRANCH  19  21
ENDBRANCH   8  19
TORSDOF 5
ENDMDL
MODEL 8
REMARK VINA RESULT:      -6.9      3.911      6.114
REMARK  Name = 
REMARK  5 active torsions:
REMARK  status: ('A' for Active; 'I' for Inactive)
REMARK    1  A    between atoms: C_2  and  C_3
REMARK    2  A    between atoms: N_5  and  C_6
REMARK    3  A    between atoms: C_12  and  C_13
REMARK    4  A    between atoms: C_15  and  N_16
REMARK    5  A    between atoms: N_16  and  C_17
REMARK                            x       y       z     vdW  Elec       q    Type
REMARK                         _______ _______ _______ _____ _____    ______ ____
ROOT
ATOM      1  C   UNL     1       2.185   7.995  19.141  0.00  0.00    +0.000 A 
ATOM      2  C   UNL     1       1.643   7.806  20.400  0.00  0.00    +0.000 A 
ATOM      3  N   UNL     1       1.495   6.605  20.996  0.00  0.00    +0.000 NA
ATOM      4  C   UNL     1       1.916   5.520  20.368  0.00  0.00    +0.000 A 
ATOM      5  N   UNL     1       1.813   4.396  21.066  0.00  0.00    +0.000 NA
ATOM      6  C   UNL     1       2.291   3.256  20.542  0.00  0.00    +0.000 A 
ATOM      7  C   UNL     1       2.847   3.157  19.283  0.00  0.00    +0.000 A 
ATOM      8  C   UNL     1       2.863   4.313  18.481  0.00  0.00    +0.000 A 
ATOM      9  C   UNL     1       2.447   5.558  19.064  0.00  0.00    +0.000 A 
ATOM     10  C   UNL     1       2.538   6.841  18.439  0.00  0.00    +0.000 A 
ENDROOT
BRANCH   1  13
ATOM     11  C   UNL     1       1.423  10.245  18.464  0.00  0.00    +0.000 C 
ATOM     12  O   UNL     1       0.263  10.138  18.848  0.00  0.00    +0.000 OA
ATOM     13  N   UNL     1       2.410   9.279  18.579  0.00  0.00    +0.000 N 
ATOM     14  H   UNL     1       3.364   9.539  18.369  0.00  0.00    +0.000 HD
BRANCH  11  16
ATOM     15  C   UNL     1       2.077  12.586  18.657  0.00  0.00    +0.000 C 
ATOM     16  C   UNL     1       1.890  11.522  17.860  0.00  0.00    +0.000 C 
ENDBRANCH  11  16
ENDBRANCH   1  13
BRANCH   7  17
ATOM     17  C   UNL     1       3.415   1.899  18.917  0.00  0.00    +0.000 C 
ATOM     18  N   UNL     1       3.870   0.893  18.557  0.00  0.00    +0.000 NA
ENDBRANCH   7  17
BRANCH   8  19
ATOM     19  N   UNL     1       3.351   4.309  17.142  0.00  0.00    +0.000 N 
ATOM     20  H   UNL     1       2.668   4.682  16.484  0.00  0.00    +0.000 HD
BRANCH  19  21
ATOM     21  C   UNL     1       4.689   4.454  16.694  0.00  0.00    +0.000 A 
ATOM     22  C   UNL     1       5.754   4.664  17.584  0.00  0.00    +0.000 A 
ATOM     23  C   UNL     1       7.074   4.754  17.133  0.00  0.00    +0.000 A 
ATOM     24  C   UNL     1       7.360   4.584  15.783  0.00  0.00    +0.000 A 
ATOM     25  C   UNL     1       6.319   4.338  14.893  0.00  0.00    +0.000 A 
ATOM     26 BR   UNL     1       6.708   4.071  13.061  0.00  0.00    +0.000 Br
ATOM     27  C   UNL     1       4.993   4.273  15.338  0.00  0.00    +0.000 A 
ENDBRANCH  19  21
ENDBRANCH   8  19
TORSDOF 5
ENDMDL
MODEL 9
REMARK VINA RESULT:      -6.8      2.951      6.050
REMARK  Name = 
REMARK  5 active torsions:
REMARK  status: ('A' for Active; 'I' for Inactive)
REMARK    1  A    between atoms: C_2  and  C_3
REMARK    2  A    between atoms: N_5  and  C_6
REMARK    3  A    between atoms: C_12  and  C_13
REMARK    4  A    between atoms: C_15  and  N_16
REMARK    5  A    between atoms: N_16  and  C_17
REMARK                            x       y       z     vdW  Elec       q    Type
REMARK                         _______ _______ _______ _____ _____    ______ ____
ROOT
ATOM      1  C   UNL     1       1.832   6.066  20.307  0.00  0.00    +0.000 A 
ATOM      2  C   UNL     1       1.072   4.911  20.278  0.00  0.00    +0.000 A 
ATOM      3  N   UNL     1       1.211   3.926  19.367  0.00  0.00    +0.000 NA
ATOM      4  C   UNL     1       2.152   4.034  18.444  0.00  0.00    +0.000 A 
ATOM      5  N   UNL     1       2.275   2.979  17.647  0.00  0.00    +0.000 NA
ATOM      6  C   UNL     1       3.258   2.963  16.733  0.00  0.00    +0.000 A 
ATOM      7  C   UNL     1       4.136   4.007  16.522  0.00  0.00    +0.000 A 
ATOM      8  C   UNL     1       3.951   5.180  17.278  0.00  0.00    +0.000 A 
ATOM      9  C   UNL     1       2.970   5.174  18.325  0.00  0.00    +0.000 A 
ATOM     10  C   UNL     1       2.757   6.223  19.273  0.00  0.00    +0.000 A 
ENDROOT
BRANCH   1  13
ATOM     11  C   UNL     1       1.233   8.320  21.120  0.00  0.00    +0.000 C 
ATOM     12  O   UNL     1       0.811   8.761  20.056  0.00  0.00    +0.000 OA
ATOM     13  N   UNL     1       1.722   7.041  21.332  0.00  0.00    +0.000 N 
ATOM     14  H   UNL     1       1.893   6.743  22.283  0.00  0.00    +0.000 HD
BRANCH  11  16
ATOM     15  C   UNL     1      -0.001   9.554  22.823  0.00  0.00    +0.000 C 
ATOM     16  C   UNL     1       1.191   9.166  22.343  0.00  0.00    +0.000 C 
ENDBRANCH  11  16
ENDBRANCH   1  13
BRANCH   7  17
ATOM     17  C   UNL     1       5.198   3.790  15.593  0.00  0.00    +0.000 C 
ATOM     18  N   UNL     1       6.102   3.609  14.886  0.00  0.00    +0.000 NA
ENDBRANCH   7  17
BRANCH   8  19
ATOM     19  N   UNL     1       4.756   6.343  17.095  0.00  0.00    +0.000 N 
ATOM     20  H   UNL     1       4.197   7.162  16.862  0.00  0.00    +0.000 HD
BRANCH  19  21
ATOM     21  C   UNL     1       5.984   6.668  17.723  0.00  0.00    +0.000 A 
ATOM     22  C   UNL     1       6.713   5.727  18.468  0.00  0.00    +0.000 A 
ATOM     23  C   UNL     1       7.947   6.048  19.040  0.00  0.00    +0.000 A 
ATOM     24  C   UNL     1       8.502   7.305  18.834  0.00  0.00    +0.000 A 
ATOM     25  C   UNL     1       7.810   8.238  18.067  0.00  0.00    +0.000 A 
ATOM     26 BR   UNL     1       8.579   9.938  17.756  0.00  0.00    +0.000 Br
ATOM     27  C   UNL     1       6.562   7.928  17.515  0.00  0.00    +0.000 A 
ENDBRANCH  19  21
ENDBRANCH   8  19
TORSDOF 5
ENDMDL
