MODEL 1
REMARK VINA RESULT:      -9.2      0.000      0.000
REMARK  Name = 
REMARK  5 active torsions:
REMARK  status: ('A' for Active; 'I' for Inactive)
REMARK    1  A    between atoms: C_2  and  C_3
REMARK    2  A    between atoms: C_12  and  C_13
REMARK    3  A    between atoms: C_15  and  O_16
REMARK    4  A    between atoms: N_20  and  C_21
REMARK    5  A    between atoms: C_21  and  C_22
REMARK                            x       y       z     vdW  Elec       q    Type
REMARK                         _______ _______ _______ _____ _____    ______ ____
ROOT
ATOM      1  C   UNL     1       2.201   6.075  19.824  0.00  0.00    +0.000 A 
ATOM      2  N   UNL     1       1.465   5.210  20.566  0.00  0.00    +0.000 NA
ATOM      3  C   UNL     1       1.603   3.896  20.329  0.00  0.00    +0.000 A 
ATOM      4  C   UNL     1       2.463   3.432  19.347  0.00  0.00    +0.000 A 
ATOM      5  N   UNL     1       2.821   2.190  18.903  0.00  0.00    +0.000 NA
ATOM      6  N   UNL     1       3.692   2.348  17.913  0.00  0.00    +0.000 NA
ATOM      7  N   UNL     1       3.852   3.679  17.712  0.00  0.00    +0.000 N 
ATOM      8  C   UNL     1       3.135   4.409  18.631  0.00  0.00    +0.000 A 
ATOM      9  N   UNL     1       3.062   5.744  18.825  0.00  0.00    +0.000 NA
ENDROOT
BRANCH   1  16
ATOM     10  O   UNL     1       2.448  10.463  17.556  0.00  0.00    +0.000 OA
ATOM     11  C   UNL     1       1.653  10.758  18.455  0.00  0.00    +0.000 C 
ATOM     12  N   UNL     1       1.197   9.745  19.327  0.00  0.00    +0.000 N 
ATOM     13  C   UNL     1       0.377   9.950  20.516  0.00  0.00    +0.000 C 
ATOM     14  C   UNL     1       0.914   9.199  21.724  0.00  0.00    +0.000 C 
ATOM     15  C   UNL     1       1.153   7.725  21.426  0.00  0.00    +0.000 C 
ATOM     16  C   UNL     1       2.013   7.543  20.167  0.00  0.00    +0.000 C 
ATOM     17  C   UNL     1       1.448   8.332  18.981  0.00  0.00    +0.000 C 
BRANCH  11  18
ATOM     18  C   UNL     1       1.169  12.132  18.633  0.00  0.00    +0.000 A 
ATOM     19  C   UNL     1      -0.091  12.688  18.487  0.00  0.00    +0.000 A 
ATOM     20  C   UNL     1      -0.139  14.079  18.800  0.00  0.00    +0.000 A 
ATOM     21  C   UNL     1       1.111  14.582  19.063  0.00  0.00    +0.000 A 
ATOM     22  S   UNL     1       2.314  13.367  19.007  0.00  0.00    +0.000 S 
ENDBRANCH  11  18
ENDBRANCH   1  16
BRANCH   3  23
ATOM     23  O   UNL     1       0.837   3.085  21.115  0.00  0.00    +0.000 OA
ATOM     24  H   UNL     1       0.782   3.615  21.930  0.00  0.00    +0.000 HD
ENDBRANCH   3  23
BRANCH   7  25
ATOM     25  C   UNL     1       4.777   4.133  16.691  0.00  0.00    +0.000 C 
BRANCH  25  26
ATOM     26  C   UNL     1       5.826   5.082  17.234  0.00  0.00    +0.000 A 
ATOM     27  C   UNL     1       6.696   4.647  18.250  0.00  0.00    +0.000 A 
ATOM     28  C   UNL     1       7.673   5.499  18.784  0.00  0.00    +0.000 A 
ATOM     29  C   UNL     1       7.800   6.796  18.299  0.00  0.00    +0.000 A 
ATOM     30  C   UNL     1       6.953   7.245  17.296  0.00  0.00    +0.000 A 
ATOM     31  C   UNL     1       5.967   6.400  16.768  0.00  0.00    +0.000 A 
ATOM     32 CL   UNL     1       4.923   7.066  15.565  0.00  0.00    +0.000 Cl
ENDBRANCH  25  26
ENDBRANCH   7  25
TORSDOF 5
ENDMDL
MODEL 2
REMARK VINA RESULT:      -8.8      1.825      2.249
REMARK  Name = 
REMARK  5 active torsions:
REMARK  status: ('A' for Active; 'I' for Inactive)
REMARK    1  A    between atoms: C_2  and  C_3
REMARK    2  A    between atoms: C_12  and  C_13
REMARK    3  A    between atoms: C_15  and  O_16
REMARK    4  A    between atoms: N_20  and  C_21
REMARK    5  A    between atoms: C_21  and  C_22
REMARK                            x       y       z     vdW  Elec       q    Type
REMARK                         _______ _______ _______ _____ _____    ______ ____
ROOT
ATOM      1  C   UNL     1       2.254   6.002  19.615  0.00  0.00    +0.000 A 
ATOM      2  N   UNL     1       1.747   5.284  20.648  0.00  0.00    +0.000 NA
ATOM      3  C   UNL     1       2.337   4.118  20.958  0.00  0.00    +0.000 A 
ATOM      4  C   UNL     1       3.425   3.653  20.238  0.00  0.00    +0.000 A 
ATOM      5  N   UNL     1       4.224   2.548  20.327  0.00  0.00    +0.000 NA
ATOM      6  N   UNL     1       5.120   2.615  19.350  0.00  0.00    +0.000 NA
ATOM      7  N   UNL     1       4.863   3.734  18.629  0.00  0.00    +0.000 N 
ATOM      8  C   UNL     1       3.831   4.454  19.184  0.00  0.00    +0.000 A 
ATOM      9  N   UNL     1       3.301   5.644  18.826  0.00  0.00    +0.000 NA
ENDROOT
BRANCH   1  16
ATOM     10  O   UNL     1      -0.596   9.243  22.029  0.00  0.00    +0.000 OA
ATOM     11  C   UNL     1      -0.100  10.010  21.197  0.00  0.00    +0.000 C 
ATOM     12  N   UNL     1       0.892   9.519  20.319  0.00  0.00    +0.000 N 
ATOM     13  C   UNL     1       1.470  10.249  19.196  0.00  0.00    +0.000 C 
ATOM     14  C   UNL     1       1.515   9.413  17.927  0.00  0.00    +0.000 C 
ATOM     15  C   UNL     1       2.180   8.061  18.150  0.00  0.00    +0.000 C 
ATOM     16  C   UNL     1       1.553   7.322  19.342  0.00  0.00    +0.000 C 
ATOM     17  C   UNL     1       1.509   8.207  20.593  0.00  0.00    +0.000 C 
BRANCH  11  18
ATOM     18  C   UNL     1      -0.511  11.415  21.105  0.00  0.00    +0.000 A 
ATOM     19  C   UNL     1      -0.165  12.526  21.858  0.00  0.00    +0.000 A 
ATOM     20  C   UNL     1      -0.771  13.733  21.402  0.00  0.00    +0.000 A 
ATOM     21  C   UNL     1      -1.664  13.500  20.385  0.00  0.00    +0.000 A 
ATOM     22  S   UNL     1      -1.705  11.850  19.937  0.00  0.00    +0.000 S 
ENDBRANCH  11  18
ENDBRANCH   1  16
BRANCH   3  23
ATOM     23  O   UNL     1       1.779   3.452  22.011  0.00  0.00    +0.000 OA
ATOM     24  H   UNL     1       2.100   3.984  22.759  0.00  0.00    +0.000 HD
ENDBRANCH   3  23
BRANCH   7  25
ATOM     25  C   UNL     1       5.718   4.062  17.503  0.00  0.00    +0.000 C 
BRANCH  25  26
ATOM     26  C   UNL     1       6.505   5.338  17.721  0.00  0.00    +0.000 A 
ATOM     27  C   UNL     1       7.496   5.380  18.719  0.00  0.00    +0.000 A 
ATOM     28  C   UNL     1       8.239   6.545  18.956  0.00  0.00    +0.000 A 
ATOM     29  C   UNL     1       8.008   7.681  18.188  0.00  0.00    +0.000 A 
ATOM     30  C   UNL     1       7.036   7.661  17.199  0.00  0.00    +0.000 A 
ATOM     31  C   UNL     1       6.283   6.502  16.966  0.00  0.00    +0.000 A 
ATOM     32 CL   UNL     1       5.057   6.590  15.754  0.00  0.00    +0.000 Cl
ENDBRANCH  25  26
ENDBRANCH   7  25
TORSDOF 5
ENDMDL
MODEL 3
REMARK VINA RESULT:      -8.3      4.094      8.955
REMARK  Name = 
REMARK  5 active torsions:
REMARK  status: ('A' for Active; 'I' for Inactive)
REMARK    1  A    between atoms: C_2  and  C_3
REMARK    2  A    between atoms: C_12  and  C_13
REMARK    3  A    between atoms: C_15  and  O_16
REMARK    4  A    between atoms: N_20  and  C_21
REMARK    5  A    between atoms: C_21  and  C_22
REMARK                            x       y       z     vdW  Elec       q    Type
REMARK                         _______ _______ _______ _____ _____    ______ ____
ROOT
ATOM      1  C   UNL     1       1.023   8.971  20.987  0.00  0.00    +0.000 A 
ATOM      2  N   UNL     1       0.961   8.842  22.336  0.00  0.00    +0.000 NA
ATOM      3  C   UNL     1       0.215   9.723  23.022  0.00  0.00    +0.000 A 
ATOM      4  C   UNL     1      -0.463  10.743  22.376  0.00  0.00    +0.000 A 
ATOM      5  N   UNL     1      -1.293  11.747  22.791  0.00  0.00    +0.000 NA
ATOM      6  N   UNL     1      -1.648  12.448  21.721  0.00  0.00    +0.000 NA
ATOM      7  N   UNL     1      -1.018  11.912  20.647  0.00  0.00    +0.000 N 
ATOM      8  C   UNL     1      -0.297  10.796  21.003  0.00  0.00    +0.000 A 
ATOM      9  N   UNL     1       0.419   9.936  20.244  0.00  0.00    +0.000 NA
ENDROOT
BRANCH   1  16
ATOM     10  O   UNL     1       2.274   4.222  21.567  0.00  0.00    +0.000 OA
ATOM     11  C   UNL     1       2.397   4.302  20.340  0.00  0.00    +0.000 C 
ATOM     12  N   UNL     1       2.037   5.505  19.692  0.00  0.00    +0.000 N 
ATOM     13  C   UNL     1       2.254   5.810  18.282  0.00  0.00    +0.000 C 
ATOM     14  C   UNL     1       2.863   7.188  18.078  0.00  0.00    +0.000 C 
ATOM     15  C   UNL     1       2.079   8.277  18.798  0.00  0.00    +0.000 C 
ATOM     16  C   UNL     1       1.862   7.923  20.276  0.00  0.00    +0.000 C 
ATOM     17  C   UNL     1       1.266   6.519  20.437  0.00  0.00    +0.000 C 
BRANCH  11  18
ATOM     18  C   UNL     1       2.904   3.179  19.543  0.00  0.00    +0.000 A 
ATOM     19  C   UNL     1       2.391   2.541  18.426  0.00  0.00    +0.000 A 
ATOM     20  C   UNL     1       3.231   1.502  17.928  0.00  0.00    +0.000 A 
ATOM     21  C   UNL     1       4.312   1.288  18.749  0.00  0.00    +0.000 A 
ATOM     22  S   UNL     1       4.346   2.386  20.060  0.00  0.00    +0.000 S 
ENDBRANCH  11  18
ENDBRANCH   1  16
BRANCH   3  23
ATOM     23  O   UNL     1       0.194   9.530  24.373  0.00  0.00    +0.000 OA
ATOM     24  H   UNL     1      -0.749   9.665  24.566  0.00  0.00    +0.000 HD
ENDBRANCH   3  23
BRANCH   7  25
ATOM     25  C   UNL     1      -1.252  12.480  19.333  0.00  0.00    +0.000 C 
BRANCH  25  26
ATOM     26  C   UNL     1      -2.109  11.590  18.456  0.00  0.00    +0.000 A 
ATOM     27  C   UNL     1      -1.495  10.744  17.515  0.00  0.00    +0.000 A 
ATOM     28  C   UNL     1      -2.255   9.913  16.681  0.00  0.00    +0.000 A 
ATOM     29  C   UNL     1      -3.641   9.908  16.786  0.00  0.00    +0.000 A 
ATOM     30  C   UNL     1      -4.267  10.734  17.708  0.00  0.00    +0.000 A 
ATOM     31  C   UNL     1      -3.512  11.576  18.536  0.00  0.00    +0.000 A 
ATOM     32 CL   UNL     1      -4.382  12.610  19.611  0.00  0.00    +0.000 Cl
ENDBRANCH  25  26
ENDBRANCH   7  25
TORSDOF 5
ENDMDL
MODEL 4
REMARK VINA RESULT:      -8.3      1.175      1.656
REMARK  Name = 
REMARK  5 active torsions:
REMARK  status: ('A' for Active; 'I' for Inactive)
REMARK    1  A    between atoms: C_2  and  C_3
REMARK    2  A    between atoms: C_12  and  C_13
REMARK    3  A    between atoms: C_15  and  O_16
REMARK    4  A    between atoms: N_20  and  C_21
REMARK    5  A    between atoms: C_21  and  C_22
REMARK                            x       y       z     vdW  Elec       q    Type
REMARK                         _______ _______ _______ _____ _____    ______ ____
ROOT
ATOM      1  C   UNL     1       2.159   6.376  20.180  0.00  0.00    +0.000 A 
ATOM      2  N   UNL     1       1.141   5.502  20.375  0.00  0.00    +0.000 NA
ATOM      3  C   UNL     1       1.373   4.199  20.150  0.00  0.00    +0.000 A 
ATOM      4  C   UNL     1       2.612   3.757  19.719  0.00  0.00    +0.000 A 
ATOM      5  N   UNL     1       3.140   2.528  19.435  0.00  0.00    +0.000 NA
ATOM      6  N   UNL     1       4.397   2.706  19.046  0.00  0.00    +0.000 NA
ATOM      7  N   UNL     1       4.646   4.038  19.050  0.00  0.00    +0.000 N 
ATOM      8  C   UNL     1       3.563   4.744  19.520  0.00  0.00    +0.000 A 
ATOM      9  N   UNL     1       3.410   6.068  19.744  0.00  0.00    +0.000 NA
ENDROOT
BRANCH   1  16
ATOM     10  O   UNL     1       2.456  10.776  17.941  0.00  0.00    +0.000 OA
ATOM     11  C   UNL     1       1.521  11.018  18.712  0.00  0.00    +0.000 C 
ATOM     12  N   UNL     1       1.009   9.975  19.516  0.00  0.00    +0.000 N 
ATOM     13  C   UNL     1       0.012  10.126  20.571  0.00  0.00    +0.000 C 
ATOM     14  C   UNL     1       0.414   9.409  21.850  0.00  0.00    +0.000 C 
ATOM     15  C   UNL     1       0.787   7.953  21.601  0.00  0.00    +0.000 C 
ATOM     16  C   UNL     1       1.831   7.829  20.482  0.00  0.00    +0.000 C 
ATOM     17  C   UNL     1       1.396   8.583  19.220  0.00  0.00    +0.000 C 
BRANCH  11  18
ATOM     18  C   UNL     1       0.931  12.358  18.808  0.00  0.00    +0.000 A 
ATOM     19  C   UNL     1      -0.248  12.880  18.302  0.00  0.00    +0.000 A 
ATOM     20  C   UNL     1      -0.469  14.241  18.665  0.00  0.00    +0.000 A 
ATOM     21  C   UNL     1       0.606  14.766  19.340  0.00  0.00    +0.000 A 
ATOM     22  S   UNL     1       1.830  13.600  19.599  0.00  0.00    +0.000 S 
ENDBRANCH  11  18
ENDBRANCH   1  16
BRANCH   3  23
ATOM     23  O   UNL     1       0.305   3.377  20.372  0.00  0.00    +0.000 OA
ATOM     24  H   UNL     1       0.204   3.460  21.336  0.00  0.00    +0.000 HD
ENDBRANCH   3  23
BRANCH   7  25
ATOM     25  C   UNL     1       5.968   4.511  18.684  0.00  0.00    +0.000 C 
BRANCH  25  26
ATOM     26  C   UNL     1       6.149   4.637  17.185  0.00  0.00    +0.000 A 
ATOM     27  C   UNL     1       5.614   3.650  16.337  0.00  0.00    +0.000 A 
ATOM     28  C   UNL     1       5.768   3.727  14.946  0.00  0.00    +0.000 A 
ATOM     29  C   UNL     1       6.450   4.801  14.383  0.00  0.00    +0.000 A 
ATOM     30  C   UNL     1       6.984   5.785  15.202  0.00  0.00    +0.000 A 
ATOM     31  C   UNL     1       6.843   5.706  16.594  0.00  0.00    +0.000 A 
ATOM     32 CL   UNL     1       7.591   6.947  17.533  0.00  0.00    +0.000 Cl
ENDBRANCH  25  26
ENDBRANCH   7  25
TORSDOF 5
ENDMDL
MODEL 5
REMARK VINA RESULT:      -8.2      1.974      2.635
REMARK  Name = 
REMARK  5 active torsions:
REMARK  status: ('A' for Active; 'I' for Inactive)
REMARK    1  A    between atoms: C_2  and  C_3
REMARK    2  A    between atoms: C_12  and  C_13
REMARK    3  A    between atoms: C_15  and  O_16
REMARK    4  A    between atoms: N_20  and  C_21
REMARK    5  A    between atoms: C_21  and  C_22
REMARK                            x       y       z     vdW  Elec       q    Type
REMARK                         _______ _______ _______ _____ _____    ______ ____
ROOT
ATOM      1  C   UNL     1       2.139   6.058  19.525  0.00  0.00    +0.000 A 
ATOM      2  N   UNL     1       1.301   5.147  20.081  0.00  0.00    +0.000 NA
ATOM      3  C   UNL     1       1.796   3.937  20.387  0.00  0.00    +0.000 A 
ATOM      4  C   UNL     1       3.120   3.619  20.134  0.00  0.00    +0.000 A 
ATOM      5  N   UNL     1       3.892   2.513  20.348  0.00  0.00    +0.000 NA
ATOM      6  N   UNL     1       5.110   2.771  19.886  0.00  0.00    +0.000 NA
ATOM      7  N   UNL     1       5.093   4.016  19.351  0.00  0.00    +0.000 N 
ATOM      8  C   UNL     1       3.869   4.616  19.531  0.00  0.00    +0.000 A 
ATOM      9  N   UNL     1       3.447   5.860  19.213  0.00  0.00    +0.000 NA
ENDROOT
BRANCH   1  16
ATOM     10  O   UNL     1      -0.610   9.445  21.855  0.00  0.00    +0.000 OA
ATOM     11  C   UNL     1      -0.050  10.184  21.039  0.00  0.00    +0.000 C 
ATOM     12  N   UNL     1       0.941   9.641  20.190  0.00  0.00    +0.000 N 
ATOM     13  C   UNL     1       1.590  10.339  19.085  0.00  0.00    +0.000 C 
ATOM     14  C   UNL     1       1.630   9.501  17.818  0.00  0.00    +0.000 C 
ATOM     15  C   UNL     1       2.216   8.117  18.060  0.00  0.00    +0.000 C 
ATOM     16  C   UNL     1       1.516   7.412  19.231  0.00  0.00    +0.000 C 
ATOM     17  C   UNL     1       1.481   8.300  20.481  0.00  0.00    +0.000 C 
BRANCH  11  18
ATOM     18  C   UNL     1      -0.384  11.609  20.935  0.00  0.00    +0.000 A 
ATOM     19  C   UNL     1       0.082  12.715  21.627  0.00  0.00    +0.000 A 
ATOM     20  C   UNL     1      -0.485  13.945  21.182  0.00  0.00    +0.000 A 
ATOM     21  C   UNL     1      -1.464  13.740  20.240  0.00  0.00    +0.000 A 
ATOM     22  S   UNL     1      -1.635  12.085  19.845  0.00  0.00    +0.000 S 
ENDBRANCH  11  18
ENDBRANCH   1  16
BRANCH   3  23
ATOM     23  O   UNL     1       0.899   3.074  20.948  0.00  0.00    +0.000 OA
ATOM     24  H   UNL     1       0.372   2.821  20.171  0.00  0.00    +0.000 HD
ENDBRANCH   3  23
BRANCH   7  25
ATOM     25  C   UNL     1       6.315   4.561  18.790  0.00  0.00    +0.000 C 
BRANCH  25  26
ATOM     26  C   UNL     1       6.266   4.669  17.280  0.00  0.00    +0.000 A 
ATOM     27  C   UNL     1       5.678   3.635  16.529  0.00  0.00    +0.000 A 
ATOM     28  C   UNL     1       5.622   3.695  15.129  0.00  0.00    +0.000 A 
ATOM     29  C   UNL     1       6.143   4.799  14.463  0.00  0.00    +0.000 A 
ATOM     30  C   UNL     1       6.727   5.829  15.184  0.00  0.00    +0.000 A 
ATOM     31  C   UNL     1       6.796   5.768  16.583  0.00  0.00    +0.000 A 
ATOM     32 CL   UNL     1       7.592   7.070  17.389  0.00  0.00    +0.000 Cl
ENDBRANCH  25  26
ENDBRANCH   7  25
TORSDOF 5
ENDMDL
MODEL 6
REMARK VINA RESULT:      -8.1      3.851      9.145
REMARK  Name = 
REMARK  5 active torsions:
REMARK  status: ('A' for Active; 'I' for Inactive)
REMARK    1  A    between atoms: C_2  and  C_3
REMARK    2  A    between atoms: C_12  and  C_13
REMARK    3  A    between atoms: C_15  and  O_16
REMARK    4  A    between atoms: N_20  and  C_21
REMARK    5  A    between atoms: C_21  and  C_22
REMARK                            x       y       z     vdW  Elec       q    Type
REMARK                         _______ _______ _______ _____ _____    ______ ____
ROOT
ATOM      1  C   UNL     1       0.981   8.940  21.031  0.00  0.00    +0.000 A 
ATOM      2  N   UNL     1       0.977   8.825  22.383  0.00  0.00    +0.000 NA
ATOM      3  C   UNL     1       0.229   9.688  23.089  0.00  0.00    +0.000 A 
ATOM      4  C   UNL     1      -0.509  10.677  22.460  0.00  0.00    +0.000 A 
ATOM      5  N   UNL     1      -1.356  11.657  22.896  0.00  0.00    +0.000 NA
ATOM      6  N   UNL     1      -1.777  12.333  21.834  0.00  0.00    +0.000 NA
ATOM      7  N   UNL     1      -1.171  11.805  20.742  0.00  0.00    +0.000 N 
ATOM      8  C   UNL     1      -0.399  10.719  21.080  0.00  0.00    +0.000 A 
ATOM      9  N   UNL     1       0.315   9.875  20.303  0.00  0.00    +0.000 NA
ENDROOT
BRANCH   1  16
ATOM     10  O   UNL     1       2.321   4.208  21.551  0.00  0.00    +0.000 OA
ATOM     11  C   UNL     1       2.425   4.301  20.323  0.00  0.00    +0.000 C 
ATOM     12  N   UNL     1       2.034   5.503  19.691  0.00  0.00    +0.000 N 
ATOM     13  C   UNL     1       2.224   5.823  18.281  0.00  0.00    +0.000 C 
ATOM     14  C   UNL     1       2.807   7.213  18.079  0.00  0.00    +0.000 C 
ATOM     15  C   UNL     1       2.015   8.283  18.820  0.00  0.00    +0.000 C 
ATOM     16  C   UNL     1       1.827   7.912  20.299  0.00  0.00    +0.000 C 
ATOM     17  C   UNL     1       1.258   6.498  20.456  0.00  0.00    +0.000 C 
BRANCH  11  18
ATOM     18  C   UNL     1       2.938   3.194  19.509  0.00  0.00    +0.000 A 
ATOM     19  C   UNL     1       2.487   2.641  18.321  0.00  0.00    +0.000 A 
ATOM     20  C   UNL     1       3.312   1.585  17.835  0.00  0.00    +0.000 A 
ATOM     21  C   UNL     1       4.310   1.271  18.726  0.00  0.00    +0.000 A 
ATOM     22  S   UNL     1       4.292   2.298  20.094  0.00  0.00    +0.000 S 
ENDBRANCH  11  18
ENDBRANCH   1  16
BRANCH   3  23
ATOM     23  O   UNL     1       0.268   9.511  24.442  0.00  0.00    +0.000 OA
ATOM     24  H   UNL     1      -0.620   9.150  24.608  0.00  0.00    +0.000 HD
ENDBRANCH   3  23
BRANCH   7  25
ATOM     25  C   UNL     1      -1.477  12.350  19.432  0.00  0.00    +0.000 C 
BRANCH  25  26
ATOM     26  C   UNL     1      -2.786  11.830  18.875  0.00  0.00    +0.000 A 
ATOM     27  C   UNL     1      -3.999  12.383  19.324  0.00  0.00    +0.000 A 
ATOM     28  C   UNL     1      -5.231  11.922  18.839  0.00  0.00    +0.000 A 
ATOM     29  C   UNL     1      -5.264  10.909  17.886  0.00  0.00    +0.000 A 
ATOM     30  C   UNL     1      -4.080  10.351  17.430  0.00  0.00    +0.000 A 
ATOM     31  C   UNL     1      -2.846  10.800  17.921  0.00  0.00    +0.000 A 
ATOM     32 CL   UNL     1      -1.429  10.006  17.336  0.00  0.00    +0.000 Cl
ENDBRANCH  25  26
ENDBRANCH   7  25
TORSDOF 5
ENDMDL
MODEL 7
REMARK VINA RESULT:      -8.0      2.520      4.146
REMARK  Name = 
REMARK  5 active torsions:
REMARK  status: ('A' for Active; 'I' for Inactive)
REMARK    1  A    between atoms: C_2  and  C_3
REMARK    2  A    between atoms: C_12  and  C_13
REMARK    3  A    between atoms: C_15  and  O_16
REMARK    4  A    between atoms: N_20  and  C_21
REMARK    5  A    between atoms: C_21  and  C_22
REMARK                            x       y       z     vdW  Elec       q    Type
REMARK                         _______ _______ _______ _____ _____    ______ ____
ROOT
ATOM      1  C   UNL     1       3.471   6.811  18.337  0.00  0.00    +0.000 A 
ATOM      2  N   UNL     1       4.551   7.329  17.701  0.00  0.00    +0.000 NA
ATOM      3  C   UNL     1       5.260   6.520  16.898  0.00  0.00    +0.000 A 
ATOM      4  C   UNL     1       4.909   5.191  16.729  0.00  0.00    +0.000 A 
ATOM      5  N   UNL     1       5.408   4.160  15.984  0.00  0.00    +0.000 NA
ATOM      6  N   UNL     1       4.667   3.086  16.227  0.00  0.00    +0.000 NA
ATOM      7  N   UNL     1       3.731   3.429  17.146  0.00  0.00    +0.000 N 
ATOM      8  C   UNL     1       3.809   4.767  17.456  0.00  0.00    +0.000 A 
ATOM      9  N   UNL     1       3.037   5.525  18.266  0.00  0.00    +0.000 NA
ENDROOT
BRANCH   1  16
ATOM     10  O   UNL     1       1.990  11.527  18.166  0.00  0.00    +0.000 OA
ATOM     11  C   UNL     1       1.122  11.083  18.927  0.00  0.00    +0.000 C 
ATOM     12  N   UNL     1       1.092   9.696  19.196  0.00  0.00    +0.000 N 
ATOM     13  C   UNL     1       0.231   9.038  20.173  0.00  0.00    +0.000 C 
ATOM     14  C   UNL     1       0.996   8.059  21.048  0.00  0.00    +0.000 C 
ATOM     15  C   UNL     1       1.813   7.069  20.228  0.00  0.00    +0.000 C 
ATOM     16  C   UNL     1       2.702   7.792  19.206  0.00  0.00    +0.000 C 
ATOM     17  C   UNL     1       1.895   8.784  18.360  0.00  0.00    +0.000 C 
BRANCH  11  18
ATOM     18  C   UNL     1       0.125  11.959  19.550  0.00  0.00    +0.000 A 
ATOM     19  C   UNL     1      -1.158  12.312  19.164  0.00  0.00    +0.000 A 
ATOM     20  C   UNL     1      -1.815  13.174  20.091  0.00  0.00    +0.000 A 
ATOM     21  C   UNL     1      -0.975  13.558  21.108  0.00  0.00    +0.000 A 
ATOM     22  S   UNL     1       0.563  12.820  20.980  0.00  0.00    +0.000 S 
ENDBRANCH  11  18
ENDBRANCH   1  16
BRANCH   3  23
ATOM     23  O   UNL     1       6.330   7.108  16.287  0.00  0.00    +0.000 OA
ATOM     24  H   UNL     1       6.533   7.822  16.915  0.00  0.00    +0.000 HD
ENDBRANCH   3  23
BRANCH   7  25
ATOM     25  C   UNL     1       2.765   2.436  17.576  0.00  0.00    +0.000 C 
BRANCH  25  26
ATOM     26  C   UNL     1       2.314   2.642  19.008  0.00  0.00    +0.000 A 
ATOM     27  C   UNL     1       1.011   3.104  19.265  0.00  0.00    +0.000 A 
ATOM     28  C   UNL     1       0.561   3.316  20.576  0.00  0.00    +0.000 A 
ATOM     29  C   UNL     1       1.407   3.055  21.649  0.00  0.00    +0.000 A 
ATOM     30  C   UNL     1       2.696   2.599  21.417  0.00  0.00    +0.000 A 
ATOM     31  C   UNL     1       3.154   2.397  20.108  0.00  0.00    +0.000 A 
ATOM     32 CL   UNL     1       4.791   1.882  19.918  0.00  0.00    +0.000 Cl
ENDBRANCH  25  26
ENDBRANCH   7  25
TORSDOF 5
ENDMDL
MODEL 8
REMARK VINA RESULT:      -8.0      2.681      4.785
REMARK  Name = 
REMARK  5 active torsions:
REMARK  status: ('A' for Active; 'I' for Inactive)
REMARK    1  A    between atoms: C_2  and  C_3
REMARK    2  A    between atoms: C_12  and  C_13
REMARK    3  A    between atoms: C_15  and  O_16
REMARK    4  A    between atoms: N_20  and  C_21
REMARK    5  A    between atoms: C_21  and  C_22
REMARK                            x       y       z     vdW  Elec       q    Type
REMARK                         _______ _______ _______ _____ _____    ______ ____
ROOT
ATOM      1  C   UNL     1       3.152   7.066  17.794  0.00  0.00    +0.000 A 
ATOM      2  N   UNL     1       4.352   7.574  17.416  0.00  0.00    +0.000 NA
ATOM      3  C   UNL     1       5.302   6.718  17.008  0.00  0.00    +0.000 A 
ATOM      4  C   UNL     1       5.071   5.353  16.981  0.00  0.00    +0.000 A 
ATOM      5  N   UNL     1       5.814   4.268  16.606  0.00  0.00    +0.000 NA
ATOM      6  N   UNL     1       5.078   3.182  16.810  0.00  0.00    +0.000 NA
ATOM      7  N   UNL     1       3.896   3.578  17.344  0.00  0.00    +0.000 N 
ATOM      8  C   UNL     1       3.822   4.949  17.423  0.00  0.00    +0.000 A 
ATOM      9  N   UNL     1       2.813   5.750  17.828  0.00  0.00    +0.000 NA
ENDROOT
BRANCH   1  16
ATOM     10  O   UNL     1      -0.003   7.820  21.527  0.00  0.00    +0.000 OA
ATOM     11  C   UNL     1       0.161   8.994  21.177  0.00  0.00    +0.000 C 
ATOM     12  N   UNL     1       1.098   9.281  20.160  0.00  0.00    +0.000 N 
ATOM     13  C   UNL     1       1.306  10.584  19.538  0.00  0.00    +0.000 C 
ATOM     14  C   UNL     1       1.361  10.497  18.021  0.00  0.00    +0.000 C 
ATOM     15  C   UNL     1       2.360   9.453  17.539  0.00  0.00    +0.000 C 
ATOM     16  C   UNL     1       2.118   8.096  18.217  0.00  0.00    +0.000 C 
ATOM     17  C   UNL     1       2.050   8.234  19.742  0.00  0.00    +0.000 C 
BRANCH  11  18
ATOM     18  C   UNL     1      -0.589  10.092  21.796  0.00  0.00    +0.000 A 
ATOM     19  C   UNL     1      -0.916  10.351  23.118  0.00  0.00    +0.000 A 
ATOM     20  C   UNL     1      -1.634  11.570  23.297  0.00  0.00    +0.000 A 
ATOM     21  C   UNL     1      -1.946  12.156  22.095  0.00  0.00    +0.000 A 
ATOM     22  S   UNL     1      -1.307  11.280  20.772  0.00  0.00    +0.000 S 
ENDBRANCH  11  18
ENDBRANCH   1  16
BRANCH   3  23
ATOM     23  O   UNL     1       6.480   7.300  16.638  0.00  0.00    +0.000 OA
ATOM     24  H   UNL     1       6.984   6.524  16.337  0.00  0.00    +0.000 HD
ENDBRANCH   3  23
BRANCH   7  25
ATOM     25  C   UNL     1       2.887   2.579  17.645  0.00  0.00    +0.000 C 
BRANCH  25  26
ATOM     26  C   UNL     1       2.358   2.693  19.060  0.00  0.00    +0.000 A 
ATOM     27  C   UNL     1       1.031   3.108  19.273  0.00  0.00    +0.000 A 
ATOM     28  C   UNL     1       0.508   3.234  20.568  0.00  0.00    +0.000 A 
ATOM     29  C   UNL     1       1.305   2.933  21.668  0.00  0.00    +0.000 A 
ATOM     30  C   UNL     1       2.616   2.521  21.479  0.00  0.00    +0.000 A 
ATOM     31  C   UNL     1       3.146   2.406  20.187  0.00  0.00    +0.000 A 
ATOM     32 CL   UNL     1       4.804   1.943  20.055  0.00  0.00    +0.000 Cl
ENDBRANCH  25  26
ENDBRANCH   7  25
TORSDOF 5
ENDMDL
MODEL 9
REMARK VINA RESULT:      -7.8      1.086      1.216
REMARK  Name = 
REMARK  5 active torsions:
REMARK  status: ('A' for Active; 'I' for Inactive)
REMARK    1  A    between atoms: C_2  and  C_3
REMARK    2  A    between atoms: C_12  and  C_13
REMARK    3  A    between atoms: C_15  and  O_16
REMARK    4  A    between atoms: N_20  and  C_21
REMARK    5  A    between atoms: C_21  and  C_22
REMARK                            x       y       z     vdW  Elec       q    Type
REMARK                         _______ _______ _______ _____ _____    ______ ____
ROOT
ATOM      1  C   UNL     1       1.918   5.964  19.958  0.00  0.00    +0.000 A 
ATOM      2  N   UNL     1       1.398   5.144  20.905  0.00  0.00    +0.000 NA
ATOM      3  C   UNL     1       1.460   3.819  20.698  0.00  0.00    +0.000 A 
ATOM      4  C   UNL     1       2.027   3.300  19.546  0.00  0.00    +0.000 A 
ATOM      5  N   UNL     1       2.247   2.035  19.078  0.00  0.00    +0.000 NA
ATOM      6  N   UNL     1       2.826   2.137  17.887  0.00  0.00    +0.000 NA
ATOM      7  N   UNL     1       2.935   3.455  17.592  0.00  0.00    +0.000 N 
ATOM      8  C   UNL     1       2.492   4.234  18.635  0.00  0.00    +0.000 A 
ATOM      9  N   UNL     1       2.482   5.578  18.783  0.00  0.00    +0.000 NA
ENDROOT
BRANCH   1  16
ATOM     10  O   UNL     1       2.311  10.279  17.572  0.00  0.00    +0.000 OA
ATOM     11  C   UNL     1       1.583  10.642  18.503  0.00  0.00    +0.000 C 
ATOM     12  N   UNL     1       1.113   9.677  19.422  0.00  0.00    +0.000 N 
ATOM     13  C   UNL     1       0.370   9.958  20.645  0.00  0.00    +0.000 C 
ATOM     14  C   UNL     1       0.923   9.202  21.843  0.00  0.00    +0.000 C 
ATOM     15  C   UNL     1       1.057   7.710  21.570  0.00  0.00    +0.000 C 
ATOM     16  C   UNL     1       1.837   7.448  20.274  0.00  0.00    +0.000 C 
ATOM     17  C   UNL     1       1.259   8.245  19.099  0.00  0.00    +0.000 C 
BRANCH  11  18
ATOM     18  C   UNL     1       1.193  12.046  18.671  0.00  0.00    +0.000 A 
ATOM     19  C   UNL     1      -0.013  12.696  18.463  0.00  0.00    +0.000 A 
ATOM     20  C   UNL     1       0.025  14.083  18.791  0.00  0.00    +0.000 A 
ATOM     21  C   UNL     1       1.293  14.490  19.127  0.00  0.00    +0.000 A 
ATOM     22  S   UNL     1       2.404  13.189  19.122  0.00  0.00    +0.000 S 
ENDBRANCH  11  18
ENDBRANCH   1  16
BRANCH   3  23
ATOM     23  O   UNL     1       0.924   3.055  21.694  0.00  0.00    +0.000 OA
ATOM     24  H   UNL     1       0.315   2.489  21.187  0.00  0.00    +0.000 HD
ENDBRANCH   3  23
BRANCH   7  25
ATOM     25  C   UNL     1       3.561   3.850  16.344  0.00  0.00    +0.000 C 
BRANCH  25  26
ATOM     26  C   UNL     1       5.031   4.181  16.507  0.00  0.00    +0.000 A 
ATOM     27  C   UNL     1       5.553   4.403  17.794  0.00  0.00    +0.000 A 
ATOM     28  C   UNL     1       6.906   4.720  17.984  0.00  0.00    +0.000 A 
ATOM     29  C   UNL     1       7.757   4.806  16.888  0.00  0.00    +0.000 A 
ATOM     30  C   UNL     1       7.262   4.590  15.610  0.00  0.00    +0.000 A 
ATOM     31  C   UNL     1       5.908   4.285  15.415  0.00  0.00    +0.000 A 
ATOM     32 CL   UNL     1       5.373   4.089  13.785  0.00  0.00    +0.000 Cl
ENDBRANCH  25  26
ENDBRANCH   7  25
TORSDOF 5
ENDMDL
