MODEL 1
REMARK VINA RESULT:      -5.5      0.000      0.000
REMARK  Name = 
REMARK  7 active torsions:
REMARK  status: ('A' for Active; 'I' for Inactive)
REMARK    1  A    between atoms: C_1  and  O_2
REMARK    2  A    between atoms: O_2  and  C_3
REMARK    3  A    between atoms: C_3  and  C_5
REMARK    4  A    between atoms: C_9  and  N_10
REMARK    5  A    between atoms: N_11  and  N_12
REMARK    6  A    between atoms: N_12  and  C_13
REMARK    7  A    between atoms: N_12  and  C_14
REMARK                            x       y       z     vdW  Elec       q    Type
REMARK                         _______ _______ _______ _____ _____    ______ ____
ROOT
ATOM      1  C   UNL     1       6.961   4.636  16.142  0.00  0.00    +0.000 A 
ATOM      2  N   UNL     1       7.563   5.159  15.020  0.00  0.00    +0.000 N 
ATOM      3  C   UNL     1       6.815   4.816  13.933  0.00  0.00    +0.000 A 
ATOM      4  N   UNL     1       5.754   4.128  14.283  0.00  0.00    +0.000 NA
ATOM      5  C   UNL     1       5.825   4.015  15.656  0.00  0.00    +0.000 A 
ATOM      6  H   UNL     1       8.419   5.698  15.017  0.00  0.00    +0.000 HD
ENDROOT
BRANCH   1   7
ATOM      7  C   UNL     1       7.507   4.789  17.456  0.00  0.00    +0.000 C 
ATOM      8  O   UNL     1       8.426   4.106  17.894  0.00  0.00    +0.000 OA
BRANCH   7  10
ATOM      9  C   UNL     1       6.149   5.308  19.299  0.00  0.00    +0.000 C 
ATOM     10  O   UNL     1       6.862   5.762  18.150  0.00  0.00    +0.000 OA
ENDBRANCH   7  10
ENDBRANCH   1   7
BRANCH   5  11
ATOM     11  N   UNL     1       4.887   3.389  16.491  0.00  0.00    +0.000 NA
ATOM     12  N   UNL     1       3.906   4.102  16.764  0.00  0.00    +0.000 NA
BRANCH  12  13
ATOM     13  N   UNL     1       3.029   3.517  17.636  0.00  0.00    +0.000 N 
ATOM     14  C   UNL     1       3.268   2.264  18.327  0.00  0.00    +0.000 C 
ATOM     15  C   UNL     1       1.754   4.176  17.816  0.00  0.00    +0.000 C 
ENDBRANCH  12  13
ENDBRANCH   5  11
TORSDOF 4
ENDMDL
MODEL 2
REMARK VINA RESULT:      -5.4      1.569      1.681
REMARK  Name = 
REMARK  7 active torsions:
REMARK  status: ('A' for Active; 'I' for Inactive)
REMARK    1  A    between atoms: C_1  and  O_2
REMARK    2  A    between atoms: O_2  and  C_3
REMARK    3  A    between atoms: C_3  and  C_5
REMARK    4  A    between atoms: C_9  and  N_10
REMARK    5  A    between atoms: N_11  and  N_12
REMARK    6  A    between atoms: N_12  and  C_13
REMARK    7  A    between atoms: N_12  and  C_14
REMARK                            x       y       z     vdW  Elec       q    Type
REMARK                         _______ _______ _______ _____ _____    ______ ____
ROOT
ATOM      1  C   UNL     1       6.929   5.494  16.431  0.00  0.00    +0.000 A 
ATOM      2  N   UNL     1       7.427   5.505  15.147  0.00  0.00    +0.000 N 
ATOM      3  C   UNL     1       6.840   4.490  14.452  0.00  0.00    +0.000 A 
ATOM      4  N   UNL     1       5.977   3.839  15.196  0.00  0.00    +0.000 NA
ATOM      5  C   UNL     1       6.014   4.459  16.429  0.00  0.00    +0.000 A 
ATOM      6  H   UNL     1       8.115   6.158  14.795  0.00  0.00    +0.000 HD
ENDROOT
BRANCH   1   7
ATOM      7  C   UNL     1       7.360   6.419  17.435  0.00  0.00    +0.000 C 
ATOM      8  O   UNL     1       7.777   6.081  18.538  0.00  0.00    +0.000 OA
BRANCH   7  10
ATOM      9  C   UNL     1       7.946   8.666  17.779  0.00  0.00    +0.000 C 
ATOM     10  O   UNL     1       7.221   7.703  17.017  0.00  0.00    +0.000 OA
ENDBRANCH   7  10
ENDBRANCH   1   7
BRANCH   5  11
ATOM     11  N   UNL     1       5.231   4.136  17.548  0.00  0.00    +0.000 NA
ATOM     12  N   UNL     1       4.281   3.377  17.293  0.00  0.00    +0.000 NA
BRANCH  12  13
ATOM     13  N   UNL     1       3.478   3.121  18.370  0.00  0.00    +0.000 N 
ATOM     14  C   UNL     1       3.952   2.642  19.655  0.00  0.00    +0.000 C 
ATOM     15  C   UNL     1       2.054   3.283  18.173  0.00  0.00    +0.000 C 
ENDBRANCH  12  13
ENDBRANCH   5  11
TORSDOF 4
ENDMDL
MODEL 3
REMARK VINA RESULT:      -5.4      1.452      3.899
REMARK  Name = 
REMARK  7 active torsions:
REMARK  status: ('A' for Active; 'I' for Inactive)
REMARK    1  A    between atoms: C_1  and  O_2
REMARK    2  A    between atoms: O_2  and  C_3
REMARK    3  A    between atoms: C_3  and  C_5
REMARK    4  A    between atoms: C_9  and  N_10
REMARK    5  A    between atoms: N_11  and  N_12
REMARK    6  A    between atoms: N_12  and  C_13
REMARK    7  A    between atoms: N_12  and  C_14
REMARK                            x       y       z     vdW  Elec       q    Type
REMARK                         _______ _______ _______ _____ _____    ______ ____
ROOT
ATOM      1  C   UNL     1       6.090   4.321  17.865  0.00  0.00    +0.000 A 
ATOM      2  N   UNL     1       5.441   3.841  18.980  0.00  0.00    +0.000 N 
ATOM      3  C   UNL     1       4.175   3.486  18.619  0.00  0.00    +0.000 A 
ATOM      4  N   UNL     1       3.974   3.681  17.338  0.00  0.00    +0.000 NA
ATOM      5  C   UNL     1       5.160   4.192  16.851  0.00  0.00    +0.000 A 
ATOM      6  H   UNL     1       5.845   3.776  19.906  0.00  0.00    +0.000 HD
ENDROOT
BRANCH   1   7
ATOM      7  C   UNL     1       7.436   4.807  17.903  0.00  0.00    +0.000 C 
ATOM      8  O   UNL     1       8.403   4.163  17.509  0.00  0.00    +0.000 OA
BRANCH   7  10
ATOM      9  C   UNL     1       7.376   7.123  17.521  0.00  0.00    +0.000 C 
ATOM     10  O   UNL     1       7.500   6.048  18.450  0.00  0.00    +0.000 OA
ENDBRANCH   7  10
ENDBRANCH   1   7
BRANCH   5  11
ATOM     11  N   UNL     1       5.439   4.525  15.517  0.00  0.00    +0.000 NA
ATOM     12  N   UNL     1       6.063   3.644  14.901  0.00  0.00    +0.000 NA
BRANCH  12  13
ATOM     13  N   UNL     1       6.398   4.000  13.624  0.00  0.00    +0.000 N 
ATOM     14  C   UNL     1       5.862   3.377  12.428  0.00  0.00    +0.000 C 
ATOM     15  C   UNL     1       7.409   5.024  13.478  0.00  0.00    +0.000 C 
ENDBRANCH  12  13
ENDBRANCH   5  11
TORSDOF 4
ENDMDL
MODEL 4
REMARK VINA RESULT:      -5.4      0.952      1.090
REMARK  Name = 
REMARK  7 active torsions:
REMARK  status: ('A' for Active; 'I' for Inactive)
REMARK    1  A    between atoms: C_1  and  O_2
REMARK    2  A    between atoms: O_2  and  C_3
REMARK    3  A    between atoms: C_3  and  C_5
REMARK    4  A    between atoms: C_9  and  N_10
REMARK    5  A    between atoms: N_11  and  N_12
REMARK    6  A    between atoms: N_12  and  C_13
REMARK    7  A    between atoms: N_12  and  C_14
REMARK                            x       y       z     vdW  Elec       q    Type
REMARK                         _______ _______ _______ _____ _____    ______ ____
ROOT
ATOM      1  C   UNL     1       6.713   4.900  16.341  0.00  0.00    +0.000 A 
ATOM      2  N   UNL     1       7.500   4.854  15.212  0.00  0.00    +0.000 N 
ATOM      3  C   UNL     1       6.710   4.516  14.154  0.00  0.00    +0.000 A 
ATOM      4  N   UNL     1       5.460   4.366  14.522  0.00  0.00    +0.000 NA
ATOM      5  C   UNL     1       5.443   4.612  15.880  0.00  0.00    +0.000 A 
ATOM      6  H   UNL     1       8.495   5.036  15.188  0.00  0.00    +0.000 HD
ENDROOT
BRANCH   1   7
ATOM      7  C   UNL     1       7.239   5.202  17.638  0.00  0.00    +0.000 C 
ATOM      8  O   UNL     1       7.944   4.432  18.282  0.00  0.00    +0.000 OA
BRANCH   7  10
ATOM      9  C   UNL     1       7.630   7.516  17.598  0.00  0.00    +0.000 C 
ATOM     10  O   UNL     1       6.837   6.427  18.064  0.00  0.00    +0.000 OA
ENDBRANCH   7  10
ENDBRANCH   1   7
BRANCH   5  11
ATOM     11  N   UNL     1       4.315   4.607  16.715  0.00  0.00    +0.000 NA
ATOM     12  N   UNL     1       3.969   3.471  17.081  0.00  0.00    +0.000 NA
BRANCH  12  13
ATOM     13  N   UNL     1       2.828   3.462  17.835  0.00  0.00    +0.000 N 
ATOM     14  C   UNL     1       2.176   2.262  18.327  0.00  0.00    +0.000 C 
ATOM     15  C   UNL     1       2.207   4.742  18.092  0.00  0.00    +0.000 C 
ENDBRANCH  12  13
ENDBRANCH   5  11
TORSDOF 4
ENDMDL
MODEL 5
REMARK VINA RESULT:      -5.3      2.668      3.701
REMARK  Name = 
REMARK  7 active torsions:
REMARK  status: ('A' for Active; 'I' for Inactive)
REMARK    1  A    between atoms: C_1  and  O_2
REMARK    2  A    between atoms: O_2  and  C_3
REMARK    3  A    between atoms: C_3  and  C_5
REMARK    4  A    between atoms: C_9  and  N_10
REMARK    5  A    between atoms: N_11  and  N_12
REMARK    6  A    between atoms: N_12  and  C_13
REMARK    7  A    between atoms: N_12  and  C_14
REMARK                            x       y       z     vdW  Elec       q    Type
REMARK                         _______ _______ _______ _____ _____    ______ ____
ROOT
ATOM      1  C   UNL     1       6.118   6.208  17.947  0.00  0.00    +0.000 A 
ATOM      2  N   UNL     1       7.419   6.659  17.986  0.00  0.00    +0.000 N 
ATOM      3  C   UNL     1       8.026   6.120  19.082  0.00  0.00    +0.000 A 
ATOM      4  N   UNL     1       7.209   5.330  19.738  0.00  0.00    +0.000 NA
ATOM      5  C   UNL     1       6.020   5.367  19.039  0.00  0.00    +0.000 A 
ATOM      6  H   UNL     1       7.838   7.288  17.313  0.00  0.00    +0.000 HD
ENDROOT
BRANCH   1   7
ATOM      7  C   UNL     1       5.192   6.608  16.931  0.00  0.00    +0.000 C 
ATOM      8  O   UNL     1       4.100   7.113  17.168  0.00  0.00    +0.000 OA
BRANCH   7  10
ATOM      9  C   UNL     1       5.610   4.957  15.316  0.00  0.00    +0.000 C 
ATOM     10  O   UNL     1       5.668   6.332  15.690  0.00  0.00    +0.000 OA
ENDBRANCH   7  10
ENDBRANCH   1   7
BRANCH   5  11
ATOM     11  N   UNL     1       4.853   4.648  19.340  0.00  0.00    +0.000 NA
ATOM     12  N   UNL     1       4.960   3.422  19.163  0.00  0.00    +0.000 NA
BRANCH  12  13
ATOM     13  N   UNL     1       3.801   2.732  19.387  0.00  0.00    +0.000 N 
ATOM     14  C   UNL     1       2.896   2.980  20.494  0.00  0.00    +0.000 C 
ATOM     15  C   UNL     1       3.508   1.641  18.486  0.00  0.00    +0.000 C 
ENDBRANCH  12  13
ENDBRANCH   5  11
TORSDOF 4
ENDMDL
MODEL 6
REMARK VINA RESULT:      -5.3      2.421      3.529
REMARK  Name = 
REMARK  7 active torsions:
REMARK  status: ('A' for Active; 'I' for Inactive)
REMARK    1  A    between atoms: C_1  and  O_2
REMARK    2  A    between atoms: O_2  and  C_3
REMARK    3  A    between atoms: C_3  and  C_5
REMARK    4  A    between atoms: C_9  and  N_10
REMARK    5  A    between atoms: N_11  and  N_12
REMARK    6  A    between atoms: N_12  and  C_13
REMARK    7  A    between atoms: N_12  and  C_14
REMARK                            x       y       z     vdW  Elec       q    Type
REMARK                         _______ _______ _______ _____ _____    ______ ____
ROOT
ATOM      1  C   UNL     1       6.302   5.550  17.130  0.00  0.00    +0.000 A 
ATOM      2  N   UNL     1       7.508   6.167  17.376  0.00  0.00    +0.000 N 
ATOM      3  C   UNL     1       7.831   5.970  18.685  0.00  0.00    +0.000 A 
ATOM      4  N   UNL     1       6.924   5.244  19.295  0.00  0.00    +0.000 NA
ATOM      5  C   UNL     1       5.970   4.965  18.338  0.00  0.00    +0.000 A 
ATOM      6  H   UNL     1       8.047   6.682  16.692  0.00  0.00    +0.000 HD
ENDROOT
BRANCH   1   7
ATOM      7  C   UNL     1       5.660   5.588  15.851  0.00  0.00    +0.000 C 
ATOM      8  O   UNL     1       5.257   6.618  15.323  0.00  0.00    +0.000 OA
BRANCH   7  10
ATOM      9  C   UNL     1       6.325   4.102  14.160  0.00  0.00    +0.000 C 
ATOM     10  O   UNL     1       5.535   4.344  15.322  0.00  0.00    +0.000 OA
ENDBRANCH   7  10
ENDBRANCH   1   7
BRANCH   5  11
ATOM     11  N   UNL     1       4.819   4.181  18.511  0.00  0.00    +0.000 NA
ATOM     12  N   UNL     1       4.851   3.461  19.523  0.00  0.00    +0.000 NA
BRANCH  12  13
ATOM     13  N   UNL     1       3.762   2.645  19.651  0.00  0.00    +0.000 N 
ATOM     14  C   UNL     1       2.860   2.648  20.787  0.00  0.00    +0.000 C 
ATOM     15  C   UNL     1       3.549   1.673  18.601  0.00  0.00    +0.000 C 
ENDBRANCH  12  13
ENDBRANCH   5  11
TORSDOF 4
ENDMDL
MODEL 7
REMARK VINA RESULT:      -5.3      2.458      3.365
REMARK  Name = 
REMARK  7 active torsions:
REMARK  status: ('A' for Active; 'I' for Inactive)
REMARK    1  A    between atoms: C_1  and  O_2
REMARK    2  A    between atoms: O_2  and  C_3
REMARK    3  A    between atoms: C_3  and  C_5
REMARK    4  A    between atoms: C_9  and  N_10
REMARK    5  A    between atoms: N_11  and  N_12
REMARK    6  A    between atoms: N_12  and  C_13
REMARK    7  A    between atoms: N_12  and  C_14
REMARK                            x       y       z     vdW  Elec       q    Type
REMARK                         _______ _______ _______ _____ _____    ______ ____
ROOT
ATOM      1  C   UNL     1       6.580   5.063  17.568  0.00  0.00    +0.000 A 
ATOM      2  N   UNL     1       7.817   5.621  17.802  0.00  0.00    +0.000 N 
ATOM      3  C   UNL     1       7.952   5.813  19.145  0.00  0.00    +0.000 A 
ATOM      4  N   UNL     1       6.893   5.392  19.795  0.00  0.00    +0.000 NA
ATOM      5  C   UNL     1       6.033   4.913  18.828  0.00  0.00    +0.000 A 
ATOM      6  H   UNL     1       8.497   5.850  17.089  0.00  0.00    +0.000 HD
ENDROOT
BRANCH   1   7
ATOM      7  C   UNL     1       6.107   4.757  16.252  0.00  0.00    +0.000 C 
ATOM      8  O   UNL     1       5.881   3.618  15.858  0.00  0.00    +0.000 OA
BRANCH   7  10
ATOM      9  C   UNL     1       4.954   6.778  15.942  0.00  0.00    +0.000 C 
ATOM     10  O   UNL     1       5.969   5.880  15.501  0.00  0.00    +0.000 OA
ENDBRANCH   7  10
ENDBRANCH   1   7
BRANCH   5  11
ATOM     11  N   UNL     1       4.779   4.323  19.046  0.00  0.00    +0.000 NA
ATOM     12  N   UNL     1       4.841   3.168  19.500  0.00  0.00    +0.000 NA
BRANCH  12  13
ATOM     13  N   UNL     1       3.620   2.568  19.643  0.00  0.00    +0.000 N 
ATOM     14  C   UNL     1       2.755   2.727  20.797  0.00  0.00    +0.000 C 
ATOM     15  C   UNL     1       3.211   1.666  18.589  0.00  0.00    +0.000 C 
ENDBRANCH  12  13
ENDBRANCH   5  11
TORSDOF 4
ENDMDL
MODEL 8
REMARK VINA RESULT:      -5.3      0.877      1.520
REMARK  Name = 
REMARK  7 active torsions:
REMARK  status: ('A' for Active; 'I' for Inactive)
REMARK    1  A    between atoms: C_1  and  O_2
REMARK    2  A    between atoms: O_2  and  C_3
REMARK    3  A    between atoms: C_3  and  C_5
REMARK    4  A    between atoms: C_9  and  N_10
REMARK    5  A    between atoms: N_11  and  N_12
REMARK    6  A    between atoms: N_12  and  C_13
REMARK    7  A    between atoms: N_12  and  C_14
REMARK                            x       y       z     vdW  Elec       q    Type
REMARK                         _______ _______ _______ _____ _____    ______ ____
ROOT
ATOM      1  C   UNL     1       6.775   5.424  15.908  0.00  0.00    +0.000 A 
ATOM      2  N   UNL     1       7.532   5.311  14.763  0.00  0.00    +0.000 N 
ATOM      3  C   UNL     1       6.861   4.513  13.884  0.00  0.00    +0.000 A 
ATOM      4  N   UNL     1       5.709   4.124  14.378  0.00  0.00    +0.000 NA
ATOM      5  C   UNL     1       5.635   4.692  15.633  0.00  0.00    +0.000 A 
ATOM      6  H   UNL     1       8.433   5.746  14.616  0.00  0.00    +0.000 HD
ENDROOT
BRANCH   1   7
ATOM      7  C   UNL     1       7.205   6.176  17.048  0.00  0.00    +0.000 C 
ATOM      8  O   UNL     1       7.268   7.400  17.071  0.00  0.00    +0.000 OA
BRANCH   7  10
ATOM      9  C   UNL     1       6.758   5.502  19.252  0.00  0.00    +0.000 C 
ATOM     10  O   UNL     1       7.553   5.361  18.076  0.00  0.00    +0.000 OA
ENDBRANCH   7  10
ENDBRANCH   1   7
BRANCH   5  11
ATOM     11  N   UNL     1       4.564   4.589  16.533  0.00  0.00    +0.000 NA
ATOM     12  N   UNL     1       4.442   3.461  17.040  0.00  0.00    +0.000 NA
BRANCH  12  13
ATOM     13  N   UNL     1       3.354   3.343  17.861  0.00  0.00    +0.000 N 
ATOM     14  C   UNL     1       2.419   4.414  18.147  0.00  0.00    +0.000 C 
ATOM     15  C   UNL     1       3.180   2.074  18.532  0.00  0.00    +0.000 C 
ENDBRANCH  12  13
ENDBRANCH   5  11
TORSDOF 4
ENDMDL
MODEL 9
REMARK VINA RESULT:      -5.3      2.345      3.493
REMARK  Name = 
REMARK  7 active torsions:
REMARK  status: ('A' for Active; 'I' for Inactive)
REMARK    1  A    between atoms: C_1  and  O_2
REMARK    2  A    between atoms: O_2  and  C_3
REMARK    3  A    between atoms: C_3  and  C_5
REMARK    4  A    between atoms: C_9  and  N_10
REMARK    5  A    between atoms: N_11  and  N_12
REMARK    6  A    between atoms: N_12  and  C_13
REMARK    7  A    between atoms: N_12  and  C_14
REMARK                            x       y       z     vdW  Elec       q    Type
REMARK                         _______ _______ _______ _____ _____    ______ ____
ROOT
ATOM      1  C   UNL     1       6.564   4.965  17.551  0.00  0.00    +0.000 A 
ATOM      2  N   UNL     1       7.788   5.550  17.791  0.00  0.00    +0.000 N 
ATOM      3  C   UNL     1       7.886   5.804  19.127  0.00  0.00    +0.000 A 
ATOM      4  N   UNL     1       6.817   5.397  19.769  0.00  0.00    +0.000 NA
ATOM      5  C   UNL     1       5.988   4.863  18.803  0.00  0.00    +0.000 A 
ATOM      6  H   UNL     1       8.482   5.756  17.084  0.00  0.00    +0.000 HD
ENDROOT
BRANCH   1   7
ATOM      7  C   UNL     1       6.129   4.593  16.239  0.00  0.00    +0.000 C 
ATOM      8  O   UNL     1       5.488   3.576  15.998  0.00  0.00    +0.000 OA
BRANCH   7  10
ATOM      9  C   UNL     1       7.050   4.923  14.105  0.00  0.00    +0.000 C 
ATOM     10  O   UNL     1       6.538   5.493  15.308  0.00  0.00    +0.000 OA
ENDBRANCH   7  10
ENDBRANCH   1   7
BRANCH   5  11
ATOM     11  N   UNL     1       4.736   4.266  19.016  0.00  0.00    +0.000 NA
ATOM     12  N   UNL     1       4.800   3.149  19.557  0.00  0.00    +0.000 NA
BRANCH  12  13
ATOM     13  N   UNL     1       3.585   2.537  19.697  0.00  0.00    +0.000 N 
ATOM     14  C   UNL     1       2.918   1.783  18.653  0.00  0.00    +0.000 C 
ATOM     15  C   UNL     1       2.905   2.723  20.960  0.00  0.00    +0.000 C 
ENDBRANCH  12  13
ENDBRANCH   5  11
TORSDOF 4
ENDMDL
