MODEL 1
REMARK VINA RESULT:      -7.0      0.000      0.000
REMARK  Name = 
REMARK  9 active torsions:
REMARK  status: ('A' for Active; 'I' for Inactive)
REMARK    1  A    between atoms: C_1  and  C_2
REMARK    2  A    between atoms: C_2  and  O_3
REMARK    3  A    between atoms: O_3  and  C_4
REMARK    4  A    between atoms: C_4  and  C_6
REMARK    5  A    between atoms: C_11  and  C_12
REMARK    6  A    between atoms: C_12  and  O_13
REMARK    7  A    between atoms: O_13  and  C_14
REMARK    8  A    between atoms: C_17  and  O_18
REMARK    9  A    between atoms: O_18  and  C_19
REMARK                            x       y       z     vdW  Elec       q    Type
REMARK                         _______ _______ _______ _____ _____    ______ ____
ROOT
ATOM      1  C   UNL     1       3.945   4.857  18.764  0.00  0.00    +0.000 A 
ATOM      2  N   UNL     1       4.378   5.370  17.564  0.00  0.00    +0.000 NA
ATOM      3  C   UNL     1       3.952   6.592  17.209  0.00  0.00    +0.000 A 
ATOM      4  C   UNL     1       3.103   7.315  18.007  0.00  0.00    +0.000 A 
ATOM      5  C   UNL     1       2.651   6.799  19.246  0.00  0.00    +0.000 A 
ATOM      6  C   UNL     1       3.084   5.533  19.658  0.00  0.00    +0.000 A 
ATOM      7  C   UNL     1       1.758   7.807  19.825  0.00  0.00    +0.000 A 
ATOM      8  C   UNL     1       1.020   7.855  21.004  0.00  0.00    +0.000 A 
ATOM      9  C   UNL     1       0.232   8.969  21.309  0.00  0.00    +0.000 A 
ATOM     10  C   UNL     1       0.172  10.055  20.427  0.00  0.00    +0.000 A 
ATOM     11  C   UNL     1       0.901  10.027  19.235  0.00  0.00    +0.000 A 
ATOM     12  C   UNL     1       1.676   8.912  18.951  0.00  0.00    +0.000 A 
ATOM     13  C   UNL     1       2.529   8.673  17.719  0.00  0.00    +0.000 C 
ENDROOT
BRANCH   1  14
ATOM     14  C   UNL     1       4.445   3.471  19.064  0.00  0.00    +0.000 C 
ATOM     15  O   UNL     1       5.176   3.174  19.998  0.00  0.00    +0.000 OA
BRANCH  14  16
ATOM     16  O   UNL     1       4.008   2.616  18.102  0.00  0.00    +0.000 OA
BRANCH  16  18
ATOM     17  C   UNL     1       1.618   2.138  18.240  0.00  0.00    +0.000 C 
ATOM     18  C   UNL     1       3.028   1.657  18.516  0.00  0.00    +0.000 C 
ENDBRANCH  16  18
ENDBRANCH  14  16
ENDBRANCH   1  14
BRANCH   9  19
ATOM     19  O   UNL     1      -0.427   8.853  22.501  0.00  0.00    +0.000 OA
ATOM     20  C   UNL     1      -0.701  10.046  23.216  0.00  0.00    +0.000 C 
ENDBRANCH   9  19
BRANCH   6  21
ATOM     21  C   UNL     1       2.653   4.892  20.943  0.00  0.00    +0.000 C 
BRANCH  21  22
ATOM     22  O   UNL     1       1.404   4.213  20.813  0.00  0.00    +0.000 OA
ATOM     23  C   UNL     1       1.425   3.000  21.565  0.00  0.00    +0.000 C 
ENDBRANCH  21  22
ENDBRANCH   6  21
TORSDOF 6
ENDMDL
MODEL 2
REMARK VINA RESULT:      -6.7      1.111      1.966
REMARK  Name = 
REMARK  9 active torsions:
REMARK  status: ('A' for Active; 'I' for Inactive)
REMARK    1  A    between atoms: C_1  and  C_2
REMARK    2  A    between atoms: C_2  and  O_3
REMARK    3  A    between atoms: O_3  and  C_4
REMARK    4  A    between atoms: C_4  and  C_6
REMARK    5  A    between atoms: C_11  and  C_12
REMARK    6  A    between atoms: C_12  and  O_13
REMARK    7  A    between atoms: O_13  and  C_14
REMARK    8  A    between atoms: C_17  and  O_18
REMARK    9  A    between atoms: O_18  and  C_19
REMARK                            x       y       z     vdW  Elec       q    Type
REMARK                         _______ _______ _______ _____ _____    ______ ____
ROOT
ATOM      1  C   UNL     1       4.024   5.339  18.418  0.00  0.00    +0.000 A 
ATOM      2  N   UNL     1       4.395   5.953  17.243  0.00  0.00    +0.000 NA
ATOM      3  C   UNL     1       3.871   7.157  16.969  0.00  0.00    +0.000 A 
ATOM      4  C   UNL     1       2.984   7.765  17.821  0.00  0.00    +0.000 A 
ATOM      5  C   UNL     1       2.596   7.144  19.033  0.00  0.00    +0.000 A 
ATOM      6  C   UNL     1       3.132   5.894  19.362  0.00  0.00    +0.000 A 
ATOM      7  C   UNL     1       1.641   8.046  19.685  0.00  0.00    +0.000 A 
ATOM      8  C   UNL     1       0.925   7.968  20.875  0.00  0.00    +0.000 A 
ATOM      9  C   UNL     1       0.060   8.998  21.257  0.00  0.00    +0.000 A 
ATOM     10  C   UNL     1      -0.099  10.126  20.443  0.00  0.00    +0.000 A 
ATOM     11  C   UNL     1       0.608  10.224  19.240  0.00  0.00    +0.000 A 
ATOM     12  C   UNL     1       1.459   9.190  18.879  0.00  0.00    +0.000 A 
ATOM     13  C   UNL     1       2.303   9.090  17.623  0.00  0.00    +0.000 C 
ENDROOT
BRANCH   1  14
ATOM     14  C   UNL     1       4.634   3.980  18.627  0.00  0.00    +0.000 C 
ATOM     15  O   UNL     1       4.094   2.919  18.351  0.00  0.00    +0.000 OA
BRANCH  14  16
ATOM     16  O   UNL     1       5.846   4.117  19.225  0.00  0.00    +0.000 OA
BRANCH  16  18
ATOM     17  C   UNL     1       7.641   5.769  19.116  0.00  0.00    +0.000 C 
ATOM     18  C   UNL     1       6.889   4.661  18.407  0.00  0.00    +0.000 C 
ENDBRANCH  16  18
ENDBRANCH  14  16
ENDBRANCH   1  14
BRANCH   9  19
ATOM     19  O   UNL     1      -0.565   8.763  22.450  0.00  0.00    +0.000 OA
ATOM     20  C   UNL     1      -0.401   9.728  23.476  0.00  0.00    +0.000 C 
ENDBRANCH   9  19
BRANCH   6  21
ATOM     21  C   UNL     1       2.776   5.147  20.614  0.00  0.00    +0.000 C 
BRANCH  21  22
ATOM     22  O   UNL     1       1.608   4.344  20.446  0.00  0.00    +0.000 OA
ATOM     23  C   UNL     1       1.641   3.238  21.348  0.00  0.00    +0.000 C 
ENDBRANCH  21  22
ENDBRANCH   6  21
TORSDOF 6
ENDMDL
MODEL 3
REMARK VINA RESULT:      -6.6      2.625      4.312
REMARK  Name = 
REMARK  9 active torsions:
REMARK  status: ('A' for Active; 'I' for Inactive)
REMARK    1  A    between atoms: C_1  and  C_2
REMARK    2  A    between atoms: C_2  and  O_3
REMARK    3  A    between atoms: O_3  and  C_4
REMARK    4  A    between atoms: C_4  and  C_6
REMARK    5  A    between atoms: C_11  and  C_12
REMARK    6  A    between atoms: C_12  and  O_13
REMARK    7  A    between atoms: O_13  and  C_14
REMARK    8  A    between atoms: C_17  and  O_18
REMARK    9  A    between atoms: O_18  and  C_19
REMARK                            x       y       z     vdW  Elec       q    Type
REMARK                         _______ _______ _______ _____ _____    ______ ____
ROOT
ATOM      1  C   UNL     1       5.586   5.356  16.050  0.00  0.00    +0.000 A 
ATOM      2  N   UNL     1       5.467   6.628  15.540  0.00  0.00    +0.000 NA
ATOM      3  C   UNL     1       4.650   7.486  16.169  0.00  0.00    +0.000 A 
ATOM      4  C   UNL     1       3.940   7.115  17.283  0.00  0.00    +0.000 A 
ATOM      5  C   UNL     1       4.056   5.809  17.818  0.00  0.00    +0.000 A 
ATOM      6  C   UNL     1       4.910   4.889  17.199  0.00  0.00    +0.000 A 
ATOM      7  C   UNL     1       3.164   5.747  18.981  0.00  0.00    +0.000 A 
ATOM      8  C   UNL     1       2.853   4.735  19.884  0.00  0.00    +0.000 A 
ATOM      9  C   UNL     1       1.942   4.959  20.921  0.00  0.00    +0.000 A 
ATOM     10  C   UNL     1       1.326   6.208  21.064  0.00  0.00    +0.000 A 
ATOM     11  C   UNL     1       1.619   7.238  20.165  0.00  0.00    +0.000 A 
ATOM     12  C   UNL     1       2.525   6.995  19.143  0.00  0.00    +0.000 A 
ATOM     13  C   UNL     1       2.973   7.961  18.062  0.00  0.00    +0.000 C 
ENDROOT
BRANCH   1  14
ATOM     14  C   UNL     1       6.497   4.454  15.263  0.00  0.00    +0.000 C 
ATOM     15  O   UNL     1       7.713   4.408  15.380  0.00  0.00    +0.000 OA
BRANCH  14  16
ATOM     16  O   UNL     1       5.764   3.749  14.362  0.00  0.00    +0.000 OA
BRANCH  16  18
ATOM     17  C   UNL     1       5.232   3.298  12.022  0.00  0.00    +0.000 C 
ATOM     18  C   UNL     1       6.290   3.699  13.030  0.00  0.00    +0.000 C 
ENDBRANCH  16  18
ENDBRANCH  14  16
ENDBRANCH   1  14
BRANCH   9  19
ATOM     19  O   UNL     1       1.750   3.863  21.715  0.00  0.00    +0.000 OA
ATOM     20  C   UNL     1       1.773   2.590  21.091  0.00  0.00    +0.000 C 
ENDBRANCH   9  19
BRANCH   6  21
ATOM     21  C   UNL     1       5.091   3.480  17.678  0.00  0.00    +0.000 C 
BRANCH  21  22
ATOM     22  O   UNL     1       4.023   2.629  17.263  0.00  0.00    +0.000 OA
ATOM     23  C   UNL     1       3.777   1.633  18.256  0.00  0.00    +0.000 C 
ENDBRANCH  21  22
ENDBRANCH   6  21
TORSDOF 6
ENDMDL
MODEL 4
REMARK VINA RESULT:      -6.4      2.890      4.432
REMARK  Name = 
REMARK  9 active torsions:
REMARK  status: ('A' for Active; 'I' for Inactive)
REMARK    1  A    between atoms: C_1  and  C_2
REMARK    2  A    between atoms: C_2  and  O_3
REMARK    3  A    between atoms: O_3  and  C_4
REMARK    4  A    between atoms: C_4  and  C_6
REMARK    5  A    between atoms: C_11  and  C_12
REMARK    6  A    between atoms: C_12  and  O_13
REMARK    7  A    between atoms: O_13  and  C_14
REMARK    8  A    between atoms: C_17  and  O_18
REMARK    9  A    between atoms: O_18  and  C_19
REMARK                            x       y       z     vdW  Elec       q    Type
REMARK                         _______ _______ _______ _____ _____    ______ ____
ROOT
ATOM      1  C   UNL     1       5.559   4.511  17.425  0.00  0.00    +0.000 A 
ATOM      2  N   UNL     1       5.390   3.588  18.431  0.00  0.00    +0.000 NA
ATOM      3  C   UNL     1       4.484   3.852  19.385  0.00  0.00    +0.000 A 
ATOM      4  C   UNL     1       3.747   5.009  19.373  0.00  0.00    +0.000 A 
ATOM      5  C   UNL     1       3.911   5.966  18.342  0.00  0.00    +0.000 A 
ATOM      6  C   UNL     1       4.836   5.720  17.321  0.00  0.00    +0.000 A 
ATOM      7  C   UNL     1       2.995   7.072  18.641  0.00  0.00    +0.000 A 
ATOM      8  C   UNL     1       2.725   8.278  18.002  0.00  0.00    +0.000 A 
ATOM      9  C   UNL     1       1.781   9.167  18.524  0.00  0.00    +0.000 A 
ATOM     10  C   UNL     1       1.091   8.855  19.702  0.00  0.00    +0.000 A 
ATOM     11  C   UNL     1       1.349   7.650  20.363  0.00  0.00    +0.000 A 
ATOM     12  C   UNL     1       2.291   6.783  19.829  0.00  0.00    +0.000 A 
ATOM     13  C   UNL     1       2.727   5.442  20.388  0.00  0.00    +0.000 C 
ENDROOT
BRANCH   1  14
ATOM     14  C   UNL     1       6.618   4.148  16.420  0.00  0.00    +0.000 C 
ATOM     15  O   UNL     1       7.820   4.299  16.581  0.00  0.00    +0.000 OA
BRANCH  14  16
ATOM     16  O   UNL     1       6.025   3.685  15.289  0.00  0.00    +0.000 OA
BRANCH  16  18
ATOM     17  C   UNL     1       5.973   3.468  12.857  0.00  0.00    +0.000 C 
ATOM     18  C   UNL     1       6.549   4.194  14.056  0.00  0.00    +0.000 C 
ENDBRANCH  16  18
ENDBRANCH  14  16
ENDBRANCH   1  14
BRANCH   9  19
ATOM     19  O   UNL     1       1.638  10.303  17.776  0.00  0.00    +0.000 OA
ATOM     20  C   UNL     1       2.284  11.477  18.240  0.00  0.00    +0.000 C 
ENDBRANCH   9  19
BRANCH   6  21
ATOM     21  C   UNL     1       5.094   6.675  16.194  0.00  0.00    +0.000 C 
BRANCH  21  22
ATOM     22  O   UNL     1       6.426   7.188  16.217  0.00  0.00    +0.000 OA
ATOM     23  C   UNL     1       6.731   7.699  17.514  0.00  0.00    +0.000 C 
ENDBRANCH  21  22
ENDBRANCH   6  21
TORSDOF 6
ENDMDL
MODEL 5
REMARK VINA RESULT:      -6.4      2.049      6.222
REMARK  Name = 
REMARK  9 active torsions:
REMARK  status: ('A' for Active; 'I' for Inactive)
REMARK    1  A    between atoms: C_1  and  C_2
REMARK    2  A    between atoms: C_2  and  O_3
REMARK    3  A    between atoms: O_3  and  C_4
REMARK    4  A    between atoms: C_4  and  C_6
REMARK    5  A    between atoms: C_11  and  C_12
REMARK    6  A    between atoms: C_12  and  O_13
REMARK    7  A    between atoms: O_13  and  C_14
REMARK    8  A    between atoms: C_17  and  O_18
REMARK    9  A    between atoms: O_18  and  C_19
REMARK                            x       y       z     vdW  Elec       q    Type
REMARK                         _______ _______ _______ _____ _____    ______ ____
ROOT
ATOM      1  C   UNL     1       1.053   9.961  19.312  0.00  0.00    +0.000 A 
ATOM      2  N   UNL     1       1.704  10.280  18.143  0.00  0.00    +0.000 NA
ATOM      3  C   UNL     1       2.492   9.348  17.584  0.00  0.00    +0.000 A 
ATOM      4  C   UNL     1       2.658   8.113  18.156  0.00  0.00    +0.000 A 
ATOM      5  C   UNL     1       1.991   7.771  19.358  0.00  0.00    +0.000 A 
ATOM      6  C   UNL     1       1.149   8.711  19.964  0.00  0.00    +0.000 A 
ATOM      7  C   UNL     1       2.398   6.403  19.694  0.00  0.00    +0.000 A 
ATOM      8  C   UNL     1       2.082   5.553  20.749  0.00  0.00    +0.000 A 
ATOM      9  C   UNL     1       2.632   4.269  20.820  0.00  0.00    +0.000 A 
ATOM     10  C   UNL     1       3.512   3.820  19.828  0.00  0.00    +0.000 A 
ATOM     11  C   UNL     1       3.847   4.659  18.761  0.00  0.00    +0.000 A 
ATOM     12  C   UNL     1       3.292   5.930  18.710  0.00  0.00    +0.000 A 
ATOM     13  C   UNL     1       3.527   6.995  17.655  0.00  0.00    +0.000 C 
ENDROOT
BRANCH   1  14
ATOM     14  C   UNL     1       0.220  11.075  19.883  0.00  0.00    +0.000 C 
ATOM     15  O   UNL     1       0.655  12.015  20.531  0.00  0.00    +0.000 OA
BRANCH  14  16
ATOM     16  O   UNL     1      -1.092  10.838  19.620  0.00  0.00    +0.000 OA
BRANCH  16  18
ATOM     17  C   UNL     1      -2.558  10.263  17.754  0.00  0.00    +0.000 C 
ATOM     18  C   UNL     1      -1.553  11.242  18.324  0.00  0.00    +0.000 C 
ENDBRANCH  16  18
ENDBRANCH  14  16
ENDBRANCH   1  14
BRANCH   9  19
ATOM     19  O   UNL     1       2.220   3.567  21.919  0.00  0.00    +0.000 OA
ATOM     20  C   UNL     1       1.336   2.479  21.706  0.00  0.00    +0.000 C 
ENDBRANCH   9  19
BRANCH   6  21
ATOM     21  C   UNL     1       0.410   8.453  21.243  0.00  0.00    +0.000 C 
BRANCH  21  22
ATOM     22  O   UNL     1       1.056   9.051  22.367  0.00  0.00    +0.000 OA
ATOM     23  C   UNL     1       0.082   9.498  23.310  0.00  0.00    +0.000 C 
ENDBRANCH  21  22
ENDBRANCH   6  21
TORSDOF 6
ENDMDL
MODEL 6
REMARK VINA RESULT:      -6.3      2.212      6.684
REMARK  Name = 
REMARK  9 active torsions:
REMARK  status: ('A' for Active; 'I' for Inactive)
REMARK    1  A    between atoms: C_1  and  C_2
REMARK    2  A    between atoms: C_2  and  O_3
REMARK    3  A    between atoms: O_3  and  C_4
REMARK    4  A    between atoms: C_4  and  C_6
REMARK    5  A    between atoms: C_11  and  C_12
REMARK    6  A    between atoms: C_12  and  O_13
REMARK    7  A    between atoms: O_13  and  C_14
REMARK    8  A    between atoms: C_17  and  O_18
REMARK    9  A    between atoms: O_18  and  C_19
REMARK                            x       y       z     vdW  Elec       q    Type
REMARK                         _______ _______ _______ _____ _____    ______ ____
ROOT
ATOM      1  C   UNL     1       0.772  10.370  19.657  0.00  0.00    +0.000 A 
ATOM      2  N   UNL     1       1.391  10.794  18.504  0.00  0.00    +0.000 NA
ATOM      3  C   UNL     1       2.167   9.920  17.845  0.00  0.00    +0.000 A 
ATOM      4  C   UNL     1       2.354   8.641  18.302  0.00  0.00    +0.000 A 
ATOM      5  C   UNL     1       1.721   8.191  19.487  0.00  0.00    +0.000 A 
ATOM      6  C   UNL     1       0.892   9.069  20.195  0.00  0.00    +0.000 A 
ATOM      7  C   UNL     1       2.143   6.801  19.692  0.00  0.00    +0.000 A 
ATOM      8  C   UNL     1       1.860   5.861  20.677  0.00  0.00    +0.000 A 
ATOM      9  C   UNL     1       2.417   4.579  20.622  0.00  0.00    +0.000 A 
ATOM     10  C   UNL     1       3.272   4.225  19.571  0.00  0.00    +0.000 A 
ATOM     11  C   UNL     1       3.575   5.156  18.573  0.00  0.00    +0.000 A 
ATOM     12  C   UNL     1       3.012   6.422  18.648  0.00  0.00    +0.000 A 
ATOM     13  C   UNL     1       3.214   7.576  17.684  0.00  0.00    +0.000 C 
ENDROOT
BRANCH   1  14
ATOM     14  C   UNL     1      -0.050  11.424  20.345  0.00  0.00    +0.000 C 
ATOM     15  O   UNL     1      -1.220  11.677  20.096  0.00  0.00    +0.000 OA
BRANCH  14  16
ATOM     16  O   UNL     1       0.727  12.089  21.240  0.00  0.00    +0.000 OA
BRANCH  16  18
ATOM     17  C   UNL     1       2.518  13.612  20.579  0.00  0.00    +0.000 C 
ATOM     18  C   UNL     1       1.047  13.445  20.904  0.00  0.00    +0.000 C 
ENDBRANCH  16  18
ENDBRANCH  14  16
ENDBRANCH   1  14
BRANCH   9  19
ATOM     19  O   UNL     1       2.039   3.781  21.666  0.00  0.00    +0.000 OA
ATOM     20  C   UNL     1       1.812   2.409  21.391  0.00  0.00    +0.000 C 
ENDBRANCH   9  19
BRANCH   6  21
ATOM     21  C   UNL     1       0.189   8.695  21.466  0.00  0.00    +0.000 C 
BRANCH  21  22
ATOM     22  O   UNL     1       0.915   9.109  22.624  0.00  0.00    +0.000 OA
ATOM     23  C   UNL     1       0.014   9.599  23.617  0.00  0.00    +0.000 C 
ENDBRANCH  21  22
ENDBRANCH   6  21
TORSDOF 6
ENDMDL
MODEL 7
REMARK VINA RESULT:      -6.2      3.061      4.705
REMARK  Name = 
REMARK  9 active torsions:
REMARK  status: ('A' for Active; 'I' for Inactive)
REMARK    1  A    between atoms: C_1  and  C_2
REMARK    2  A    between atoms: C_2  and  O_3
REMARK    3  A    between atoms: O_3  and  C_4
REMARK    4  A    between atoms: C_4  and  C_6
REMARK    5  A    between atoms: C_11  and  C_12
REMARK    6  A    between atoms: C_12  and  O_13
REMARK    7  A    between atoms: O_13  and  C_14
REMARK    8  A    between atoms: C_17  and  O_18
REMARK    9  A    between atoms: O_18  and  C_19
REMARK                            x       y       z     vdW  Elec       q    Type
REMARK                         _______ _______ _______ _____ _____    ______ ____
ROOT
ATOM      1  C   UNL     1       5.289   4.238  16.232  0.00  0.00    +0.000 A 
ATOM      2  N   UNL     1       5.095   2.918  16.566  0.00  0.00    +0.000 NA
ATOM      3  C   UNL     1       4.241   2.638  17.563  0.00  0.00    +0.000 A 
ATOM      4  C   UNL     1       3.582   3.630  18.243  0.00  0.00    +0.000 A 
ATOM      5  C   UNL     1       3.772   4.993  17.907  0.00  0.00    +0.000 A 
ATOM      6  C   UNL     1       4.644   5.325  16.864  0.00  0.00    +0.000 A 
ATOM      7  C   UNL     1       2.941   5.776  18.828  0.00  0.00    +0.000 A 
ATOM      8  C   UNL     1       2.730   7.142  18.984  0.00  0.00    +0.000 A 
ATOM      9  C   UNL     1       1.864   7.622  19.972  0.00  0.00    +0.000 A 
ATOM     10  C   UNL     1       1.197   6.731  20.821  0.00  0.00    +0.000 A 
ATOM     11  C   UNL     1       1.398   5.354  20.685  0.00  0.00    +0.000 A 
ATOM     12  C   UNL     1       2.262   4.899  19.700  0.00  0.00    +0.000 A 
ATOM     13  C   UNL     1       2.629   3.460  19.391  0.00  0.00    +0.000 C 
ENDROOT
BRANCH   1  14
ATOM     14  C   UNL     1       6.286   4.460  15.128  0.00  0.00    +0.000 C 
ATOM     15  O   UNL     1       7.480   4.666  15.291  0.00  0.00    +0.000 OA
BRANCH  14  16
ATOM     16  O   UNL     1       5.642   4.456  13.932  0.00  0.00    +0.000 OA
BRANCH  16  18
ATOM     17  C   UNL     1       5.120   3.184  11.914  0.00  0.00    +0.000 C 
ATOM     18  C   UNL     1       6.167   3.563  12.942  0.00  0.00    +0.000 C 
ENDBRANCH  16  18
ENDBRANCH  14  16
ENDBRANCH   1  14
BRANCH   9  19
ATOM     19  O   UNL     1       1.771   8.986  19.990  0.00  0.00    +0.000 OA
ATOM     20  C   UNL     1       1.216   9.619  18.850  0.00  0.00    +0.000 C 
ENDBRANCH   9  19
BRANCH   6  21
ATOM     21  C   UNL     1       4.924   6.736  16.441  0.00  0.00    +0.000 C 
BRANCH  21  22
ATOM     22  O   UNL     1       5.614   7.473  17.451  0.00  0.00    +0.000 OA
ATOM     23  C   UNL     1       7.023   7.397  17.236  0.00  0.00    +0.000 C 
ENDBRANCH  21  22
ENDBRANCH   6  21
TORSDOF 6
ENDMDL
MODEL 8
REMARK VINA RESULT:      -6.1      2.800      4.540
REMARK  Name = 
REMARK  9 active torsions:
REMARK  status: ('A' for Active; 'I' for Inactive)
REMARK    1  A    between atoms: C_1  and  C_2
REMARK    2  A    between atoms: C_2  and  O_3
REMARK    3  A    between atoms: O_3  and  C_4
REMARK    4  A    between atoms: C_4  and  C_6
REMARK    5  A    between atoms: C_11  and  C_12
REMARK    6  A    between atoms: C_12  and  O_13
REMARK    7  A    between atoms: O_13  and  C_14
REMARK    8  A    between atoms: C_17  and  O_18
REMARK    9  A    between atoms: O_18  and  C_19
REMARK                            x       y       z     vdW  Elec       q    Type
REMARK                         _______ _______ _______ _____ _____    ______ ____
ROOT
ATOM      1  C   UNL     1       5.616   5.518  15.926  0.00  0.00    +0.000 A 
ATOM      2  N   UNL     1       5.328   6.729  15.338  0.00  0.00    +0.000 NA
ATOM      3  C   UNL     1       4.433   7.525  15.943  0.00  0.00    +0.000 A 
ATOM      4  C   UNL     1       3.811   7.152  17.107  0.00  0.00    +0.000 A 
ATOM      5  C   UNL     1       4.101   5.909  17.722  0.00  0.00    +0.000 A 
ATOM      6  C   UNL     1       5.039   5.056  17.129  0.00  0.00    +0.000 A 
ATOM      7  C   UNL     1       3.261   5.824  18.921  0.00  0.00    +0.000 A 
ATOM      8  C   UNL     1       3.105   4.848  19.900  0.00  0.00    +0.000 A 
ATOM      9  C   UNL     1       2.208   5.034  20.957  0.00  0.00    +0.000 A 
ATOM     10  C   UNL     1       1.450   6.208  21.043  0.00  0.00    +0.000 A 
ATOM     11  C   UNL     1       1.587   7.200  20.067  0.00  0.00    +0.000 A 
ATOM     12  C   UNL     1       2.482   6.995  19.026  0.00  0.00    +0.000 A 
ATOM     13  C   UNL     1       2.774   7.929  17.867  0.00  0.00    +0.000 C 
ENDROOT
BRANCH   1  14
ATOM     14  C   UNL     1       6.603   4.678  15.163  0.00  0.00    +0.000 C 
ATOM     15  O   UNL     1       7.817   4.722  15.301  0.00  0.00    +0.000 OA
BRANCH  14  16
ATOM     16  O   UNL     1       5.939   3.913  14.258  0.00  0.00    +0.000 OA
BRANCH  16  18
ATOM     17  C   UNL     1       5.751   2.920  12.035  0.00  0.00    +0.000 C 
ATOM     18  C   UNL     1       6.488   3.891  12.934  0.00  0.00    +0.000 C 
ENDBRANCH  16  18
ENDBRANCH  14  16
ENDBRANCH   1  14
BRANCH   9  19
ATOM     19  O   UNL     1       2.176   3.981  21.829  0.00  0.00    +0.000 OA
ATOM     20  C   UNL     1       1.935   2.692  21.290  0.00  0.00    +0.000 C 
ENDBRANCH   9  19
BRANCH   6  21
ATOM     21  C   UNL     1       5.406   3.716  17.693  0.00  0.00    +0.000 C 
BRANCH  21  22
ATOM     22  O   UNL     1       6.134   3.827  18.915  0.00  0.00    +0.000 OA
ATOM     23  C   UNL     1       7.231   4.725  18.751  0.00  0.00    +0.000 C 
ENDBRANCH  21  22
ENDBRANCH   6  21
TORSDOF 6
ENDMDL
MODEL 9
REMARK VINA RESULT:      -5.9      0.875      1.355
REMARK  Name = 
REMARK  9 active torsions:
REMARK  status: ('A' for Active; 'I' for Inactive)
REMARK    1  A    between atoms: C_1  and  C_2
REMARK    2  A    between atoms: C_2  and  O_3
REMARK    3  A    between atoms: O_3  and  C_4
REMARK    4  A    between atoms: C_4  and  C_6
REMARK    5  A    between atoms: C_11  and  C_12
REMARK    6  A    between atoms: C_12  and  O_13
REMARK    7  A    between atoms: O_13  and  C_14
REMARK    8  A    between atoms: C_17  and  O_18
REMARK    9  A    between atoms: O_18  and  C_19
REMARK                            x       y       z     vdW  Elec       q    Type
REMARK                         _______ _______ _______ _____ _____    ______ ____
ROOT
ATOM      1  C   UNL     1       3.511   4.729  18.624  0.00  0.00    +0.000 A 
ATOM      2  N   UNL     1       4.027   5.254  17.462  0.00  0.00    +0.000 NA
ATOM      3  C   UNL     1       3.771   6.541  17.182  0.00  0.00    +0.000 A 
ATOM      4  C   UNL     1       3.011   7.319  18.017  0.00  0.00    +0.000 A 
ATOM      5  C   UNL     1       2.476   6.791  19.218  0.00  0.00    +0.000 A 
ATOM      6  C   UNL     1       2.733   5.457  19.552  0.00  0.00    +0.000 A 
ATOM      7  C   UNL     1       1.715   7.872  19.853  0.00  0.00    +0.000 A 
ATOM      8  C   UNL     1       0.971   7.943  21.028  0.00  0.00    +0.000 A 
ATOM      9  C   UNL     1       0.332   9.131  21.396  0.00  0.00    +0.000 A 
ATOM     10  C   UNL     1       0.429  10.268  20.585  0.00  0.00    +0.000 A 
ATOM     11  C   UNL     1       1.166  10.217  19.398  0.00  0.00    +0.000 A 
ATOM     12  C   UNL     1       1.792   9.029  19.050  0.00  0.00    +0.000 A 
ATOM     13  C   UNL     1       2.625   8.756  17.812  0.00  0.00    +0.000 C 
ENDROOT
BRANCH   1  14
ATOM     14  C   UNL     1       3.820   3.273  18.840  0.00  0.00    +0.000 C 
ATOM     15  O   UNL     1       3.219   2.344  18.322  0.00  0.00    +0.000 OA
BRANCH  14  16
ATOM     16  O   UNL     1       4.828   3.155  19.743  0.00  0.00    +0.000 OA
BRANCH  16  18
ATOM     17  C   UNL     1       5.298   0.929  20.631  0.00  0.00    +0.000 C 
ATOM     18  C   UNL     1       4.590   2.253  20.831  0.00  0.00    +0.000 C 
ENDBRANCH  16  18
ENDBRANCH  14  16
ENDBRANCH   1  14
BRANCH   9  19
ATOM     19  O   UNL     1      -0.355   9.030  22.574  0.00  0.00    +0.000 OA
ATOM     20  C   UNL     1      -0.849  10.228  23.148  0.00  0.00    +0.000 C 
ENDBRANCH   9  19
BRANCH   6  21
ATOM     21  C   UNL     1       2.202   4.800  20.792  0.00  0.00    +0.000 C 
BRANCH  21  22
ATOM     22  O   UNL     1       0.990   4.087  20.545  0.00  0.00    +0.000 OA
ATOM     23  C   UNL     1       1.037   2.809  21.178  0.00  0.00    +0.000 C 
ENDBRANCH  21  22
ENDBRANCH   6  21
TORSDOF 6
ENDMDL
