MODEL 1
REMARK VINA RESULT:      -8.2      0.000      0.000
REMARK  Name = 
REMARK  7 active torsions:
REMARK  status: ('A' for Active; 'I' for Inactive)
REMARK    1  A    between atoms: C_1  and  S_2
REMARK    2  A    between atoms: S_2  and  N_5
REMARK    3  A    between atoms: N_5  and  C_6
REMARK    4  A    between atoms: C_10  and  C_11
REMARK    5  A    between atoms: C_12  and  C_13
REMARK    6  A    between atoms: C_15  and  C_16
REMARK    7  A    between atoms: C_19  and  N_20
REMARK                            x       y       z     vdW  Elec       q    Type
REMARK                         _______ _______ _______ _____ _____    ______ ____
ROOT
ATOM      1  C   UNL     1       7.705   7.343  17.934  0.00  0.00    +0.000 A 
ATOM      2  C   UNL     1       7.311   6.886  16.704  0.00  0.00    +0.000 A 
ATOM      3  C   UNL     1       6.754   5.557  16.749  0.00  0.00    +0.000 A 
ATOM      4  C   UNL     1       6.747   5.076  18.057  0.00  0.00    +0.000 A 
ATOM      5  S   UNL     1       7.454   6.189  19.142  0.00  0.00    +0.000 S 
ENDROOT
BRANCH   4   6
ATOM      6  N   UNL     1       6.278   3.854  18.534  0.00  0.00    +0.000 N 
ATOM      7  C   UNL     1       5.056   3.653  19.144  0.00  0.00    +0.000 C 
ATOM      8  N   UNL     1       4.839   2.354  19.489  0.00  0.00    +0.000 N 
ATOM      9  O   UNL     1       4.165   4.461  19.365  0.00  0.00    +0.000 OA
ATOM     10  H   UNL     1       6.807   3.033  18.266  0.00  0.00    +0.000 HD
ATOM     11  H   UNL     1       5.597   1.713  19.656  0.00  0.00    +0.000 HD
ATOM     12  H   UNL     1       3.996   2.222  20.036  0.00  0.00    +0.000 HD
ENDBRANCH   4   6
BRANCH   3  13
ATOM     13  C   UNL     1       6.270   4.830  15.581  0.00  0.00    +0.000 C 
ATOM     14  N   UNL     1       6.841   5.205  14.392  0.00  0.00    +0.000 N 
ATOM     15  O   UNL     1       5.417   3.952  15.631  0.00  0.00    +0.000 OA
ATOM     16  H   UNL     1       7.370   6.061  14.291  0.00  0.00    +0.000 HD
ATOM     17  H   UNL     1       6.525   4.748  13.548  0.00  0.00    +0.000 HD
ENDBRANCH   3  13
BRANCH   1  19
ATOM     18  C   UNL     1       8.784   9.689  18.345  0.00  0.00    +0.000 C 
ATOM     19  C   UNL     1       8.287   8.612  18.167  0.00  0.00    +0.000 C 
BRANCH  18  24
ATOM     20  C   UNL     1       9.428  13.338  18.163  0.00  0.00    +0.000 A 
ATOM     21  C   UNL     1      10.586  13.446  18.936  0.00  0.00    +0.000 A 
ATOM     22  C   UNL     1      11.145  12.305  19.516  0.00  0.00    +0.000 A 
ATOM     23  C   UNL     1      10.545  11.064  19.321  0.00  0.00    +0.000 A 
ATOM     24  C   UNL     1       9.385  10.965  18.549  0.00  0.00    +0.000 A 
ATOM     25  C   UNL     1       8.818  12.104  17.976  0.00  0.00    +0.000 A 
BRANCH  20  26
ATOM     26  N   UNL     1       8.820  14.510  17.618  0.00  0.00    +0.000 N 
ATOM     27  H   UNL     1       9.453  15.304  17.494  0.00  0.00    +0.000 HD
BRANCH  26  29
ATOM     28  C   UNL     1       7.674  16.824  18.375  0.00  0.00    +0.000 C 
ATOM     29  S   UNL     1       7.413  15.064  18.385  0.00  0.00    +0.000 S 
ATOM     30  O   UNL     1       7.523  14.614  19.757  0.00  0.00    +0.000 OA
ATOM     31  O   UNL     1       6.252  14.752  17.584  0.00  0.00    +0.000 OA
ENDBRANCH  26  29
ENDBRANCH  20  26
ENDBRANCH  18  24
ENDBRANCH   1  19
TORSDOF 6
ENDMDL
MODEL 2
REMARK VINA RESULT:      -8.2      6.697      7.482
REMARK  Name = 
REMARK  7 active torsions:
REMARK  status: ('A' for Active; 'I' for Inactive)
REMARK    1  A    between atoms: C_1  and  S_2
REMARK    2  A    between atoms: S_2  and  N_5
REMARK    3  A    between atoms: N_5  and  C_6
REMARK    4  A    between atoms: C_10  and  C_11
REMARK    5  A    between atoms: C_12  and  C_13
REMARK    6  A    between atoms: C_15  and  C_16
REMARK    7  A    between atoms: C_19  and  N_20
REMARK                            x       y       z     vdW  Elec       q    Type
REMARK                         _______ _______ _______ _____ _____    ______ ____
ROOT
ATOM      1  C   UNL     1       3.327   6.731  17.866  0.00  0.00    +0.000 A 
ATOM      2  C   UNL     1       4.396   6.588  17.021  0.00  0.00    +0.000 A 
ATOM      3  C   UNL     1       4.967   5.264  17.054  0.00  0.00    +0.000 A 
ATOM      4  C   UNL     1       4.263   4.453  17.943  0.00  0.00    +0.000 A 
ATOM      5  S   UNL     1       3.017   5.314  18.731  0.00  0.00    +0.000 S 
ENDROOT
BRANCH   4   6
ATOM      6  N   UNL     1       4.474   3.111  18.251  0.00  0.00    +0.000 N 
ATOM      7  C   UNL     1       3.583   2.086  18.002  0.00  0.00    +0.000 C 
ATOM      8  N   UNL     1       4.053   0.866  18.379  0.00  0.00    +0.000 N 
ATOM      9  O   UNL     1       2.485   2.136  17.466  0.00  0.00    +0.000 OA
ATOM     10  H   UNL     1       5.414   2.855  18.530  0.00  0.00    +0.000 HD
ATOM     11  H   UNL     1       4.751   0.762  19.098  0.00  0.00    +0.000 HD
ATOM     12  H   UNL     1       3.361   0.130  18.303  0.00  0.00    +0.000 HD
ENDBRANCH   4   6
BRANCH   3  13
ATOM     13  C   UNL     1       6.118   4.848  16.263  0.00  0.00    +0.000 C 
ATOM     14  N   UNL     1       7.101   5.795  16.133  0.00  0.00    +0.000 N 
ATOM     15  O   UNL     1       6.222   3.744  15.740  0.00  0.00    +0.000 OA
ATOM     16  H   UNL     1       6.947   6.770  16.356  0.00  0.00    +0.000 HD
ATOM     17  H   UNL     1       7.912   5.566  15.575  0.00  0.00    +0.000 HD
ENDBRANCH   3  13
BRANCH   1  19
ATOM     18  C   UNL     1       1.982   8.954  18.164  0.00  0.00    +0.000 C 
ATOM     19  C   UNL     1       2.590   7.929  18.028  0.00  0.00    +0.000 C 
BRANCH  18  24
ATOM     20  C   UNL     1      -0.806  11.371  18.552  0.00  0.00    +0.000 A 
ATOM     21  C   UNL     1      -0.107  12.575  18.643  0.00  0.00    +0.000 A 
ATOM     22  C   UNL     1       1.288  12.578  18.578  0.00  0.00    +0.000 A 
ATOM     23  C   UNL     1       1.977  11.378  18.423  0.00  0.00    +0.000 A 
ATOM     24  C   UNL     1       1.270  10.176  18.335  0.00  0.00    +0.000 A 
ATOM     25  C   UNL     1      -0.123  10.168  18.409  0.00  0.00    +0.000 A 
BRANCH  20  26
ATOM     26  N   UNL     1      -2.228  11.357  18.678  0.00  0.00    +0.000 N 
ATOM     27  H   UNL     1      -2.580  10.907  19.526  0.00  0.00    +0.000 HD
BRANCH  26  29
ATOM     28  C   UNL     1      -4.631  11.661  17.506  0.00  0.00    +0.000 C 
ATOM     29  S   UNL     1      -3.104  10.761  17.354  0.00  0.00    +0.000 S 
ATOM     30  O   UNL     1      -3.381   9.375  17.671  0.00  0.00    +0.000 OA
ATOM     31  O   UNL     1      -2.456  11.132  16.117  0.00  0.00    +0.000 OA
ENDBRANCH  26  29
ENDBRANCH  20  26
ENDBRANCH  18  24
ENDBRANCH   1  19
TORSDOF 6
ENDMDL
MODEL 3
REMARK VINA RESULT:      -8.0      1.706      1.879
REMARK  Name = 
REMARK  7 active torsions:
REMARK  status: ('A' for Active; 'I' for Inactive)
REMARK    1  A    between atoms: C_1  and  S_2
REMARK    2  A    between atoms: S_2  and  N_5
REMARK    3  A    between atoms: N_5  and  C_6
REMARK    4  A    between atoms: C_10  and  C_11
REMARK    5  A    between atoms: C_12  and  C_13
REMARK    6  A    between atoms: C_15  and  C_16
REMARK    7  A    between atoms: C_19  and  N_20
REMARK                            x       y       z     vdW  Elec       q    Type
REMARK                         _______ _______ _______ _____ _____    ______ ____
ROOT
ATOM      1  C   UNL     1       7.788   7.306  18.052  0.00  0.00    +0.000 A 
ATOM      2  C   UNL     1       7.458   6.977  16.763  0.00  0.00    +0.000 A 
ATOM      3  C   UNL     1       6.832   5.683  16.654  0.00  0.00    +0.000 A 
ATOM      4  C   UNL     1       6.709   5.095  17.912  0.00  0.00    +0.000 A 
ATOM      5  S   UNL     1       7.393   6.071  19.135  0.00  0.00    +0.000 S 
ENDROOT
BRANCH   4   6
ATOM      6  N   UNL     1       6.145   3.866  18.247  0.00  0.00    +0.000 N 
ATOM      7  C   UNL     1       4.845   3.674  18.671  0.00  0.00    +0.000 C 
ATOM      8  N   UNL     1       4.547   2.367  18.906  0.00  0.00    +0.000 N 
ATOM      9  O   UNL     1       3.954   4.499  18.814  0.00  0.00    +0.000 OA
ATOM     10  H   UNL     1       6.684   3.043  18.007  0.00  0.00    +0.000 HD
ATOM     11  H   UNL     1       5.257   1.692  19.139  0.00  0.00    +0.000 HD
ATOM     12  H   UNL     1       3.633   2.235  19.323  0.00  0.00    +0.000 HD
ENDBRANCH   4   6
BRANCH   3  13
ATOM     13  C   UNL     1       6.395   5.087  15.398  0.00  0.00    +0.000 C 
ATOM     14  N   UNL     1       7.306   5.165  14.376  0.00  0.00    +0.000 N 
ATOM     15  O   UNL     1       5.303   4.555  15.240  0.00  0.00    +0.000 OA
ATOM     16  H   UNL     1       8.106   5.783  14.409  0.00  0.00    +0.000 HD
ATOM     17  H   UNL     1       7.044   4.786  13.476  0.00  0.00    +0.000 HD
ENDBRANCH   3  13
BRANCH   1  19
ATOM     18  C   UNL     1       8.945   9.536  18.777  0.00  0.00    +0.000 C 
ATOM     19  C   UNL     1       8.415   8.516  18.434  0.00  0.00    +0.000 C 
BRANCH  18  24
ATOM     20  C   UNL     1      10.724  12.790  18.668  0.00  0.00    +0.000 A 
ATOM     21  C   UNL     1      10.797  13.102  20.027  0.00  0.00    +0.000 A 
ATOM     22  C   UNL     1      10.252  12.230  20.972  0.00  0.00    +0.000 A 
ATOM     23  C   UNL     1       9.637  11.053  20.555  0.00  0.00    +0.000 A 
ATOM     24  C   UNL     1       9.566  10.749  19.194  0.00  0.00    +0.000 A 
ATOM     25  C   UNL     1      10.100  11.622  18.246  0.00  0.00    +0.000 A 
BRANCH  20  26
ATOM     26  N   UNL     1      11.227  13.707  17.696  0.00  0.00    +0.000 N 
ATOM     27  H   UNL     1      12.244  13.704  17.589  0.00  0.00    +0.000 HD
BRANCH  26  29
ATOM     28  C   UNL     1       8.948  15.109  17.983  0.00  0.00    +0.000 C 
ATOM     29  S   UNL     1      10.708  15.316  17.826  0.00  0.00    +0.000 S 
ATOM     30  O   UNL     1      10.964  15.906  16.529  0.00  0.00    +0.000 OA
ATOM     31  O   UNL     1      11.226  15.911  19.036  0.00  0.00    +0.000 OA
ENDBRANCH  26  29
ENDBRANCH  20  26
ENDBRANCH  18  24
ENDBRANCH   1  19
TORSDOF 6
ENDMDL
MODEL 4
REMARK VINA RESULT:      -8.0      6.948      7.883
REMARK  Name = 
REMARK  7 active torsions:
REMARK  status: ('A' for Active; 'I' for Inactive)
REMARK    1  A    between atoms: C_1  and  S_2
REMARK    2  A    between atoms: S_2  and  N_5
REMARK    3  A    between atoms: N_5  and  C_6
REMARK    4  A    between atoms: C_10  and  C_11
REMARK    5  A    between atoms: C_12  and  C_13
REMARK    6  A    between atoms: C_15  and  C_16
REMARK    7  A    between atoms: C_19  and  N_20
REMARK                            x       y       z     vdW  Elec       q    Type
REMARK                         _______ _______ _______ _____ _____    ______ ____
ROOT
ATOM      1  C   UNL     1       3.169   6.819  18.552  0.00  0.00    +0.000 A 
ATOM      2  C   UNL     1       4.071   6.717  17.526  0.00  0.00    +0.000 A 
ATOM      3  C   UNL     1       4.907   5.546  17.625  0.00  0.00    +0.000 A 
ATOM      4  C   UNL     1       4.567   4.799  18.752  0.00  0.00    +0.000 A 
ATOM      5  S   UNL     1       3.331   5.553  19.658  0.00  0.00    +0.000 S 
ENDROOT
BRANCH   4   6
ATOM      6  N   UNL     1       5.111   3.598  19.197  0.00  0.00    +0.000 N 
ATOM      7  C   UNL     1       4.385   2.487  19.582  0.00  0.00    +0.000 C 
ATOM      8  N   UNL     1       5.169   1.437  19.948  0.00  0.00    +0.000 N 
ATOM      9  O   UNL     1       3.173   2.328  19.593  0.00  0.00    +0.000 OA
ATOM     10  H   UNL     1       6.110   3.482  19.075  0.00  0.00    +0.000 HD
ATOM     11  H   UNL     1       6.110   1.566  20.286  0.00  0.00    +0.000 HD
ATOM     12  H   UNL     1       4.644   0.663  20.338  0.00  0.00    +0.000 HD
ENDBRANCH   4   6
BRANCH   3  13
ATOM     13  C   UNL     1       5.956   5.204  16.673  0.00  0.00    +0.000 C 
ATOM     14  N   UNL     1       5.914   5.904  15.494  0.00  0.00    +0.000 N 
ATOM     15  O   UNL     1       6.818   4.359  16.883  0.00  0.00    +0.000 OA
ATOM     16  H   UNL     1       5.102   6.433  15.206  0.00  0.00    +0.000 HD
ATOM     17  H   UNL     1       6.606   5.690  14.789  0.00  0.00    +0.000 HD
ENDBRANCH   3  13
BRANCH   1  19
ATOM     18  C   UNL     1       1.443   8.763  18.835  0.00  0.00    +0.000 C 
ATOM     19  C   UNL     1       2.236   7.874  18.695  0.00  0.00    +0.000 C 
BRANCH  18  24
ATOM     20  C   UNL     1      -1.162  11.301  18.102  0.00  0.00    +0.000 A 
ATOM     21  C   UNL     1      -1.340  11.875  19.361  0.00  0.00    +0.000 A 
ATOM     22  C   UNL     1      -0.595  11.414  20.449  0.00  0.00    +0.000 A 
ATOM     23  C   UNL     1       0.323  10.382  20.273  0.00  0.00    +0.000 A 
ATOM     24  C   UNL     1       0.493   9.811  19.009  0.00  0.00    +0.000 A 
ATOM     25  C   UNL     1      -0.256  10.262  17.922  0.00  0.00    +0.000 A 
BRANCH  20  26
ATOM     26  N   UNL     1      -1.963  11.729  17.000  0.00  0.00    +0.000 N 
ATOM     27  H   UNL     1      -2.222  12.718  17.017  0.00  0.00    +0.000 HD
BRANCH  26  29
ATOM     28  C   UNL     1      -3.067  10.325  14.987  0.00  0.00    +0.000 C 
ATOM     29  S   UNL     1      -3.355  10.818  16.672  0.00  0.00    +0.000 S 
ATOM     30  O   UNL     1      -4.445  11.772  16.668  0.00  0.00    +0.000 OA
ATOM     31  O   UNL     1      -3.392   9.642  17.511  0.00  0.00    +0.000 OA
ENDBRANCH  26  29
ENDBRANCH  20  26
ENDBRANCH  18  24
ENDBRANCH   1  19
TORSDOF 6
ENDMDL
MODEL 5
REMARK VINA RESULT:      -7.8      2.268      2.574
REMARK  Name = 
REMARK  7 active torsions:
REMARK  status: ('A' for Active; 'I' for Inactive)
REMARK    1  A    between atoms: C_1  and  S_2
REMARK    2  A    between atoms: S_2  and  N_5
REMARK    3  A    between atoms: N_5  and  C_6
REMARK    4  A    between atoms: C_10  and  C_11
REMARK    5  A    between atoms: C_12  and  C_13
REMARK    6  A    between atoms: C_15  and  C_16
REMARK    7  A    between atoms: C_19  and  N_20
REMARK                            x       y       z     vdW  Elec       q    Type
REMARK                         _______ _______ _______ _____ _____    ______ ____
ROOT
ATOM      1  C   UNL     1       7.545   6.960  17.728  0.00  0.00    +0.000 A 
ATOM      2  C   UNL     1       7.489   6.578  16.414  0.00  0.00    +0.000 A 
ATOM      3  C   UNL     1       6.807   5.322  16.220  0.00  0.00    +0.000 A 
ATOM      4  C   UNL     1       6.360   4.818  17.441  0.00  0.00    +0.000 A 
ATOM      5  S   UNL     1       6.825   5.818  18.744  0.00  0.00    +0.000 S 
ENDROOT
BRANCH   4   6
ATOM      6  N   UNL     1       5.645   3.650  17.691  0.00  0.00    +0.000 N 
ATOM      7  C   UNL     1       4.268   3.547  17.710  0.00  0.00    +0.000 C 
ATOM      8  N   UNL     1       3.830   2.281  17.953  0.00  0.00    +0.000 N 
ATOM      9  O   UNL     1       3.430   4.412  17.502  0.00  0.00    +0.000 OA
ATOM     10  H   UNL     1       6.178   2.788  17.700  0.00  0.00    +0.000 HD
ATOM     11  H   UNL     1       4.392   1.609  18.450  0.00  0.00    +0.000 HD
ATOM     12  H   UNL     1       2.826   2.223  18.080  0.00  0.00    +0.000 HD
ENDBRANCH   4   6
BRANCH   3  13
ATOM     13  C   UNL     1       6.619   4.682  14.924  0.00  0.00    +0.000 C 
ATOM     14  N   UNL     1       7.293   5.273  13.886  0.00  0.00    +0.000 N 
ATOM     15  O   UNL     1       5.915   3.695  14.748  0.00  0.00    +0.000 OA
ATOM     16  H   UNL     1       7.691   6.200  13.957  0.00  0.00    +0.000 HD
ATOM     17  H   UNL     1       7.180   4.882  12.962  0.00  0.00    +0.000 HD
ENDBRANCH   3  13
BRANCH   1  19
ATOM     18  C   UNL     1       8.673   9.164  18.568  0.00  0.00    +0.000 C 
ATOM     19  C   UNL     1       8.160   8.147  18.191  0.00  0.00    +0.000 C 
BRANCH  18  24
ATOM     20  C   UNL     1       9.735  11.982  20.735  0.00  0.00    +0.000 A 
ATOM     21  C   UNL     1      10.464  12.757  19.832  0.00  0.00    +0.000 A 
ATOM     22  C   UNL     1      10.601  12.337  18.506  0.00  0.00    +0.000 A 
ATOM     23  C   UNL     1      10.010  11.146  18.092  0.00  0.00    +0.000 A 
ATOM     24  C   UNL     1       9.284  10.376  19.003  0.00  0.00    +0.000 A 
ATOM     25  C   UNL     1       9.154  10.786  20.330  0.00  0.00    +0.000 A 
BRANCH  20  26
ATOM     26  N   UNL     1       9.643  12.377  22.104  0.00  0.00    +0.000 N 
ATOM     27  H   UNL     1      10.007  11.694  22.773  0.00  0.00    +0.000 HD
BRANCH  26  29
ATOM     28  C   UNL     1       8.574  13.943  24.014  0.00  0.00    +0.000 C 
ATOM     29  S   UNL     1       8.123  12.899  22.646  0.00  0.00    +0.000 S 
ATOM     30  O   UNL     1       7.486  11.718  23.190  0.00  0.00    +0.000 OA
ATOM     31  O   UNL     1       7.479  13.699  21.630  0.00  0.00    +0.000 OA
ENDBRANCH  26  29
ENDBRANCH  20  26
ENDBRANCH  18  24
ENDBRANCH   1  19
TORSDOF 6
ENDMDL
MODEL 6
REMARK VINA RESULT:      -7.8      7.062      8.275
REMARK  Name = 
REMARK  7 active torsions:
REMARK  status: ('A' for Active; 'I' for Inactive)
REMARK    1  A    between atoms: C_1  and  S_2
REMARK    2  A    between atoms: S_2  and  N_5
REMARK    3  A    between atoms: N_5  and  C_6
REMARK    4  A    between atoms: C_10  and  C_11
REMARK    5  A    between atoms: C_12  and  C_13
REMARK    6  A    between atoms: C_15  and  C_16
REMARK    7  A    between atoms: C_19  and  N_20
REMARK                            x       y       z     vdW  Elec       q    Type
REMARK                         _______ _______ _______ _____ _____    ______ ____
ROOT
ATOM      1  C   UNL     1       2.886   6.894  18.708  0.00  0.00    +0.000 A 
ATOM      2  C   UNL     1       2.817   5.715  19.403  0.00  0.00    +0.000 A 
ATOM      3  C   UNL     1       3.839   4.773  19.020  0.00  0.00    +0.000 A 
ATOM      4  C   UNL     1       4.658   5.319  18.033  0.00  0.00    +0.000 A 
ATOM      5  S   UNL     1       4.136   6.878  17.572  0.00  0.00    +0.000 S 
ENDROOT
BRANCH   4   6
ATOM      6  N   UNL     1       5.766   4.752  17.409  0.00  0.00    +0.000 N 
ATOM      7  C   UNL     1       7.082   4.971  17.767  0.00  0.00    +0.000 C 
ATOM      8  N   UNL     1       7.966   4.269  17.007  0.00  0.00    +0.000 N 
ATOM      9  O   UNL     1       7.526   5.658  18.675  0.00  0.00    +0.000 OA
ATOM     10  H   UNL     1       5.579   4.004  16.752  0.00  0.00    +0.000 HD
ATOM     11  H   UNL     1       7.743   3.965  16.073  0.00  0.00    +0.000 HD
ATOM     12  H   UNL     1       8.933   4.513  17.191  0.00  0.00    +0.000 HD
ENDBRANCH   4   6
BRANCH   3  13
ATOM     13  C   UNL     1       3.983   3.441  19.594  0.00  0.00    +0.000 C 
ATOM     14  N   UNL     1       2.804   2.832  19.939  0.00  0.00    +0.000 N 
ATOM     15  O   UNL     1       5.062   2.888  19.768  0.00  0.00    +0.000 OA
ATOM     16  H   UNL     1       1.933   3.341  20.016  0.00  0.00    +0.000 HD
ATOM     17  H   UNL     1       2.849   1.915  20.362  0.00  0.00    +0.000 HD
ENDBRANCH   3  13
BRANCH   1  19
ATOM     18  C   UNL     1       1.242   8.903  19.022  0.00  0.00    +0.000 C 
ATOM     19  C   UNL     1       2.000   7.983  18.888  0.00  0.00    +0.000 C 
BRANCH  18  24
ATOM     20  C   UNL     1      -1.267  11.519  18.232  0.00  0.00    +0.000 A 
ATOM     21  C   UNL     1      -1.385  12.160  19.466  0.00  0.00    +0.000 A 
ATOM     22  C   UNL     1      -0.632  11.717  20.556  0.00  0.00    +0.000 A 
ATOM     23  C   UNL     1       0.234  10.637  20.407  0.00  0.00    +0.000 A 
ATOM     24  C   UNL     1       0.345  10.000  19.169  0.00  0.00    +0.000 A 
ATOM     25  C   UNL     1      -0.413  10.433  18.080  0.00  0.00    +0.000 A 
BRANCH  20  26
ATOM     26  N   UNL     1      -2.078  11.931  17.131  0.00  0.00    +0.000 N 
ATOM     27  H   UNL     1      -2.403  12.899  17.176  0.00  0.00    +0.000 HD
BRANCH  26  29
ATOM     28  C   UNL     1      -2.968  10.390  15.112  0.00  0.00    +0.000 C 
ATOM     29  S   UNL     1      -3.400  10.941  16.748  0.00  0.00    +0.000 S 
ATOM     30  O   UNL     1      -4.528  11.841  16.622  0.00  0.00    +0.000 OA
ATOM     31  O   UNL     1      -3.446   9.802  17.636  0.00  0.00    +0.000 OA
ENDBRANCH  26  29
ENDBRANCH  20  26
ENDBRANCH  18  24
ENDBRANCH   1  19
TORSDOF 6
ENDMDL
MODEL 7
REMARK VINA RESULT:      -7.7      5.229      5.951
REMARK  Name = 
REMARK  7 active torsions:
REMARK  status: ('A' for Active; 'I' for Inactive)
REMARK    1  A    between atoms: C_1  and  S_2
REMARK    2  A    between atoms: S_2  and  N_5
REMARK    3  A    between atoms: N_5  and  C_6
REMARK    4  A    between atoms: C_10  and  C_11
REMARK    5  A    between atoms: C_12  and  C_13
REMARK    6  A    between atoms: C_15  and  C_16
REMARK    7  A    between atoms: C_19  and  N_20
REMARK                            x       y       z     vdW  Elec       q    Type
REMARK                         _______ _______ _______ _____ _____    ______ ____
ROOT
ATOM      1  C   UNL     1       3.407   6.700  17.804  0.00  0.00    +0.000 A 
ATOM      2  C   UNL     1       4.450   6.531  16.932  0.00  0.00    +0.000 A 
ATOM      3  C   UNL     1       5.001   5.199  16.962  0.00  0.00    +0.000 A 
ATOM      4  C   UNL     1       4.309   4.407  17.878  0.00  0.00    +0.000 A 
ATOM      5  S   UNL     1       3.099   5.296  18.691  0.00  0.00    +0.000 S 
ENDROOT
BRANCH   4   6
ATOM      6  N   UNL     1       4.508   3.066  18.195  0.00  0.00    +0.000 N 
ATOM      7  C   UNL     1       3.585   2.056  18.002  0.00  0.00    +0.000 C 
ATOM      8  N   UNL     1       4.048   0.832  18.373  0.00  0.00    +0.000 N 
ATOM      9  O   UNL     1       2.464   2.122  17.519  0.00  0.00    +0.000 OA
ATOM     10  H   UNL     1       5.454   2.794  18.432  0.00  0.00    +0.000 HD
ATOM     11  H   UNL     1       4.778   0.723  19.059  0.00  0.00    +0.000 HD
ATOM     12  H   UNL     1       3.338   0.109  18.340  0.00  0.00    +0.000 HD
ENDBRANCH   4   6
BRANCH   3  13
ATOM     13  C   UNL     1       6.123   4.756  16.144  0.00  0.00    +0.000 C 
ATOM     14  N   UNL     1       7.123   5.682  15.988  0.00  0.00    +0.000 N 
ATOM     15  O   UNL     1       6.190   3.650  15.621  0.00  0.00    +0.000 OA
ATOM     16  H   UNL     1       6.996   6.660  16.214  0.00  0.00    +0.000 HD
ATOM     17  H   UNL     1       7.915   5.434  15.412  0.00  0.00    +0.000 HD
ENDBRANCH   3  13
BRANCH   1  19
ATOM     18  C   UNL     1       2.075   8.926  18.128  0.00  0.00    +0.000 C 
ATOM     19  C   UNL     1       2.694   7.910  17.974  0.00  0.00    +0.000 C 
BRANCH  18  24
ATOM     20  C   UNL     1       1.250  12.506  18.648  0.00  0.00    +0.000 A 
ATOM     21  C   UNL     1      -0.145  12.458  18.681  0.00  0.00    +0.000 A 
ATOM     22  C   UNL     1      -0.804  11.236  18.529  0.00  0.00    +0.000 A 
ATOM     23  C   UNL     1      -0.067  10.070  18.342  0.00  0.00    +0.000 A 
ATOM     24  C   UNL     1       1.328  10.126  18.307  0.00  0.00    +0.000 A 
ATOM     25  C   UNL     1       1.990  11.346  18.449  0.00  0.00    +0.000 A 
BRANCH  20  26
ATOM     26  N   UNL     1       1.925  13.760  18.744  0.00  0.00    +0.000 N 
ATOM     27  H   UNL     1       2.662  13.905  18.049  0.00  0.00    +0.000 HD
BRANCH  26  29
ATOM     28  C   UNL     1       1.730  15.739  20.556  0.00  0.00    +0.000 C 
ATOM     29  S   UNL     1       2.537  14.180  20.268  0.00  0.00    +0.000 S 
ATOM     30  O   UNL     1       3.944  14.450  20.054  0.00  0.00    +0.000 OA
ATOM     31  O   UNL     1       2.099  13.228  21.262  0.00  0.00    +0.000 OA
ENDBRANCH  26  29
ENDBRANCH  20  26
ENDBRANCH  18  24
ENDBRANCH   1  19
TORSDOF 6
ENDMDL
MODEL 8
REMARK VINA RESULT:      -7.7      6.836      7.807
REMARK  Name = 
REMARK  7 active torsions:
REMARK  status: ('A' for Active; 'I' for Inactive)
REMARK    1  A    between atoms: C_1  and  S_2
REMARK    2  A    between atoms: S_2  and  N_5
REMARK    3  A    between atoms: N_5  and  C_6
REMARK    4  A    between atoms: C_10  and  C_11
REMARK    5  A    between atoms: C_12  and  C_13
REMARK    6  A    between atoms: C_15  and  C_16
REMARK    7  A    between atoms: C_19  and  N_20
REMARK                            x       y       z     vdW  Elec       q    Type
REMARK                         _______ _______ _______ _____ _____    ______ ____
ROOT
ATOM      1  C   UNL     1       3.012   6.516  18.101  0.00  0.00    +0.000 A 
ATOM      2  C   UNL     1       4.338   6.557  17.761  0.00  0.00    +0.000 A 
ATOM      3  C   UNL     1       4.916   5.247  17.587  0.00  0.00    +0.000 A 
ATOM      4  C   UNL     1       3.956   4.259  17.799  0.00  0.00    +0.000 A 
ATOM      5  S   UNL     1       2.452   4.929  18.253  0.00  0.00    +0.000 S 
ENDROOT
BRANCH   4   6
ATOM      6  N   UNL     1       4.095   2.877  17.710  0.00  0.00    +0.000 N 
ATOM      7  C   UNL     1       3.917   1.989  18.753  0.00  0.00    +0.000 C 
ATOM      8  N   UNL     1       4.088   0.690  18.384  0.00  0.00    +0.000 N 
ATOM      9  O   UNL     1       3.597   2.218  19.911  0.00  0.00    +0.000 OA
ATOM     10  H   UNL     1       4.173   2.491  16.777  0.00  0.00    +0.000 HD
ATOM     11  H   UNL     1       4.655   0.431  17.593  0.00  0.00    +0.000 HD
ATOM     12  H   UNL     1       4.070   0.046  19.167  0.00  0.00    +0.000 HD
ENDBRANCH   4   6
BRANCH   3  13
ATOM     13  C   UNL     1       6.311   5.006  17.237  0.00  0.00    +0.000 C 
ATOM     14  N   UNL     1       7.046   4.372  18.206  0.00  0.00    +0.000 N 
ATOM     15  O   UNL     1       6.812   5.338  16.170  0.00  0.00    +0.000 OA
ATOM     16  H   UNL     1       6.727   4.291  19.162  0.00  0.00    +0.000 HD
ATOM     17  H   UNL     1       8.025   4.201  18.023  0.00  0.00    +0.000 HD
ENDBRANCH   3  13
BRANCH   1  19
ATOM     18  C   UNL     1       1.532   8.624  18.551  0.00  0.00    +0.000 C 
ATOM     19  C   UNL     1       2.210   7.658  18.334  0.00  0.00    +0.000 C 
BRANCH  18  24
ATOM     20  C   UNL     1      -0.923  11.371  18.110  0.00  0.00    +0.000 A 
ATOM     21  C   UNL     1      -0.838  12.009  19.349  0.00  0.00    +0.000 A 
ATOM     22  C   UNL     1       0.034  11.521  20.325  0.00  0.00    +0.000 A 
ATOM     23  C   UNL     1       0.814  10.399  20.060  0.00  0.00    +0.000 A 
ATOM     24  C   UNL     1       0.721   9.765  18.819  0.00  0.00    +0.000 A 
ATOM     25  C   UNL     1      -0.155  10.243  17.844  0.00  0.00    +0.000 A 
BRANCH  20  26
ATOM     26  N   UNL     1      -1.855  11.831  17.131  0.00  0.00    +0.000 N 
ATOM     27  H   UNL     1      -2.174  12.794  17.261  0.00  0.00    +0.000 HD
BRANCH  26  29
ATOM     28  C   UNL     1      -2.908  10.289  15.193  0.00  0.00    +0.000 C 
ATOM     29  S   UNL     1      -3.212  10.852  16.854  0.00  0.00    +0.000 S 
ATOM     30  O   UNL     1      -4.337  11.763  16.807  0.00  0.00    +0.000 OA
ATOM     31  O   UNL     1      -3.202   9.718  17.748  0.00  0.00    +0.000 OA
ENDBRANCH  26  29
ENDBRANCH  20  26
ENDBRANCH  18  24
ENDBRANCH   1  19
TORSDOF 6
ENDMDL
MODEL 9
REMARK VINA RESULT:      -7.7      5.989      6.708
REMARK  Name = 
REMARK  7 active torsions:
REMARK  status: ('A' for Active; 'I' for Inactive)
REMARK    1  A    between atoms: C_1  and  S_2
REMARK    2  A    between atoms: S_2  and  N_5
REMARK    3  A    between atoms: N_5  and  C_6
REMARK    4  A    between atoms: C_10  and  C_11
REMARK    5  A    between atoms: C_12  and  C_13
REMARK    6  A    between atoms: C_15  and  C_16
REMARK    7  A    between atoms: C_19  and  N_20
REMARK                            x       y       z     vdW  Elec       q    Type
REMARK                         _______ _______ _______ _____ _____    ______ ____
ROOT
ATOM      1  C   UNL     1       3.380   6.873  18.259  0.00  0.00    +0.000 A 
ATOM      2  C   UNL     1       4.333   6.692  17.291  0.00  0.00    +0.000 A 
ATOM      3  C   UNL     1       5.121   5.501  17.491  0.00  0.00    +0.000 A 
ATOM      4  C   UNL     1       4.694   4.821  18.630  0.00  0.00    +0.000 A 
ATOM      5  S   UNL     1       3.437   5.657  19.430  0.00  0.00    +0.000 S 
ENDROOT
BRANCH   4   6
ATOM      6  N   UNL     1       5.171   3.625  19.161  0.00  0.00    +0.000 N 
ATOM      7  C   UNL     1       4.397   2.520  19.458  0.00  0.00    +0.000 C 
ATOM      8  N   UNL     1       5.123   1.475  19.941  0.00  0.00    +0.000 N 
ATOM      9  O   UNL     1       3.195   2.361  19.307  0.00  0.00    +0.000 OA
ATOM     10  H   UNL     1       6.177   3.509  19.176  0.00  0.00    +0.000 HD
ATOM     11  H   UNL     1       6.009   1.608  20.401  0.00  0.00    +0.000 HD
ATOM     12  H   UNL     1       4.548   0.706  20.266  0.00  0.00    +0.000 HD
ENDBRANCH   4   6
BRANCH   3  13
ATOM     13  C   UNL     1       6.208   5.080  16.616  0.00  0.00    +0.000 C 
ATOM     14  N   UNL     1       7.095   6.072  16.281  0.00  0.00    +0.000 N 
ATOM     15  O   UNL     1       6.339   3.937  16.195  0.00  0.00    +0.000 OA
ATOM     16  H   UNL     1       6.891   7.052  16.425  0.00  0.00    +0.000 HD
ATOM     17  H   UNL     1       7.855   5.838  15.658  0.00  0.00    +0.000 HD
ENDBRANCH   3  13
BRANCH   1  19
ATOM     18  C   UNL     1       1.710   8.883  18.354  0.00  0.00    +0.000 C 
ATOM     19  C   UNL     1       2.478   7.963  18.300  0.00  0.00    +0.000 C 
BRANCH  18  24
ATOM     20  C   UNL     1       0.235  12.191  19.156  0.00  0.00    +0.000 A 
ATOM     21  C   UNL     1      -1.030  12.070  18.578  0.00  0.00    +0.000 A 
ATOM     22  C   UNL     1      -1.385  10.888  17.922  0.00  0.00    +0.000 A 
ATOM     23  C   UNL     1      -0.475   9.837  17.847  0.00  0.00    +0.000 A 
ATOM     24  C   UNL     1       0.790   9.968  18.426  0.00  0.00    +0.000 A 
ATOM     25  C   UNL     1       1.152  11.150  19.073  0.00  0.00    +0.000 A 
BRANCH  20  26
ATOM     26  N   UNL     1       0.623  13.418  19.776  0.00  0.00    +0.000 N 
ATOM     27  H   UNL     1       1.556  13.751  19.521  0.00  0.00    +0.000 HD
BRANCH  26  29
ATOM     28  C   UNL     1      -0.856  14.677  21.638  0.00  0.00    +0.000 C 
ATOM     29  S   UNL     1       0.468  13.502  21.462  0.00  0.00    +0.000 S 
ATOM     30  O   UNL     1       1.682  14.140  21.926  0.00  0.00    +0.000 OA
ATOM     31  O   UNL     1       0.043  12.226  21.989  0.00  0.00    +0.000 OA
ENDBRANCH  26  29
ENDBRANCH  20  26
ENDBRANCH  18  24
ENDBRANCH   1  19
TORSDOF 6
ENDMDL
