MODEL 1
REMARK VINA RESULT:      -7.4      0.000      0.000
REMARK  Name = 
REMARK  9 active torsions:
REMARK  status: ('A' for Active; 'I' for Inactive)
REMARK    1  A    between atoms: P_2  and  O_3
REMARK    2  A    between atoms: P_2  and  O_4
REMARK    3  A    between atoms: P_2  and  C_5
REMARK    4  A    between atoms: C_5  and  C_6
REMARK    5  A    between atoms: C_5  and  P_15
REMARK    6  A    between atoms: C_6  and  N_7
REMARK    7  A    between atoms: N_7  and  C_8
REMARK    8  A    between atoms: P_15  and  O_17
REMARK    9  A    between atoms: P_15  and  O_18
REMARK                            x       y       z     vdW  Elec       q    Type
REMARK                         _______ _______ _______ _____ _____    ______ ____
ROOT
ATOM      1  C   UNL     1       6.061   6.109  17.382  0.00  0.00    +0.000 C 
ENDROOT
BRANCH   1   3
ATOM      2  O   UNL     1       6.306   4.149  14.641  0.00  0.00    +0.000 OA
ATOM      3  P   UNL     1       6.194   5.047  15.897  0.00  0.00    +0.000 P 
BRANCH   3   4
ATOM      4  O   UNL     1       7.666   5.726  15.608  0.00  0.00    +0.000 OA
ATOM      5  H   UNL     1       7.761   5.792  14.633  0.00  0.00    +0.000 HD
ENDBRANCH   3   4
BRANCH   3   6
ATOM      6  O   UNL     1       5.364   6.187  15.046  0.00  0.00    +0.000 OA
ATOM      7  H   UNL     1       5.872   6.353  14.224  0.00  0.00    +0.000 HD
ENDBRANCH   3   6
ENDBRANCH   1   3
BRANCH   1   8
ATOM      8  P   UNL     1       6.833   4.896  18.554  0.00  0.00    +0.000 P 
ATOM      9  O   UNL     1       7.232   5.471  19.878  0.00  0.00    +0.000 OA
BRANCH   8  10
ATOM     10  O   UNL     1       5.783   3.685  18.681  0.00  0.00    +0.000 OA
ATOM     11  H   UNL     1       5.329   3.615  19.543  0.00  0.00    +0.000 HD
ENDBRANCH   8  10
BRANCH   8  12
ATOM     12  O   UNL     1       8.030   4.089  17.874  0.00  0.00    +0.000 OA
ATOM     13  H   UNL     1       8.046   4.288  16.917  0.00  0.00    +0.000 HD
ENDBRANCH   8  12
ENDBRANCH   1   8
BRANCH   1  14
ATOM     14  C   UNL     1       4.624   6.465  17.717  0.00  0.00    +0.000 C 
BRANCH  14  15
ATOM     15  N   UNL     1       3.702   5.357  17.434  0.00  0.00    +0.000 NA
ATOM     16  H   UNL     1       4.140   4.461  17.651  0.00  0.00    +0.000 HD
BRANCH  15  17
ATOM     17  C   UNL     1       2.428   5.455  18.180  0.00  0.00    +0.000 C 
ATOM     18  C   UNL     1       1.476   4.354  17.678  0.00  0.00    +0.000 C 
ATOM     19  C   UNL     1       1.702   2.968  18.285  0.00  0.00    +0.000 C 
ATOM     20  C   UNL     1       0.903   2.748  19.569  0.00  0.00    +0.000 C 
ATOM     21  C   UNL     1       1.361   3.554  20.781  0.00  0.00    +0.000 C 
ATOM     22  C   UNL     1       1.477   5.060  20.564  0.00  0.00    +0.000 C 
ATOM     23  C   UNL     1       2.678   5.433  19.700  0.00  0.00    +0.000 C 
ENDBRANCH  15  17
ENDBRANCH  14  15
ENDBRANCH   1  14
TORSDOF 9
ENDMDL
MODEL 2
REMARK VINA RESULT:      -7.3      0.199      1.030
REMARK  Name = 
REMARK  9 active torsions:
REMARK  status: ('A' for Active; 'I' for Inactive)
REMARK    1  A    between atoms: P_2  and  O_3
REMARK    2  A    between atoms: P_2  and  O_4
REMARK    3  A    between atoms: P_2  and  C_5
REMARK    4  A    between atoms: C_5  and  C_6
REMARK    5  A    between atoms: C_5  and  P_15
REMARK    6  A    between atoms: C_6  and  N_7
REMARK    7  A    between atoms: N_7  and  C_8
REMARK    8  A    between atoms: P_15  and  O_17
REMARK    9  A    between atoms: P_15  and  O_18
REMARK                            x       y       z     vdW  Elec       q    Type
REMARK                         _______ _______ _______ _____ _____    ______ ____
ROOT
ATOM      1  C   UNL     1       6.195   6.035  17.202  0.00  0.00    +0.000 C 
ENDROOT
BRANCH   1   3
ATOM      2  O   UNL     1       6.295   4.166  14.389  0.00  0.00    +0.000 OA
ATOM      3  P   UNL     1       6.249   5.022  15.678  0.00  0.00    +0.000 P 
BRANCH   3   4
ATOM      4  O   UNL     1       7.703   5.714  15.332  0.00  0.00    +0.000 OA
ATOM      5  H   UNL     1       8.390   5.158  15.760  0.00  0.00    +0.000 HD
ENDBRANCH   3   4
BRANCH   3   6
ATOM      6  O   UNL     1       5.375   6.187  14.910  0.00  0.00    +0.000 OA
ATOM      7  H   UNL     1       5.977   6.618  14.267  0.00  0.00    +0.000 HD
ENDBRANCH   3   6
ENDBRANCH   1   3
BRANCH   1   8
ATOM      8  P   UNL     1       6.972   4.763  18.304  0.00  0.00    +0.000 P 
ATOM      9  O   UNL     1       8.255   4.187  17.789  0.00  0.00    +0.000 OA
BRANCH   8  10
ATOM     10  O   UNL     1       7.128   5.468  19.740  0.00  0.00    +0.000 OA
ATOM     11  H   UNL     1       6.365   6.008  20.026  0.00  0.00    +0.000 HD
ENDBRANCH   8  10
BRANCH   8  12
ATOM     12  O   UNL     1       5.937   3.623  18.722  0.00  0.00    +0.000 OA
ATOM     13  H   UNL     1       5.028   3.975  18.650  0.00  0.00    +0.000 HD
ENDBRANCH   8  12
ENDBRANCH   1   8
BRANCH   1  14
ATOM     14  C   UNL     1       4.781   6.417  17.597  0.00  0.00    +0.000 C 
BRANCH  14  15
ATOM     15  N   UNL     1       3.848   5.290  17.463  0.00  0.00    +0.000 NA
ATOM     16  H   UNL     1       4.289   4.421  17.767  0.00  0.00    +0.000 HD
BRANCH  15  17
ATOM     17  C   UNL     1       2.594   5.478  18.225  0.00  0.00    +0.000 C 
ATOM     18  C   UNL     1       1.551   4.466  17.718  0.00  0.00    +0.000 C 
ATOM     19  C   UNL     1       1.670   3.056  18.300  0.00  0.00    +0.000 C 
ATOM     20  C   UNL     1       0.870   2.881  19.590  0.00  0.00    +0.000 C 
ATOM     21  C   UNL     1       1.405   3.626  20.809  0.00  0.00    +0.000 C 
ATOM     22  C   UNL     1       1.640   5.122  20.614  0.00  0.00    +0.000 C 
ATOM     23  C   UNL     1       2.858   5.411  19.743  0.00  0.00    +0.000 C 
ENDBRANCH  15  17
ENDBRANCH  14  15
ENDBRANCH   1  14
TORSDOF 9
ENDMDL
MODEL 3
REMARK VINA RESULT:      -7.2      0.791      1.032
REMARK  Name = 
REMARK  9 active torsions:
REMARK  status: ('A' for Active; 'I' for Inactive)
REMARK    1  A    between atoms: P_2  and  O_3
REMARK    2  A    between atoms: P_2  and  O_4
REMARK    3  A    between atoms: P_2  and  C_5
REMARK    4  A    between atoms: C_5  and  C_6
REMARK    5  A    between atoms: C_5  and  P_15
REMARK    6  A    between atoms: C_6  and  N_7
REMARK    7  A    between atoms: N_7  and  C_8
REMARK    8  A    between atoms: P_15  and  O_17
REMARK    9  A    between atoms: P_15  and  O_18
REMARK                            x       y       z     vdW  Elec       q    Type
REMARK                         _______ _______ _______ _____ _____    ______ ____
ROOT
ATOM      1  C   UNL     1       6.077   6.052  17.341  0.00  0.00    +0.000 C 
ENDROOT
BRANCH   1   3
ATOM      2  O   UNL     1       6.726   4.351  14.496  0.00  0.00    +0.000 OA
ATOM      3  P   UNL     1       6.429   5.130  15.799  0.00  0.00    +0.000 P 
BRANCH   3   4
ATOM      4  O   UNL     1       5.634   6.312  14.973  0.00  0.00    +0.000 OA
ATOM      5  H   UNL     1       6.150   6.483  14.156  0.00  0.00    +0.000 HD
ENDBRANCH   3   4
BRANCH   3   6
ATOM      6  O   UNL     1       5.074   4.233  16.063  0.00  0.00    +0.000 OA
ATOM      7  H   UNL     1       5.370   3.365  16.408  0.00  0.00    +0.000 HD
ENDBRANCH   3   6
ENDBRANCH   1   3
BRANCH   1   8
ATOM      8  P   UNL     1       6.926   4.858  18.477  0.00  0.00    +0.000 P 
ATOM      9  O   UNL     1       7.289   5.418  19.817  0.00  0.00    +0.000 OA
BRANCH   8  10
ATOM     10  O   UNL     1       5.957   3.579  18.567  0.00  0.00    +0.000 OA
ATOM     11  H   UNL     1       6.391   2.743  18.827  0.00  0.00    +0.000 HD
ENDBRANCH   8  10
BRANCH   8  12
ATOM     12  O   UNL     1       8.172   4.150  17.774  0.00  0.00    +0.000 OA
ATOM     13  H   UNL     1       8.436   4.672  16.991  0.00  0.00    +0.000 HD
ENDBRANCH   8  12
ENDBRANCH   1   8
BRANCH   1  14
ATOM     14  C   UNL     1       4.589   6.204  17.601  0.00  0.00    +0.000 C 
BRANCH  14  15
ATOM     15  N   UNL     1       4.214   5.736  18.942  0.00  0.00    +0.000 NA
ATOM     16  H   UNL     1       4.581   6.365  19.657  0.00  0.00    +0.000 HD
BRANCH  15  17
ATOM     17  C   UNL     1       2.752   5.609  19.127  0.00  0.00    +0.000 C 
ATOM     18  C   UNL     1       2.160   4.895  17.899  0.00  0.00    +0.000 C 
ATOM     19  C   UNL     1       2.274   3.369  17.911  0.00  0.00    +0.000 C 
ATOM     20  C   UNL     1       1.082   2.693  18.588  0.00  0.00    +0.000 C 
ATOM     21  C   UNL     1       0.983   2.880  20.098  0.00  0.00    +0.000 C 
ATOM     22  C   UNL     1       1.030   4.326  20.586  0.00  0.00    +0.000 C 
ATOM     23  C   UNL     1       2.424   4.934  20.473  0.00  0.00    +0.000 C 
ENDBRANCH  15  17
ENDBRANCH  14  15
ENDBRANCH   1  14
TORSDOF 9
ENDMDL
MODEL 4
REMARK VINA RESULT:      -7.1      0.873      1.431
REMARK  Name = 
REMARK  9 active torsions:
REMARK  status: ('A' for Active; 'I' for Inactive)
REMARK    1  A    between atoms: P_2  and  O_3
REMARK    2  A    between atoms: P_2  and  O_4
REMARK    3  A    between atoms: P_2  and  C_5
REMARK    4  A    between atoms: C_5  and  C_6
REMARK    5  A    between atoms: C_5  and  P_15
REMARK    6  A    between atoms: C_6  and  N_7
REMARK    7  A    between atoms: N_7  and  C_8
REMARK    8  A    between atoms: P_15  and  O_17
REMARK    9  A    between atoms: P_15  and  O_18
REMARK                            x       y       z     vdW  Elec       q    Type
REMARK                         _______ _______ _______ _____ _____    ______ ____
ROOT
ATOM      1  C   UNL     1       5.906   6.148  17.890  0.00  0.00    +0.000 C 
ENDROOT
BRANCH   1   3
ATOM      2  O   UNL     1       6.635   4.903  14.836  0.00  0.00    +0.000 OA
ATOM      3  P   UNL     1       6.300   5.473  16.235  0.00  0.00    +0.000 P 
BRANCH   3   4
ATOM      4  O   UNL     1       7.622   6.455  16.207  0.00  0.00    +0.000 OA
ATOM      5  H   UNL     1       8.288   6.018  15.635  0.00  0.00    +0.000 HD
ENDBRANCH   3   4
BRANCH   3   6
ATOM      6  O   UNL     1       5.298   6.598  15.571  0.00  0.00    +0.000 OA
ATOM      7  H   UNL     1       5.483   7.447  16.026  0.00  0.00    +0.000 HD
ENDBRANCH   3   6
ENDBRANCH   1   3
BRANCH   1   8
ATOM      8  P   UNL     1       7.483   5.604  18.699  0.00  0.00    +0.000 P 
ATOM      9  O   UNL     1       8.189   4.481  18.004  0.00  0.00    +0.000 OA
BRANCH   8  10
ATOM     10  O   UNL     1       8.383   6.930  18.833  0.00  0.00    +0.000 OA
ATOM     11  H   UNL     1       8.372   7.523  18.056  0.00  0.00    +0.000 HD
ENDBRANCH   8  10
BRANCH   8  12
ATOM     12  O   UNL     1       7.284   5.307  20.254  0.00  0.00    +0.000 OA
ATOM     13  H   UNL     1       8.159   5.203  20.675  0.00  0.00    +0.000 HD
ENDBRANCH   8  12
ENDBRANCH   1   8
BRANCH   1  14
ATOM     14  C   UNL     1       4.657   5.528  18.489  0.00  0.00    +0.000 C 
BRANCH  14  15
ATOM     15  N   UNL     1       3.491   5.675  17.607  0.00  0.00    +0.000 NA
ATOM     16  H   UNL     1       3.557   5.035  16.815  0.00  0.00    +0.000 HD
BRANCH  15  17
ATOM     17  C   UNL     1       2.205   5.443  18.300  0.00  0.00    +0.000 C 
ATOM     18  C   UNL     1       1.483   4.266  17.619  0.00  0.00    +0.000 C 
ATOM     19  C   UNL     1       1.946   2.874  18.053  0.00  0.00    +0.000 C 
ATOM     20  C   UNL     1       1.173   2.345  19.261  0.00  0.00    +0.000 C 
ATOM     21  C   UNL     1       1.448   3.051  20.586  0.00  0.00    +0.000 C 
ATOM     22  C   UNL     1       1.290   4.569  20.567  0.00  0.00    +0.000 C 
ATOM     23  C   UNL     1       2.421   5.263  19.815  0.00  0.00    +0.000 C 
ENDBRANCH  15  17
ENDBRANCH  14  15
ENDBRANCH   1  14
TORSDOF 9
ENDMDL
MODEL 5
REMARK VINA RESULT:      -7.1      1.317      1.921
REMARK  Name = 
REMARK  9 active torsions:
REMARK  status: ('A' for Active; 'I' for Inactive)
REMARK    1  A    between atoms: P_2  and  O_3
REMARK    2  A    between atoms: P_2  and  O_4
REMARK    3  A    between atoms: P_2  and  C_5
REMARK    4  A    between atoms: C_5  and  C_6
REMARK    5  A    between atoms: C_5  and  P_15
REMARK    6  A    between atoms: C_6  and  N_7
REMARK    7  A    between atoms: N_7  and  C_8
REMARK    8  A    between atoms: P_15  and  O_17
REMARK    9  A    between atoms: P_15  and  O_18
REMARK                            x       y       z     vdW  Elec       q    Type
REMARK                         _______ _______ _______ _____ _____    ______ ____
ROOT
ATOM      1  C   UNL     1       5.777   5.900  17.536  0.00  0.00    +0.000 C 
ENDROOT
BRANCH   1   3
ATOM      2  O   UNL     1       7.114   4.702  14.674  0.00  0.00    +0.000 OA
ATOM      3  P   UNL     1       6.501   5.251  15.985  0.00  0.00    +0.000 P 
BRANCH   3   4
ATOM      4  O   UNL     1       7.650   6.426  16.092  0.00  0.00    +0.000 OA
ATOM      5  H   UNL     1       7.229   7.262  15.797  0.00  0.00    +0.000 HD
ENDBRANCH   3   4
BRANCH   3   6
ATOM      6  O   UNL     1       5.447   6.188  15.137  0.00  0.00    +0.000 OA
ATOM      7  H   UNL     1       5.687   6.101  14.190  0.00  0.00    +0.000 HD
ENDBRANCH   3   6
ENDBRANCH   1   3
BRANCH   1   8
ATOM      8  P   UNL     1       7.295   5.654  18.573  0.00  0.00    +0.000 P 
ATOM      9  O   UNL     1       8.166   6.865  18.704  0.00  0.00    +0.000 OA
BRANCH   8  10
ATOM     10  O   UNL     1       6.770   5.097  19.987  0.00  0.00    +0.000 OA
ATOM     11  H   UNL     1       7.247   5.433  20.771  0.00  0.00    +0.000 HD
ENDBRANCH   8  10
BRANCH   8  12
ATOM     12  O   UNL     1       8.127   4.371  18.118  0.00  0.00    +0.000 OA
ATOM     13  H   UNL     1       8.873   4.657  17.555  0.00  0.00    +0.000 HD
ENDBRANCH   8  12
ENDBRANCH   1   8
BRANCH   1  14
ATOM     14  C   UNL     1       4.575   5.097  17.997  0.00  0.00    +0.000 C 
BRANCH  14  15
ATOM     15  N   UNL     1       4.857   3.656  18.039  0.00  0.00    +0.000 NA
ATOM     16  H   UNL     1       5.464   3.432  18.828  0.00  0.00    +0.000 HD
BRANCH  15  17
ATOM     17  C   UNL     1       3.636   2.826  18.127  0.00  0.00    +0.000 C 
ATOM     18  C   UNL     1       3.685   2.013  19.433  0.00  0.00    +0.000 C 
ATOM     19  C   UNL     1       3.242   2.765  20.689  0.00  0.00    +0.000 C 
ATOM     20  C   UNL     1       1.740   2.649  20.948  0.00  0.00    +0.000 C 
ATOM     21  C   UNL     1       0.838   3.389  19.964  0.00  0.00    +0.000 C 
ATOM     22  C   UNL     1       1.077   3.076  18.490  0.00  0.00    +0.000 C 
ATOM     23  C   UNL     1       2.370   3.691  17.966  0.00  0.00    +0.000 C 
ENDBRANCH  15  17
ENDBRANCH  14  15
ENDBRANCH   1  14
TORSDOF 9
ENDMDL
MODEL 6
REMARK VINA RESULT:      -7.1      0.886      2.794
REMARK  Name = 
REMARK  9 active torsions:
REMARK  status: ('A' for Active; 'I' for Inactive)
REMARK    1  A    between atoms: P_2  and  O_3
REMARK    2  A    between atoms: P_2  and  O_4
REMARK    3  A    between atoms: P_2  and  C_5
REMARK    4  A    between atoms: C_5  and  C_6
REMARK    5  A    between atoms: C_5  and  P_15
REMARK    6  A    between atoms: C_6  and  N_7
REMARK    7  A    between atoms: N_7  and  C_8
REMARK    8  A    between atoms: P_15  and  O_17
REMARK    9  A    between atoms: P_15  and  O_18
REMARK                            x       y       z     vdW  Elec       q    Type
REMARK                         _______ _______ _______ _____ _____    ______ ____
ROOT
ATOM      1  C   UNL     1       5.452   4.740  17.182  0.00  0.00    +0.000 C 
ENDROOT
BRANCH   1   3
ATOM      2  O   UNL     1       7.279   5.350  19.957  0.00  0.00    +0.000 OA
ATOM      3  P   UNL     1       6.441   5.071  18.686  0.00  0.00    +0.000 P 
BRANCH   3   4
ATOM      4  O   UNL     1       7.666   4.204  18.007  0.00  0.00    +0.000 OA
ATOM      5  H   UNL     1       7.748   4.508  17.078  0.00  0.00    +0.000 HD
ENDBRANCH   3   4
BRANCH   3   6
ATOM      6  O   UNL     1       5.743   3.760  19.396  0.00  0.00    +0.000 OA
ATOM      7  H   UNL     1       6.416   3.365  19.989  0.00  0.00    +0.000 HD
ENDBRANCH   3   6
ENDBRANCH   1   3
BRANCH   1   8
ATOM      8  P   UNL     1       6.652   5.504  15.992  0.00  0.00    +0.000 P 
ATOM      9  O   UNL     1       7.552   4.528  15.297  0.00  0.00    +0.000 OA
BRANCH   8  10
ATOM     10  O   UNL     1       5.763   6.378  14.977  0.00  0.00    +0.000 OA
ATOM     11  H   UNL     1       6.089   6.410  14.056  0.00  0.00    +0.000 HD
ENDBRANCH   8  10
BRANCH   8  12
ATOM     12  O   UNL     1       7.476   6.697  16.659  0.00  0.00    +0.000 OA
ATOM     13  H   UNL     1       7.413   6.624  17.631  0.00  0.00    +0.000 HD
ENDBRANCH   8  12
ENDBRANCH   1   8
BRANCH   1  14
ATOM     14  C   UNL     1       4.096   5.421  17.216  0.00  0.00    +0.000 C 
BRANCH  14  15
ATOM     15  N   UNL     1       3.711   5.814  18.578  0.00  0.00    +0.000 NA
ATOM     16  H   UNL     1       3.837   6.817  18.711  0.00  0.00    +0.000 HD
BRANCH  15  17
ATOM     17  C   UNL     1       2.313   5.462  18.911  0.00  0.00    +0.000 C 
ATOM     18  C   UNL     1       1.770   4.515  17.826  0.00  0.00    +0.000 C 
ATOM     19  C   UNL     1       2.158   3.044  17.985  0.00  0.00    +0.000 C 
ATOM     20  C   UNL     1       1.161   2.260  18.838  0.00  0.00    +0.000 C 
ATOM     21  C   UNL     1       1.143   2.606  20.324  0.00  0.00    +0.000 C 
ATOM     22  C   UNL     1       0.964   4.086  20.652  0.00  0.00    +0.000 C 
ATOM     23  C   UNL     1       2.213   4.906  20.345  0.00  0.00    +0.000 C 
ENDBRANCH  15  17
ENDBRANCH  14  15
ENDBRANCH   1  14
TORSDOF 9
ENDMDL
MODEL 7
REMARK VINA RESULT:      -7.0      1.499      2.406
REMARK  Name = 
REMARK  9 active torsions:
REMARK  status: ('A' for Active; 'I' for Inactive)
REMARK    1  A    between atoms: P_2  and  O_3
REMARK    2  A    between atoms: P_2  and  O_4
REMARK    3  A    between atoms: P_2  and  C_5
REMARK    4  A    between atoms: C_5  and  C_6
REMARK    5  A    between atoms: C_5  and  P_15
REMARK    6  A    between atoms: C_6  and  N_7
REMARK    7  A    between atoms: N_7  and  C_8
REMARK    8  A    between atoms: P_15  and  O_17
REMARK    9  A    between atoms: P_15  and  O_18
REMARK                            x       y       z     vdW  Elec       q    Type
REMARK                         _______ _______ _______ _____ _____    ______ ____
ROOT
ATOM      1  C   UNL     1       5.841   5.716  17.724  0.00  0.00    +0.000 C 
ENDROOT
BRANCH   1   3
ATOM      2  O   UNL     1       6.869   4.391  14.791  0.00  0.00    +0.000 OA
ATOM      3  P   UNL     1       6.398   4.998  16.135  0.00  0.00    +0.000 P 
BRANCH   3   4
ATOM      4  O   UNL     1       7.498   6.219  16.029  0.00  0.00    +0.000 OA
ATOM      5  H   UNL     1       7.035   6.983  15.623  0.00  0.00    +0.000 HD
ENDBRANCH   3   4
BRANCH   3   6
ATOM      6  O   UNL     1       5.206   5.840  15.373  0.00  0.00    +0.000 OA
ATOM      7  H   UNL     1       4.621   6.200  16.072  0.00  0.00    +0.000 HD
ENDBRANCH   3   6
ENDBRANCH   1   3
BRANCH   1   8
ATOM      8  P   UNL     1       7.459   5.506  18.606  0.00  0.00    +0.000 P 
ATOM      9  O   UNL     1       8.322   4.402  18.077  0.00  0.00    +0.000 OA
BRANCH   8  10
ATOM     10  O   UNL     1       8.173   6.946  18.554  0.00  0.00    +0.000 OA
ATOM     11  H   UNL     1       8.979   6.993  18.005  0.00  0.00    +0.000 HD
ENDBRANCH   8  10
BRANCH   8  12
ATOM     12  O   UNL     1       7.268   5.403  20.187  0.00  0.00    +0.000 OA
ATOM     13  H   UNL     1       6.495   4.838  20.379  0.00  0.00    +0.000 HD
ENDBRANCH   8  12
ENDBRANCH   1   8
BRANCH   1  14
ATOM     14  C   UNL     1       4.694   4.939  18.343  0.00  0.00    +0.000 C 
BRANCH  14  15
ATOM     15  N   UNL     1       5.149   3.694  18.977  0.00  0.00    +0.000 NA
ATOM     16  H   UNL     1       5.472   3.873  19.928  0.00  0.00    +0.000 HD
BRANCH  15  17
ATOM     17  C   UNL     1       4.104   2.647  19.019  0.00  0.00    +0.000 C 
ATOM     18  C   UNL     1       3.740   2.373  20.489  0.00  0.00    +0.000 C 
ATOM     19  C   UNL     1       2.751   3.359  21.114  0.00  0.00    +0.000 C 
ATOM     20  C   UNL     1       1.295   2.937  20.917  0.00  0.00    +0.000 C 
ATOM     21  C   UNL     1       0.765   3.026  19.490  0.00  0.00    +0.000 C 
ATOM     22  C   UNL     1       1.598   2.306  18.433  0.00  0.00    +0.000 C 
ATOM     23  C   UNL     1       2.905   3.030  18.129  0.00  0.00    +0.000 C 
ENDBRANCH  15  17
ENDBRANCH  14  15
ENDBRANCH   1  14
TORSDOF 9
ENDMDL
MODEL 8
REMARK VINA RESULT:      -7.0      1.027      2.871
REMARK  Name = 
REMARK  9 active torsions:
REMARK  status: ('A' for Active; 'I' for Inactive)
REMARK    1  A    between atoms: P_2  and  O_3
REMARK    2  A    between atoms: P_2  and  O_4
REMARK    3  A    between atoms: P_2  and  C_5
REMARK    4  A    between atoms: C_5  and  C_6
REMARK    5  A    between atoms: C_5  and  P_15
REMARK    6  A    between atoms: C_6  and  N_7
REMARK    7  A    between atoms: N_7  and  C_8
REMARK    8  A    between atoms: P_15  and  O_17
REMARK    9  A    between atoms: P_15  and  O_18
REMARK                            x       y       z     vdW  Elec       q    Type
REMARK                         _______ _______ _______ _____ _____    ______ ____
ROOT
ATOM      1  C   UNL     1       5.453   4.548  17.018  0.00  0.00    +0.000 C 
ENDROOT
BRANCH   1   3
ATOM      2  O   UNL     1       7.220   5.279  19.802  0.00  0.00    +0.000 OA
ATOM      3  P   UNL     1       6.410   4.945  18.526  0.00  0.00    +0.000 P 
BRANCH   3   4
ATOM      4  O   UNL     1       7.633   4.015  17.932  0.00  0.00    +0.000 OA
ATOM      5  H   UNL     1       8.453   4.550  17.995  0.00  0.00    +0.000 HD
ENDBRANCH   3   4
BRANCH   3   6
ATOM      6  O   UNL     1       5.665   3.691  19.291  0.00  0.00    +0.000 OA
ATOM      7  H   UNL     1       6.324   2.969  19.361  0.00  0.00    +0.000 HD
ENDBRANCH   3   6
ENDBRANCH   1   3
BRANCH   1   8
ATOM      8  P   UNL     1       6.476   5.580  15.865  0.00  0.00    +0.000 P 
ATOM      9  O   UNL     1       5.687   6.400  14.892  0.00  0.00    +0.000 OA
BRANCH   8  10
ATOM     10  O   UNL     1       7.433   6.464  16.807  0.00  0.00    +0.000 OA
ATOM     11  H   UNL     1       7.554   7.392  16.526  0.00  0.00    +0.000 HD
ENDBRANCH   8  10
BRANCH   8  12
ATOM     12  O   UNL     1       7.605   4.719  15.137  0.00  0.00    +0.000 OA
ATOM     13  H   UNL     1       7.181   3.994  14.638  0.00  0.00    +0.000 HD
ENDBRANCH   8  12
ENDBRANCH   1   8
BRANCH   1  14
ATOM     14  C   UNL     1       4.003   4.984  17.117  0.00  0.00    +0.000 C 
BRANCH  14  15
ATOM     15  N   UNL     1       3.089   3.839  17.227  0.00  0.00    +0.000 NA
ATOM     16  H   UNL     1       3.593   3.006  17.534  0.00  0.00    +0.000 HD
BRANCH  15  17
ATOM     17  C   UNL     1       1.962   4.081  18.154  0.00  0.00    +0.000 C 
ATOM     18  C   UNL     1       1.401   2.723  18.613  0.00  0.00    +0.000 C 
ATOM     19  C   UNL     1       2.168   2.049  19.752  0.00  0.00    +0.000 C 
ATOM     20  C   UNL     1       1.658   2.463  21.133  0.00  0.00    +0.000 C 
ATOM     21  C   UNL     1       1.950   3.903  21.543  0.00  0.00    +0.000 C 
ATOM     22  C   UNL     1       1.506   4.972  20.550  0.00  0.00    +0.000 C 
ATOM     23  C   UNL     1       2.387   5.013  19.305  0.00  0.00    +0.000 C 
ENDBRANCH  15  17
ENDBRANCH  14  15
ENDBRANCH   1  14
TORSDOF 9
ENDMDL
MODEL 9
REMARK VINA RESULT:      -7.0      1.001      2.831
REMARK  Name = 
REMARK  9 active torsions:
REMARK  status: ('A' for Active; 'I' for Inactive)
REMARK    1  A    between atoms: P_2  and  O_3
REMARK    2  A    between atoms: P_2  and  O_4
REMARK    3  A    between atoms: P_2  and  C_5
REMARK    4  A    between atoms: C_5  and  C_6
REMARK    5  A    between atoms: C_5  and  P_15
REMARK    6  A    between atoms: C_6  and  N_7
REMARK    7  A    between atoms: N_7  and  C_8
REMARK    8  A    between atoms: P_15  and  O_17
REMARK    9  A    between atoms: P_15  and  O_18
REMARK                            x       y       z     vdW  Elec       q    Type
REMARK                         _______ _______ _______ _____ _____    ______ ____
ROOT
ATOM      1  C   UNL     1       5.499   4.605  17.098  0.00  0.00    +0.000 C 
ENDROOT
BRANCH   1   3
ATOM      2  O   UNL     1       7.126   5.330  19.969  0.00  0.00    +0.000 OA
ATOM      3  P   UNL     1       6.380   4.998  18.654  0.00  0.00    +0.000 P 
BRANCH   3   4
ATOM      4  O   UNL     1       7.684   4.189  18.058  0.00  0.00    +0.000 OA
ATOM      5  H   UNL     1       8.199   3.871  18.830  0.00  0.00    +0.000 HD
ENDBRANCH   3   4
BRANCH   3   6
ATOM      6  O   UNL     1       5.707   3.659  19.336  0.00  0.00    +0.000 OA
ATOM      7  H   UNL     1       4.757   3.857  19.472  0.00  0.00    +0.000 HD
ENDBRANCH   3   6
ENDBRANCH   1   3
BRANCH   1   8
ATOM      8  P   UNL     1       6.606   5.603  15.994  0.00  0.00    +0.000 P 
ATOM      9  O   UNL     1       7.458   6.609  16.706  0.00  0.00    +0.000 OA
BRANCH   8  10
ATOM     10  O   UNL     1       7.459   4.533  15.152  0.00  0.00    +0.000 OA
ATOM     11  H   UNL     1       7.051   3.650  15.063  0.00  0.00    +0.000 HD
ENDBRANCH   8  10
BRANCH   8  12
ATOM     12  O   UNL     1       5.803   6.260  14.781  0.00  0.00    +0.000 OA
ATOM     13  H   UNL     1       5.134   5.625  14.460  0.00  0.00    +0.000 HD
ENDBRANCH   8  12
ENDBRANCH   1   8
BRANCH   1  14
ATOM     14  C   UNL     1       4.055   5.073  17.113  0.00  0.00    +0.000 C 
BRANCH  14  15
ATOM     15  N   UNL     1       3.115   3.953  17.256  0.00  0.00    +0.000 NA
ATOM     16  H   UNL     1       3.602   3.113  17.571  0.00  0.00    +0.000 HD
BRANCH  15  17
ATOM     17  C   UNL     1       2.006   4.239  18.193  0.00  0.00    +0.000 C 
ATOM     18  C   UNL     1       1.333   2.911  18.582  0.00  0.00    +0.000 C 
ATOM     19  C   UNL     1       2.036   2.119  19.685  0.00  0.00    +0.000 C 
ATOM     20  C   UNL     1       1.556   2.503  21.085  0.00  0.00    +0.000 C 
ATOM     21  C   UNL     1       1.963   3.891  21.568  0.00  0.00    +0.000 C 
ATOM     22  C   UNL     1       1.613   5.043  20.630  0.00  0.00    +0.000 C 
ATOM     23  C   UNL     1       2.501   5.074  19.390  0.00  0.00    +0.000 C 
ENDBRANCH  15  17
ENDBRANCH  14  15
ENDBRANCH   1  14
TORSDOF 9
ENDMDL
