MODEL 1
REMARK VINA RESULT:      -5.8      0.000      0.000
REMARK  Name = 
REMARK  6 active torsions:
REMARK  status: ('A' for Active; 'I' for Inactive)
REMARK    1  A    between atoms: C_1  and  C_2
REMARK    2  A    between atoms: C_2  and  S_3
REMARK    3  A    between atoms: S_3  and  C_4
REMARK    4  A    between atoms: C_4  and  C_5
REMARK    5  A    between atoms: C_5  and  N_6
REMARK    6  A    between atoms: C_7  and  C_9
REMARK                            x       y       z     vdW  Elec       q    Type
REMARK                         _______ _______ _______ _____ _____    ______ ____
ROOT
ATOM      1  N   UNL     1       4.449   2.882  17.676  0.00  0.00    +0.000 N 
ATOM      2  C   UNL     1       4.946   4.154  17.473  0.00  0.00    +0.000 C 
ATOM      3  O   UNL     1       4.765   5.083  18.251  0.00  0.00    +0.000 OA
ATOM      4  H   UNL     1       4.911   2.108  17.207  0.00  0.00    +0.000 HD
ENDROOT
BRANCH   2   5
ATOM      5  C   UNL     1       5.755   4.363  16.253  0.00  0.00    +0.000 A 
ATOM      6  C   UNL     1       6.821   5.255  16.302  0.00  0.00    +0.000 A 
ATOM      7  N   UNL     1       7.604   5.553  15.235  0.00  0.00    +0.000 NA
ATOM      8  C   UNL     1       7.287   4.950  14.065  0.00  0.00    +0.000 A 
ATOM      9  C   UNL     1       6.233   4.059  13.922  0.00  0.00    +0.000 A 
ATOM     10 BR   UNL     1       5.843   3.293  12.243  0.00  0.00    +0.000 Br
ATOM     11  C   UNL     1       5.453   3.754  15.034  0.00  0.00    +0.000 A 
ENDBRANCH   2   5
BRANCH   1  12
ATOM     12  C   UNL     1       3.760   2.572  18.917  0.00  0.00    +0.000 C 
BRANCH  12  13
ATOM     13  C   UNL     1       2.330   2.075  18.700  0.00  0.00    +0.000 C 
BRANCH  13  14
ATOM     14  S   UNL     1       1.180   2.936  19.830  0.00  0.00    +0.000 S 
BRANCH  14  16
ATOM     15  C   UNL     1       1.871   5.476  20.551  0.00  0.00    +0.000 C 
ATOM     16  C   UNL     1       2.364   4.044  20.652  0.00  0.00    +0.000 C 
ENDBRANCH  14  16
ENDBRANCH  13  14
ENDBRANCH  12  13
ENDBRANCH   1  12
TORSDOF 5
ENDMDL
MODEL 2
REMARK VINA RESULT:      -5.7      2.078      2.871
REMARK  Name = 
REMARK  6 active torsions:
REMARK  status: ('A' for Active; 'I' for Inactive)
REMARK    1  A    between atoms: C_1  and  C_2
REMARK    2  A    between atoms: C_2  and  S_3
REMARK    3  A    between atoms: S_3  and  C_4
REMARK    4  A    between atoms: C_4  and  C_5
REMARK    5  A    between atoms: C_5  and  N_6
REMARK    6  A    between atoms: C_7  and  C_9
REMARK                            x       y       z     vdW  Elec       q    Type
REMARK                         _______ _______ _______ _____ _____    ______ ____
ROOT
ATOM      1  N   UNL     1       3.279   5.168  20.015  0.00  0.00    +0.000 N 
ATOM      2  C   UNL     1       3.425   5.207  18.643  0.00  0.00    +0.000 C 
ATOM      3  O   UNL     1       2.503   5.440  17.871  0.00  0.00    +0.000 OA
ATOM      4  H   UNL     1       4.104   5.321  20.588  0.00  0.00    +0.000 HD
ENDROOT
BRANCH   2   5
ATOM      5  C   UNL     1       4.786   4.972  18.114  0.00  0.00    +0.000 A 
ATOM      6  C   UNL     1       5.850   4.907  19.007  0.00  0.00    +0.000 A 
ATOM      7  N   UNL     1       7.142   4.735  18.631  0.00  0.00    +0.000 NA
ATOM      8  C   UNL     1       7.377   4.652  17.299  0.00  0.00    +0.000 A 
ATOM      9  C   UNL     1       6.379   4.721  16.338  0.00  0.00    +0.000 A 
ATOM     10 BR   UNL     1       6.805   4.630  14.503  0.00  0.00    +0.000 Br
ATOM     11  C   UNL     1       5.059   4.880  16.748  0.00  0.00    +0.000 A 
ENDBRANCH   2   5
BRANCH   1  12
ATOM     12  C   UNL     1       2.001   5.520  20.609  0.00  0.00    +0.000 C 
BRANCH  12  13
ATOM     13  C   UNL     1       1.031   4.340  20.687  0.00  0.00    +0.000 C 
BRANCH  13  14
ATOM     14  S   UNL     1       1.918   2.821  21.185  0.00  0.00    +0.000 S 
BRANCH  14  16
ATOM     15  C   UNL     1       0.808   2.529  18.708  0.00  0.00    +0.000 C 
ATOM     16  C   UNL     1       1.892   1.941  19.594  0.00  0.00    +0.000 C 
ENDBRANCH  14  16
ENDBRANCH  13  14
ENDBRANCH  12  13
ENDBRANCH   1  12
TORSDOF 5
ENDMDL
MODEL 3
REMARK VINA RESULT:      -5.6      1.427      1.603
REMARK  Name = 
REMARK  6 active torsions:
REMARK  status: ('A' for Active; 'I' for Inactive)
REMARK    1  A    between atoms: C_1  and  C_2
REMARK    2  A    between atoms: C_2  and  S_3
REMARK    3  A    between atoms: S_3  and  C_4
REMARK    4  A    between atoms: C_4  and  C_5
REMARK    5  A    between atoms: C_5  and  N_6
REMARK    6  A    between atoms: C_7  and  C_9
REMARK                            x       y       z     vdW  Elec       q    Type
REMARK                         _______ _______ _______ _____ _____    ______ ____
ROOT
ATOM      1  N   UNL     1       4.959   2.891  18.822  0.00  0.00    +0.000 N 
ATOM      2  C   UNL     1       5.585   4.117  18.722  0.00  0.00    +0.000 C 
ATOM      3  O   UNL     1       5.758   4.868  19.674  0.00  0.00    +0.000 OA
ATOM      4  H   UNL     1       5.156   2.193  18.111  0.00  0.00    +0.000 HD
ENDROOT
BRANCH   2   5
ATOM      5  C   UNL     1       6.083   4.500  17.383  0.00  0.00    +0.000 A 
ATOM      6  C   UNL     1       7.001   5.540  17.282  0.00  0.00    +0.000 A 
ATOM      7  N   UNL     1       7.494   6.000  16.105  0.00  0.00    +0.000 NA
ATOM      8  C   UNL     1       7.025   5.408  14.981  0.00  0.00    +0.000 A 
ATOM      9  C   UNL     1       6.098   4.375  14.988  0.00  0.00    +0.000 A 
ATOM     10 BR   UNL     1       5.475   3.633  13.369  0.00  0.00    +0.000 Br
ATOM     11  C   UNL     1       5.620   3.907  16.208  0.00  0.00    +0.000 A 
ENDBRANCH   2   5
BRANCH   1  12
ATOM     12  C   UNL     1       4.564   2.393  20.129  0.00  0.00    +0.000 C 
BRANCH  12  13
ATOM     13  C   UNL     1       3.113   2.722  20.483  0.00  0.00    +0.000 C 
BRANCH  13  14
ATOM     14  S   UNL     1       1.988   2.121  19.173  0.00  0.00    +0.000 S 
BRANCH  14  16
ATOM     15  C   UNL     1       1.843   4.347  17.600  0.00  0.00    +0.000 C 
ATOM     16  C   UNL     1       1.150   3.685  18.778  0.00  0.00    +0.000 C 
ENDBRANCH  14  16
ENDBRANCH  13  14
ENDBRANCH  12  13
ENDBRANCH   1  12
TORSDOF 5
ENDMDL
MODEL 4
REMARK VINA RESULT:      -5.5      1.020      1.109
REMARK  Name = 
REMARK  6 active torsions:
REMARK  status: ('A' for Active; 'I' for Inactive)
REMARK    1  A    between atoms: C_1  and  C_2
REMARK    2  A    between atoms: C_2  and  S_3
REMARK    3  A    between atoms: S_3  and  C_4
REMARK    4  A    between atoms: C_4  and  C_5
REMARK    5  A    between atoms: C_5  and  N_6
REMARK    6  A    between atoms: C_7  and  C_9
REMARK                            x       y       z     vdW  Elec       q    Type
REMARK                         _______ _______ _______ _____ _____    ______ ____
ROOT
ATOM      1  N   UNL     1       4.538   3.202  17.612  0.00  0.00    +0.000 N 
ATOM      2  C   UNL     1       5.483   4.199  17.485  0.00  0.00    +0.000 C 
ATOM      3  O   UNL     1       5.844   4.911  18.415  0.00  0.00    +0.000 OA
ATOM      4  H   UNL     1       4.543   2.448  16.931  0.00  0.00    +0.000 HD
ENDROOT
BRANCH   2   5
ATOM      5  C   UNL     1       6.086   4.375  16.147  0.00  0.00    +0.000 A 
ATOM      6  C   UNL     1       7.118   5.295  15.993  0.00  0.00    +0.000 A 
ATOM      7  N   UNL     1       7.718   5.565  14.807  0.00  0.00    +0.000 NA
ATOM      8  C   UNL     1       7.243   4.902  13.725  0.00  0.00    +0.000 A 
ATOM      9  C   UNL     1       6.208   3.979  13.784  0.00  0.00    +0.000 A 
ATOM     10 BR   UNL     1       5.589   3.130  12.218  0.00  0.00    +0.000 Br
ATOM     11  C   UNL     1       5.620   3.705  15.015  0.00  0.00    +0.000 A 
ENDBRANCH   2   5
BRANCH   1  12
ATOM     12  C   UNL     1       4.002   2.886  18.925  0.00  0.00    +0.000 C 
BRANCH  12  13
ATOM     13  C   UNL     1       2.533   3.283  19.084  0.00  0.00    +0.000 C 
BRANCH  13  14
ATOM     14  S   UNL     1       2.331   4.411  20.508  0.00  0.00    +0.000 S 
BRANCH  14  16
ATOM     15  C   UNL     1       2.330   6.043  18.321  0.00  0.00    +0.000 C 
ATOM     16  C   UNL     1       2.889   5.956  19.729  0.00  0.00    +0.000 C 
ENDBRANCH  14  16
ENDBRANCH  13  14
ENDBRANCH  12  13
ENDBRANCH   1  12
TORSDOF 5
ENDMDL
MODEL 5
REMARK VINA RESULT:      -5.5      1.430      1.822
REMARK  Name = 
REMARK  6 active torsions:
REMARK  status: ('A' for Active; 'I' for Inactive)
REMARK    1  A    between atoms: C_1  and  C_2
REMARK    2  A    between atoms: C_2  and  S_3
REMARK    3  A    between atoms: S_3  and  C_4
REMARK    4  A    between atoms: C_4  and  C_5
REMARK    5  A    between atoms: C_5  and  N_6
REMARK    6  A    between atoms: C_7  and  C_9
REMARK                            x       y       z     vdW  Elec       q    Type
REMARK                         _______ _______ _______ _____ _____    ______ ____
ROOT
ATOM      1  N   UNL     1       5.195   5.309  18.313  0.00  0.00    +0.000 N 
ATOM      2  C   UNL     1       5.110   4.271  17.408  0.00  0.00    +0.000 C 
ATOM      3  O   UNL     1       4.442   3.261  17.596  0.00  0.00    +0.000 OA
ATOM      4  H   UNL     1       5.458   6.226  17.966  0.00  0.00    +0.000 HD
ENDROOT
BRANCH   2   5
ATOM      5  C   UNL     1       5.860   4.430  16.144  0.00  0.00    +0.000 A 
ATOM      6  C   UNL     1       6.930   5.318  16.107  0.00  0.00    +0.000 A 
ATOM      7  N   UNL     1       7.663   5.572  14.994  0.00  0.00    +0.000 NA
ATOM      8  C   UNL     1       7.288   4.926  13.864  0.00  0.00    +0.000 A 
ATOM      9  C   UNL     1       6.226   4.034  13.806  0.00  0.00    +0.000 A 
ATOM     10 BR   UNL     1       5.755   3.206  12.178  0.00  0.00    +0.000 Br
ATOM     11  C   UNL     1       5.500   3.776  14.965  0.00  0.00    +0.000 A 
ENDBRANCH   2   5
BRANCH   1  12
ATOM     12  C   UNL     1       4.379   5.279  19.515  0.00  0.00    +0.000 C 
BRANCH  12  13
ATOM     13  C   UNL     1       2.903   5.574  19.246  0.00  0.00    +0.000 C 
BRANCH  13  14
ATOM     14  S   UNL     1       1.893   5.146  20.707  0.00  0.00    +0.000 S 
BRANCH  14  16
ATOM     15  C   UNL     1       1.713   2.503  20.052  0.00  0.00    +0.000 C 
ATOM     16  C   UNL     1       0.914   3.792  19.991  0.00  0.00    +0.000 C 
ENDBRANCH  14  16
ENDBRANCH  13  14
ENDBRANCH  12  13
ENDBRANCH   1  12
TORSDOF 5
ENDMDL
MODEL 6
REMARK VINA RESULT:      -5.3      1.312      1.863
REMARK  Name = 
REMARK  6 active torsions:
REMARK  status: ('A' for Active; 'I' for Inactive)
REMARK    1  A    between atoms: C_1  and  C_2
REMARK    2  A    between atoms: C_2  and  S_3
REMARK    3  A    between atoms: S_3  and  C_4
REMARK    4  A    between atoms: C_4  and  C_5
REMARK    5  A    between atoms: C_5  and  N_6
REMARK    6  A    between atoms: C_7  and  C_9
REMARK                            x       y       z     vdW  Elec       q    Type
REMARK                         _______ _______ _______ _____ _____    ______ ____
ROOT
ATOM      1  N   UNL     1       3.087   4.678  17.296  0.00  0.00    +0.000 N 
ATOM      2  C   UNL     1       4.250   5.415  17.383  0.00  0.00    +0.000 C 
ATOM      3  O   UNL     1       4.470   6.229  18.273  0.00  0.00    +0.000 OA
ATOM      4  H   UNL     1       3.112   3.806  16.774  0.00  0.00    +0.000 HD
ENDROOT
BRANCH   2   5
ATOM      5  C   UNL     1       5.272   5.168  16.344  0.00  0.00    +0.000 A 
ATOM      6  C   UNL     1       6.536   5.729  16.500  0.00  0.00    +0.000 A 
ATOM      7  N   UNL     1       7.536   5.601  15.592  0.00  0.00    +0.000 NA
ATOM      8  C   UNL     1       7.246   4.901  14.469  0.00  0.00    +0.000 A 
ATOM      9  C   UNL     1       6.010   4.320  14.224  0.00  0.00    +0.000 A 
ATOM     10 BR   UNL     1       5.687   3.392  12.614  0.00  0.00    +0.000 Br
ATOM     11  C   UNL     1       5.004   4.450  15.177  0.00  0.00    +0.000 A 
ENDBRANCH   2   5
BRANCH   1  12
ATOM     12  C   UNL     1       2.098   4.772  18.356  0.00  0.00    +0.000 C 
BRANCH  12  13
ATOM     13  C   UNL     1       1.372   3.451  18.618  0.00  0.00    +0.000 C 
BRANCH  13  14
ATOM     14  S   UNL     1       1.928   2.724  20.200  0.00  0.00    +0.000 S 
BRANCH  14  16
ATOM     15  C   UNL     1       3.629   1.402  18.525  0.00  0.00    +0.000 C 
ATOM     16  C   UNL     1       3.637   2.312  19.740  0.00  0.00    +0.000 C 
ENDBRANCH  14  16
ENDBRANCH  13  14
ENDBRANCH  12  13
ENDBRANCH   1  12
TORSDOF 5
ENDMDL
MODEL 7
REMARK VINA RESULT:      -5.3      2.510      2.919
REMARK  Name = 
REMARK  6 active torsions:
REMARK  status: ('A' for Active; 'I' for Inactive)
REMARK    1  A    between atoms: C_1  and  C_2
REMARK    2  A    between atoms: C_2  and  S_3
REMARK    3  A    between atoms: S_3  and  C_4
REMARK    4  A    between atoms: C_4  and  C_5
REMARK    5  A    between atoms: C_5  and  N_6
REMARK    6  A    between atoms: C_7  and  C_9
REMARK                            x       y       z     vdW  Elec       q    Type
REMARK                         _______ _______ _______ _____ _____    ______ ____
ROOT
ATOM      1  N   UNL     1       3.251   2.496  18.526  0.00  0.00    +0.000 N 
ATOM      2  C   UNL     1       3.268   3.318  17.418  0.00  0.00    +0.000 C 
ATOM      3  O   UNL     1       2.306   3.473  16.675  0.00  0.00    +0.000 OA
ATOM      4  H   UNL     1       3.922   2.678  19.266  0.00  0.00    +0.000 HD
ENDROOT
BRANCH   2   5
ATOM      5  C   UNL     1       4.523   4.054  17.156  0.00  0.00    +0.000 A 
ATOM      6  C   UNL     1       4.921   4.254  15.838  0.00  0.00    +0.000 A 
ATOM      7  N   UNL     1       6.071   4.880  15.484  0.00  0.00    +0.000 NA
ATOM      8  C   UNL     1       6.867   5.300  16.496  0.00  0.00    +0.000 A 
ATOM      9  C   UNL     1       6.556   5.131  17.838  0.00  0.00    +0.000 A 
ATOM     10 BR   UNL     1       7.743   5.719  19.181  0.00  0.00    +0.000 Br
ATOM     11  C   UNL     1       5.362   4.502  18.178  0.00  0.00    +0.000 A 
ENDBRANCH   2   5
BRANCH   1  12
ATOM     12  C   UNL     1       2.012   1.847  18.917  0.00  0.00    +0.000 C 
BRANCH  12  13
ATOM     13  C   UNL     1       1.043   2.788  19.634  0.00  0.00    +0.000 C 
BRANCH  13  14
ATOM     14  S   UNL     1       1.437   2.868  21.417  0.00  0.00    +0.000 S 
BRANCH  14  16
ATOM     15  C   UNL     1       1.834   5.414  20.516  0.00  0.00    +0.000 C 
ATOM     16  C   UNL     1       2.468   4.366  21.414  0.00  0.00    +0.000 C 
ENDBRANCH  14  16
ENDBRANCH  13  14
ENDBRANCH  12  13
ENDBRANCH   1  12
TORSDOF 5
ENDMDL
MODEL 8
REMARK VINA RESULT:      -5.3      1.274      1.495
REMARK  Name = 
REMARK  6 active torsions:
REMARK  status: ('A' for Active; 'I' for Inactive)
REMARK    1  A    between atoms: C_1  and  C_2
REMARK    2  A    between atoms: C_2  and  S_3
REMARK    3  A    between atoms: S_3  and  C_4
REMARK    4  A    between atoms: C_4  and  C_5
REMARK    5  A    between atoms: C_5  and  N_6
REMARK    6  A    between atoms: C_7  and  C_9
REMARK                            x       y       z     vdW  Elec       q    Type
REMARK                         _______ _______ _______ _____ _____    ______ ____
ROOT
ATOM      1  N   UNL     1       4.864   3.872  17.712  0.00  0.00    +0.000 N 
ATOM      2  C   UNL     1       6.157   4.261  17.428  0.00  0.00    +0.000 C 
ATOM      3  O   UNL     1       7.005   4.469  18.288  0.00  0.00    +0.000 OA
ATOM      4  H   UNL     1       4.339   3.389  16.988  0.00  0.00    +0.000 HD
ENDROOT
BRANCH   2   5
ATOM      5  C   UNL     1       6.510   4.400  15.999  0.00  0.00    +0.000 A 
ATOM      6  C   UNL     1       7.516   5.291  15.641  0.00  0.00    +0.000 A 
ATOM      7  N   UNL     1       7.895   5.527  14.360  0.00  0.00    +0.000 NA
ATOM      8  C   UNL     1       7.215   4.859  13.396  0.00  0.00    +0.000 A 
ATOM      9  C   UNL     1       6.189   3.964  13.662  0.00  0.00    +0.000 A 
ATOM     10 BR   UNL     1       5.275   3.106  12.252  0.00  0.00    +0.000 Br
ATOM     11  C   UNL     1       5.830   3.724  14.984  0.00  0.00    +0.000 A 
ENDBRANCH   2   5
BRANCH   1  12
ATOM     12  C   UNL     1       4.486   3.588  19.086  0.00  0.00    +0.000 C 
BRANCH  12  13
ATOM     13  C   UNL     1       3.562   2.376  19.214  0.00  0.00    +0.000 C 
BRANCH  13  14
ATOM     14  S   UNL     1       2.542   2.513  20.725  0.00  0.00    +0.000 S 
BRANCH  14  16
ATOM     15  C   UNL     1       0.597   2.551  18.811  0.00  0.00    +0.000 C 
ATOM     16  C   UNL     1       1.087   3.338  20.013  0.00  0.00    +0.000 C 
ENDBRANCH  14  16
ENDBRANCH  13  14
ENDBRANCH  12  13
ENDBRANCH   1  12
TORSDOF 5
ENDMDL
MODEL 9
REMARK VINA RESULT:      -5.2      1.414      1.544
REMARK  Name = 
REMARK  6 active torsions:
REMARK  status: ('A' for Active; 'I' for Inactive)
REMARK    1  A    between atoms: C_1  and  C_2
REMARK    2  A    between atoms: C_2  and  S_3
REMARK    3  A    between atoms: S_3  and  C_4
REMARK    4  A    between atoms: C_4  and  C_5
REMARK    5  A    between atoms: C_5  and  N_6
REMARK    6  A    between atoms: C_7  and  C_9
REMARK                            x       y       z     vdW  Elec       q    Type
REMARK                         _______ _______ _______ _____ _____    ______ ____
ROOT
ATOM      1  N   UNL     1       4.076   3.172  18.624  0.00  0.00    +0.000 N 
ATOM      2  C   UNL     1       5.132   4.052  18.503  0.00  0.00    +0.000 C 
ATOM      3  O   UNL     1       5.906   4.309  19.418  0.00  0.00    +0.000 OA
ATOM      4  H   UNL     1       3.709   2.746  17.778  0.00  0.00    +0.000 HD
ENDROOT
BRANCH   2   5
ATOM      5  C   UNL     1       5.324   4.681  17.179  0.00  0.00    +0.000 A 
ATOM      6  C   UNL     1       5.141   6.054  17.057  0.00  0.00    +0.000 A 
ATOM      7  N   UNL     1       5.253   6.729  15.886  0.00  0.00    +0.000 NA
ATOM      8  C   UNL     1       5.533   5.989  14.787  0.00  0.00    +0.000 A 
ATOM      9  C   UNL     1       5.717   4.614  14.814  0.00  0.00    +0.000 A 
ATOM     10 BR   UNL     1       6.071   3.661  13.225  0.00  0.00    +0.000 Br
ATOM     11  C   UNL     1       5.616   3.945  16.030  0.00  0.00    +0.000 A 
ENDBRANCH   2   5
BRANCH   1  12
ATOM     12  C   UNL     1       3.908   2.418  19.855  0.00  0.00    +0.000 C 
BRANCH  12  13
ATOM     13  C   UNL     1       2.540   2.628  20.505  0.00  0.00    +0.000 C 
BRANCH  13  14
ATOM     14  S   UNL     1       1.566   3.848  19.554  0.00  0.00    +0.000 S 
BRANCH  14  16
ATOM     15  C   UNL     1       2.471   6.421  19.667  0.00  0.00    +0.000 C 
ATOM     16  C   UNL     1       1.905   5.327  20.555  0.00  0.00    +0.000 C 
ENDBRANCH  14  16
ENDBRANCH  13  14
ENDBRANCH  12  13
ENDBRANCH   1  12
TORSDOF 5
ENDMDL
