MODEL 1
REMARK VINA RESULT:      -7.7      0.000      0.000
REMARK  Name = 
REMARK  7 active torsions:
REMARK  status: ('A' for Active; 'I' for Inactive)
REMARK    1  A    between atoms: C_1  and  C_2
REMARK    2  A    between atoms: C_5  and  C_6
REMARK    3  A    between atoms: C_6  and  C_7
REMARK    4  A    between atoms: C_12  and  N_13
REMARK    5  A    between atoms: C_15  and  C_16
REMARK    6  A    between atoms: C_16  and  C_17
REMARK    7  A    between atoms: C_16  and  O_18
REMARK                            x       y       z     vdW  Elec       q    Type
REMARK                         _______ _______ _______ _____ _____    ______ ____
ROOT
ATOM      1  C   UNL     1       3.901   4.159  17.480  0.00  0.00    +0.000 C 
ATOM      2  O   UNL     1       3.805   3.610  16.367  0.00  0.00    +0.000 OA
ATOM      3  N   UNL     1       5.023   4.900  17.825  0.00  0.00    +0.000 N 
ATOM      4  C   UNL     1       6.003   5.102  16.750  0.00  0.00    +0.000 C 
ATOM      5  C   UNL     1       7.412   4.770  17.199  0.00  0.00    +0.000 C 
ATOM      6  C   UNL     1       7.785   5.577  18.441  0.00  0.00    +0.000 C 
ATOM      7  C   UNL     1       6.774   5.277  19.565  0.00  0.00    +0.000 C 
ATOM      8  C   UNL     1       5.310   5.492  19.144  0.00  0.00    +0.000 C 
ENDROOT
BRANCH   6   9
ATOM      9  N   UNL     1       7.943   6.997  18.150  0.00  0.00    +0.000 N 
ATOM     10  C   UNL     1       8.611   7.928  18.887  0.00  0.00    +0.000 A 
ATOM     11  C   UNL     1       8.389   9.115  18.222  0.00  0.00    +0.000 A 
ATOM     12  N   UNL     1       7.614   8.870  17.124  0.00  0.00    +0.000 NA
ATOM     13  N   UNL     1       7.348   7.573  17.090  0.00  0.00    +0.000 NA
BRANCH  11  14
ATOM     14  C   UNL     1       8.847  10.471  18.630  0.00  0.00    +0.000 C 
ATOM     15  C   UNL     1       9.414  10.521  20.036  0.00  0.00    +0.000 C 
BRANCH  14  16
ATOM     16  O   UNL     1       9.842  10.965  17.731  0.00  0.00    +0.000 OA
ATOM     17  H   UNL     1      10.648  10.448  17.910  0.00  0.00    +0.000 HD
ENDBRANCH  14  16
ENDBRANCH  11  14
ENDBRANCH   6   9
BRANCH   1  18
ATOM     18  C   UNL     1       2.740   3.913  18.418  0.00  0.00    +0.000 C 
ATOM     19  C   UNL     1       3.018   2.668  19.285  0.00  0.00    +0.000 C 
ATOM     20  C   UNL     1       1.809   2.698  18.420  0.00  0.00    +0.000 C 
BRANCH  18  25
ATOM     21  C   UNL     1       1.372   9.003  20.982  0.00  0.00    +0.000 C 
ATOM     22  C   UNL     1       1.604   7.689  20.302  0.00  0.00    +0.000 A 
ATOM     23  C   UNL     1       2.010   7.647  18.970  0.00  0.00    +0.000 A 
ATOM     24  C   UNL     1       2.268   6.422  18.356  0.00  0.00    +0.000 A 
ATOM     25  C   UNL     1       2.180   5.204  19.048  0.00  0.00    +0.000 A 
ATOM     26  C   UNL     1       1.708   5.259  20.377  0.00  0.00    +0.000 A 
ATOM     27  C   UNL     1       1.423   6.486  20.992  0.00  0.00    +0.000 A 
ENDBRANCH  18  25
ENDBRANCH   1  18
TORSDOF 5
ENDMDL
MODEL 2
REMARK VINA RESULT:      -7.7      3.248      4.863
REMARK  Name = 
REMARK  7 active torsions:
REMARK  status: ('A' for Active; 'I' for Inactive)
REMARK    1  A    between atoms: C_1  and  C_2
REMARK    2  A    between atoms: C_5  and  C_6
REMARK    3  A    between atoms: C_6  and  C_7
REMARK    4  A    between atoms: C_12  and  N_13
REMARK    5  A    between atoms: C_15  and  C_16
REMARK    6  A    between atoms: C_16  and  C_17
REMARK    7  A    between atoms: C_16  and  O_18
REMARK                            x       y       z     vdW  Elec       q    Type
REMARK                         _______ _______ _______ _____ _____    ______ ____
ROOT
ATOM      1  C   UNL     1       3.839   4.126  18.875  0.00  0.00    +0.000 C 
ATOM      2  O   UNL     1       4.400   3.421  19.734  0.00  0.00    +0.000 OA
ATOM      3  N   UNL     1       4.529   4.598  17.766  0.00  0.00    +0.000 N 
ATOM      4  C   UNL     1       5.899   4.095  17.612  0.00  0.00    +0.000 C 
ATOM      5  C   UNL     1       6.888   5.215  17.359  0.00  0.00    +0.000 C 
ATOM      6  C   UNL     1       6.467   6.041  16.146  0.00  0.00    +0.000 C 
ATOM      7  C   UNL     1       5.055   6.610  16.384  0.00  0.00    +0.000 C 
ATOM      8  C   UNL     1       4.017   5.535  16.750  0.00  0.00    +0.000 C 
ENDROOT
BRANCH   6   9
ATOM      9  N   UNL     1       6.605   5.300  14.898  0.00  0.00    +0.000 N 
ATOM     10  C   UNL     1       5.791   4.318  14.418  0.00  0.00    +0.000 A 
ATOM     11  C   UNL     1       6.405   3.901  13.258  0.00  0.00    +0.000 A 
ATOM     12  N   UNL     1       7.545   4.631  13.071  0.00  0.00    +0.000 NA
ATOM     13  N   UNL     1       7.656   5.483  14.079  0.00  0.00    +0.000 NA
BRANCH  11  14
ATOM     14  C   UNL     1       5.968   2.800  12.357  0.00  0.00    +0.000 C 
ATOM     15  C   UNL     1       4.790   3.171  11.474  0.00  0.00    +0.000 C 
BRANCH  14  16
ATOM     16  O   UNL     1       7.039   2.375  11.513  0.00  0.00    +0.000 OA
ATOM     17  H   UNL     1       7.499   3.186  11.232  0.00  0.00    +0.000 HD
ENDBRANCH  14  16
ENDBRANCH  11  14
ENDBRANCH   6   9
BRANCH   1  18
ATOM     18  C   UNL     1       2.392   4.457  19.164  0.00  0.00    +0.000 C 
ATOM     19  C   UNL     1       1.714   3.272  19.882  0.00  0.00    +0.000 C 
ATOM     20  C   UNL     1       1.162   3.752  18.588  0.00  0.00    +0.000 C 
BRANCH  18  25
ATOM     21  C   UNL     1       0.821   9.844  20.858  0.00  0.00    +0.000 C 
ATOM     22  C   UNL     1       1.334   8.493  20.462  0.00  0.00    +0.000 A 
ATOM     23  C   UNL     1       1.182   7.403  21.316  0.00  0.00    +0.000 A 
ATOM     24  C   UNL     1       1.621   6.140  20.923  0.00  0.00    +0.000 A 
ATOM     25  C   UNL     1       2.182   5.902  19.658  0.00  0.00    +0.000 A 
ATOM     26  C   UNL     1       2.387   7.027  18.831  0.00  0.00    +0.000 A 
ATOM     27  C   UNL     1       1.969   8.305  19.230  0.00  0.00    +0.000 A 
ENDBRANCH  18  25
ENDBRANCH   1  18
TORSDOF 5
ENDMDL
MODEL 3
REMARK VINA RESULT:      -7.4      3.990      6.359
REMARK  Name = 
REMARK  7 active torsions:
REMARK  status: ('A' for Active; 'I' for Inactive)
REMARK    1  A    between atoms: C_1  and  C_2
REMARK    2  A    between atoms: C_5  and  C_6
REMARK    3  A    between atoms: C_6  and  C_7
REMARK    4  A    between atoms: C_12  and  N_13
REMARK    5  A    between atoms: C_15  and  C_16
REMARK    6  A    between atoms: C_16  and  C_17
REMARK    7  A    between atoms: C_16  and  O_18
REMARK                            x       y       z     vdW  Elec       q    Type
REMARK                         _______ _______ _______ _____ _____    ______ ____
ROOT
ATOM      1  C   UNL     1       2.144   6.433  19.830  0.00  0.00    +0.000 C 
ATOM      2  O   UNL     1       1.941   5.977  20.970  0.00  0.00    +0.000 OA
ATOM      3  N   UNL     1       1.839   7.750  19.515  0.00  0.00    +0.000 N 
ATOM      4  C   UNL     1       1.403   8.586  20.640  0.00  0.00    +0.000 C 
ATOM      5  C   UNL     1       0.131   9.346  20.322  0.00  0.00    +0.000 C 
ATOM      6  C   UNL     1       0.306  10.180  19.055  0.00  0.00    +0.000 C 
ATOM      7  C   UNL     1       0.690   9.254  17.885  0.00  0.00    +0.000 C 
ATOM      8  C   UNL     1       1.916   8.372  18.181  0.00  0.00    +0.000 C 
ENDROOT
BRANCH   6   9
ATOM      9  N   UNL     1       1.223  11.298  19.251  0.00  0.00    +0.000 N 
ATOM     10  C   UNL     1       1.307  12.127  20.329  0.00  0.00    +0.000 A 
ATOM     11  C   UNL     1       2.268  13.049  19.979  0.00  0.00    +0.000 A 
ATOM     12  N   UNL     1       2.732  12.753  18.728  0.00  0.00    +0.000 NA
ATOM     13  N   UNL     1       2.087  11.681  18.294  0.00  0.00    +0.000 NA
BRANCH  11  14
ATOM     14  C   UNL     1       2.716  14.225  20.773  0.00  0.00    +0.000 C 
ATOM     15  C   UNL     1       2.470  15.552  20.081  0.00  0.00    +0.000 C 
BRANCH  14  16
ATOM     16  O   UNL     1       2.066  14.259  22.045  0.00  0.00    +0.000 OA
ATOM     17  H   UNL     1       2.603  14.847  22.606  0.00  0.00    +0.000 HD
ENDBRANCH  14  16
ENDBRANCH  11  14
ENDBRANCH   6   9
BRANCH   1  18
ATOM     18  C   UNL     1       2.691   5.439  18.830  0.00  0.00    +0.000 C 
ATOM     19  C   UNL     1       1.589   5.038  17.828  0.00  0.00    +0.000 C 
ATOM     20  C   UNL     1       2.244   3.986  18.648  0.00  0.00    +0.000 C 
BRANCH  18  25
ATOM     21  C   UNL     1       8.076   7.339  17.511  0.00  0.00    +0.000 C 
ATOM     22  C   UNL     1       6.717   6.765  17.768  0.00  0.00    +0.000 A 
ATOM     23  C   UNL     1       6.506   5.913  18.850  0.00  0.00    +0.000 A 
ATOM     24  C   UNL     1       5.230   5.417  19.110  0.00  0.00    +0.000 A 
ATOM     25  C   UNL     1       4.113   5.783  18.342  0.00  0.00    +0.000 A 
ATOM     26  C   UNL     1       4.355   6.595  17.214  0.00  0.00    +0.000 A 
ATOM     27  C   UNL     1       5.641   7.077  16.932  0.00  0.00    +0.000 A 
ENDBRANCH  18  25
ENDBRANCH   1  18
TORSDOF 5
ENDMDL
MODEL 4
REMARK VINA RESULT:      -7.4      3.315      7.001
REMARK  Name = 
REMARK  7 active torsions:
REMARK  status: ('A' for Active; 'I' for Inactive)
REMARK    1  A    between atoms: C_1  and  C_2
REMARK    2  A    between atoms: C_5  and  C_6
REMARK    3  A    between atoms: C_6  and  C_7
REMARK    4  A    between atoms: C_12  and  N_13
REMARK    5  A    between atoms: C_15  and  C_16
REMARK    6  A    between atoms: C_16  and  C_17
REMARK    7  A    between atoms: C_16  and  O_18
REMARK                            x       y       z     vdW  Elec       q    Type
REMARK                         _______ _______ _______ _____ _____    ______ ____
ROOT
ATOM      1  C   UNL     1       5.571   5.238  18.889  0.00  0.00    +0.000 C 
ATOM      2  O   UNL     1       5.725   4.224  19.595  0.00  0.00    +0.000 OA
ATOM      3  N   UNL     1       4.396   5.975  18.931  0.00  0.00    +0.000 N 
ATOM      4  C   UNL     1       3.426   5.562  19.953  0.00  0.00    +0.000 C 
ATOM      5  C   UNL     1       2.033   5.396  19.377  0.00  0.00    +0.000 C 
ATOM      6  C   UNL     1       1.584   6.678  18.680  0.00  0.00    +0.000 C 
ATOM      7  C   UNL     1       2.590   7.032  17.568  0.00  0.00    +0.000 C 
ATOM      8  C   UNL     1       4.044   7.114  18.063  0.00  0.00    +0.000 C 
ENDROOT
BRANCH   6   9
ATOM      9  N   UNL     1       1.337   7.763  19.623  0.00  0.00    +0.000 N 
ATOM     10  C   UNL     1       0.873   7.667  20.900  0.00  0.00    +0.000 A 
ATOM     11  C   UNL     1       0.745   8.973  21.318  0.00  0.00    +0.000 A 
ATOM     12  N   UNL     1       1.132   9.803  20.304  0.00  0.00    +0.000 NA
ATOM     13  N   UNL     1       1.493   9.052  19.274  0.00  0.00    +0.000 NA
BRANCH  11  14
ATOM     14  C   UNL     1       0.219   9.450  22.626  0.00  0.00    +0.000 C 
ATOM     15  C   UNL     1      -0.388  10.839  22.564  0.00  0.00    +0.000 C 
BRANCH  14  16
ATOM     16  O   UNL     1      -0.772   8.554  23.135  0.00  0.00    +0.000 OA
ATOM     17  H   UNL     1      -0.699   7.742  22.604  0.00  0.00    +0.000 HD
ENDBRANCH  14  16
ENDBRANCH  11  14
ENDBRANCH   6   9
BRANCH   1  18
ATOM     18  C   UNL     1       6.727   5.559  17.969  0.00  0.00    +0.000 C 
ATOM     19  C   UNL     1       8.050   5.558  18.764  0.00  0.00    +0.000 C 
ATOM     20  C   UNL     1       7.637   6.788  18.039  0.00  0.00    +0.000 C 
BRANCH  18  25
ATOM     21  C   UNL     1       5.925   3.524  12.531  0.00  0.00    +0.000 C 
ATOM     22  C   UNL     1       6.199   3.947  13.941  0.00  0.00    +0.000 A 
ATOM     23  C   UNL     1       7.205   4.871  14.217  0.00  0.00    +0.000 A 
ATOM     24  C   UNL     1       7.426   5.294  15.526  0.00  0.00    +0.000 A 
ATOM     25  C   UNL     1       6.632   4.858  16.599  0.00  0.00    +0.000 A 
ATOM     26  C   UNL     1       5.659   3.876  16.312  0.00  0.00    +0.000 A 
ATOM     27  C   UNL     1       5.449   3.428  15.001  0.00  0.00    +0.000 A 
ENDBRANCH  18  25
ENDBRANCH   1  18
TORSDOF 5
ENDMDL
MODEL 5
REMARK VINA RESULT:      -7.4      5.834      7.734
REMARK  Name = 
REMARK  7 active torsions:
REMARK  status: ('A' for Active; 'I' for Inactive)
REMARK    1  A    between atoms: C_1  and  C_2
REMARK    2  A    between atoms: C_5  and  C_6
REMARK    3  A    between atoms: C_6  and  C_7
REMARK    4  A    between atoms: C_12  and  N_13
REMARK    5  A    between atoms: C_15  and  C_16
REMARK    6  A    between atoms: C_16  and  C_17
REMARK    7  A    between atoms: C_16  and  O_18
REMARK                            x       y       z     vdW  Elec       q    Type
REMARK                         _______ _______ _______ _____ _____    ______ ____
ROOT
ATOM      1  C   UNL     1       1.103  11.531  20.348  0.00  0.00    +0.000 C 
ATOM      2  O   UNL     1       0.709  11.605  21.526  0.00  0.00    +0.000 OA
ATOM      3  N   UNL     1       1.895  12.525  19.789  0.00  0.00    +0.000 N 
ATOM      4  C   UNL     1       2.342  13.574  20.714  0.00  0.00    +0.000 C 
ATOM      5  C   UNL     1       2.090  14.962  20.159  0.00  0.00    +0.000 C 
ATOM      6  C   UNL     1       2.747  15.121  18.790  0.00  0.00    +0.000 C 
ATOM      7  C   UNL     1       2.194  14.049  17.832  0.00  0.00    +0.000 C 
ATOM      8  C   UNL     1       2.321  12.616  18.381  0.00  0.00    +0.000 C 
ENDROOT
BRANCH   6   9
ATOM      9  N   UNL     1       4.203  15.146  18.875  0.00  0.00    +0.000 N 
ATOM     10  C   UNL     1       5.097  14.606  18.001  0.00  0.00    +0.000 A 
ATOM     11  C   UNL     1       6.325  14.836  18.580  0.00  0.00    +0.000 A 
ATOM     12  N   UNL     1       6.142  15.499  19.761  0.00  0.00    +0.000 NA
ATOM     13  N   UNL     1       4.841  15.684  19.930  0.00  0.00    +0.000 NA
BRANCH  11  14
ATOM     14  C   UNL     1       7.654  14.400  18.072  0.00  0.00    +0.000 C 
ATOM     15  C   UNL     1       7.606  13.102  17.288  0.00  0.00    +0.000 C 
BRANCH  14  16
ATOM     16  O   UNL     1       8.235  15.403  17.236  0.00  0.00    +0.000 OA
ATOM     17  H   UNL     1       8.027  15.144  16.320  0.00  0.00    +0.000 HD
ENDBRANCH  14  16
ENDBRANCH  11  14
ENDBRANCH   6   9
BRANCH   1  18
ATOM     18  C   UNL     1       0.615  10.321  19.584  0.00  0.00    +0.000 C 
ATOM     19  C   UNL     1       0.955   9.034  20.363  0.00  0.00    +0.000 C 
ATOM     20  C   UNL     1       1.480   9.210  18.984  0.00  0.00    +0.000 C 
BRANCH  18  25
ATOM     21  C   UNL     1      -4.325  11.576  16.690  0.00  0.00    +0.000 C 
ATOM     22  C   UNL     1      -3.127  11.177  17.495  0.00  0.00    +0.000 A 
ATOM     23  C   UNL     1      -2.235  10.225  17.005  0.00  0.00    +0.000 A 
ATOM     24  C   UNL     1      -1.098   9.891  17.739  0.00  0.00    +0.000 A 
ATOM     25  C   UNL     1      -0.779  10.517  18.954  0.00  0.00    +0.000 A 
ATOM     26  C   UNL     1      -1.724  11.431  19.466  0.00  0.00    +0.000 A 
ATOM     27  C   UNL     1      -2.882  11.754  18.744  0.00  0.00    +0.000 A 
ENDBRANCH  18  25
ENDBRANCH   1  18
TORSDOF 5
ENDMDL
MODEL 6
REMARK VINA RESULT:      -7.3      4.888      7.349
REMARK  Name = 
REMARK  7 active torsions:
REMARK  status: ('A' for Active; 'I' for Inactive)
REMARK    1  A    between atoms: C_1  and  C_2
REMARK    2  A    between atoms: C_5  and  C_6
REMARK    3  A    between atoms: C_6  and  C_7
REMARK    4  A    between atoms: C_12  and  N_13
REMARK    5  A    between atoms: C_15  and  C_16
REMARK    6  A    between atoms: C_16  and  C_17
REMARK    7  A    between atoms: C_16  and  O_18
REMARK                            x       y       z     vdW  Elec       q    Type
REMARK                         _______ _______ _______ _____ _____    ______ ____
ROOT
ATOM      1  C   UNL     1       1.046  11.926  20.443  0.00  0.00    +0.000 C 
ATOM      2  O   UNL     1       0.704  11.982  21.639  0.00  0.00    +0.000 OA
ATOM      3  N   UNL     1       1.964  12.823  19.913  0.00  0.00    +0.000 N 
ATOM      4  C   UNL     1       2.595  13.729  20.881  0.00  0.00    +0.000 C 
ATOM      5  C   UNL     1       2.543  15.173  20.420  0.00  0.00    +0.000 C 
ATOM      6  C   UNL     1       3.175  15.319  19.038  0.00  0.00    +0.000 C 
ATOM      7  C   UNL     1       2.435  14.407  18.041  0.00  0.00    +0.000 C 
ATOM      8  C   UNL     1       2.357  12.939  18.497  0.00  0.00    +0.000 C 
ENDROOT
BRANCH   6   9
ATOM      9  N   UNL     1       4.619  15.117  19.066  0.00  0.00    +0.000 N 
ATOM     10  C   UNL     1       5.418  14.670  18.057  0.00  0.00    +0.000 A 
ATOM     11  C   UNL     1       6.671  14.585  18.622  0.00  0.00    +0.000 A 
ATOM     12  N   UNL     1       6.596  14.981  19.928  0.00  0.00    +0.000 NA
ATOM     13  N   UNL     1       5.338  15.304  20.188  0.00  0.00    +0.000 NA
BRANCH  11  14
ATOM     14  C   UNL     1       7.917  14.092  17.974  0.00  0.00    +0.000 C 
ATOM     15  C   UNL     1       8.907  13.486  18.951  0.00  0.00    +0.000 C 
BRANCH  14  16
ATOM     16  O   UNL     1       7.621  13.114  16.976  0.00  0.00    +0.000 OA
ATOM     17  H   UNL     1       6.845  13.449  16.493  0.00  0.00    +0.000 HD
ENDBRANCH  14  16
ENDBRANCH  11  14
ENDBRANCH   6   9
BRANCH   1  18
ATOM     18  C   UNL     1       0.355  10.856  19.628  0.00  0.00    +0.000 C 
ATOM     19  C   UNL     1      -0.490  11.507  18.514  0.00  0.00    +0.000 C 
ATOM     20  C   UNL     1      -1.154  10.629  19.512  0.00  0.00    +0.000 C 
BRANCH  18  25
ATOM     21  C   UNL     1       3.137   5.927  18.106  0.00  0.00    +0.000 C 
ATOM     22  C   UNL     1       2.530   7.225  18.543  0.00  0.00    +0.000 A 
ATOM     23  C   UNL     1       2.421   8.288  17.651  0.00  0.00    +0.000 A 
ATOM     24  C   UNL     1       1.815   9.478  18.050  0.00  0.00    +0.000 A 
ATOM     25  C   UNL     1       1.254   9.641  19.327  0.00  0.00    +0.000 A 
ATOM     26  C   UNL     1       1.428   8.578  20.239  0.00  0.00    +0.000 A 
ATOM     27  C   UNL     1       2.059   7.388  19.850  0.00  0.00    +0.000 A 
ENDBRANCH  18  25
ENDBRANCH   1  18
TORSDOF 5
ENDMDL
MODEL 7
REMARK VINA RESULT:      -7.3      3.398      6.796
REMARK  Name = 
REMARK  7 active torsions:
REMARK  status: ('A' for Active; 'I' for Inactive)
REMARK    1  A    between atoms: C_1  and  C_2
REMARK    2  A    between atoms: C_5  and  C_6
REMARK    3  A    between atoms: C_6  and  C_7
REMARK    4  A    between atoms: C_12  and  N_13
REMARK    5  A    between atoms: C_15  and  C_16
REMARK    6  A    between atoms: C_16  and  C_17
REMARK    7  A    between atoms: C_16  and  O_18
REMARK                            x       y       z     vdW  Elec       q    Type
REMARK                         _______ _______ _______ _____ _____    ______ ____
ROOT
ATOM      1  C   UNL     1       5.565   5.173  18.815  0.00  0.00    +0.000 C 
ATOM      2  O   UNL     1       5.676   4.123  19.475  0.00  0.00    +0.000 OA
ATOM      3  N   UNL     1       4.415   5.948  18.880  0.00  0.00    +0.000 N 
ATOM      4  C   UNL     1       3.420   5.522  19.872  0.00  0.00    +0.000 C 
ATOM      5  C   UNL     1       2.029   5.432  19.276  0.00  0.00    +0.000 C 
ATOM      6  C   UNL     1       1.632   6.759  18.635  0.00  0.00    +0.000 C 
ATOM      7  C   UNL     1       2.662   7.129  17.550  0.00  0.00    +0.000 C 
ATOM      8  C   UNL     1       4.113   7.137  18.063  0.00  0.00    +0.000 C 
ENDROOT
BRANCH   6   9
ATOM      9  N   UNL     1       1.412   7.807  19.624  0.00  0.00    +0.000 N 
ATOM     10  C   UNL     1       1.198   9.134  19.399  0.00  0.00    +0.000 A 
ATOM     11  C   UNL     1       1.132   9.689  20.658  0.00  0.00    +0.000 A 
ATOM     12  N   UNL     1       1.299   8.702  21.588  0.00  0.00    +0.000 NA
ATOM     13  N   UNL     1       1.468   7.557  20.944  0.00  0.00    +0.000 NA
BRANCH  11  14
ATOM     14  C   UNL     1       0.967  11.129  20.996  0.00  0.00    +0.000 C 
ATOM     15  C   UNL     1       0.277  11.931  19.909  0.00  0.00    +0.000 C 
BRANCH  14  16
ATOM     16  O   UNL     1       0.224  11.288  22.206  0.00  0.00    +0.000 OA
ATOM     17  H   UNL     1      -0.239  10.444  22.350  0.00  0.00    +0.000 HD
ENDBRANCH  14  16
ENDBRANCH  11  14
ENDBRANCH   6   9
BRANCH   1  18
ATOM     18  C   UNL     1       6.742   5.496  17.922  0.00  0.00    +0.000 C 
ATOM     19  C   UNL     1       8.049   5.466  18.741  0.00  0.00    +0.000 C 
ATOM     20  C   UNL     1       7.664   6.713  18.030  0.00  0.00    +0.000 C 
BRANCH  18  25
ATOM     21  C   UNL     1       5.984   3.541  12.449  0.00  0.00    +0.000 C 
ATOM     22  C   UNL     1       6.250   3.946  13.866  0.00  0.00    +0.000 A 
ATOM     23  C   UNL     1       7.224   4.898  14.155  0.00  0.00    +0.000 A 
ATOM     24  C   UNL     1       7.436   5.304  15.472  0.00  0.00    +0.000 A 
ATOM     25  C   UNL     1       6.664   4.819  16.539  0.00  0.00    +0.000 A 
ATOM     26  C   UNL     1       5.725   3.809  16.237  0.00  0.00    +0.000 A 
ATOM     27  C   UNL     1       5.524   3.379  14.918  0.00  0.00    +0.000 A 
ENDBRANCH  18  25
ENDBRANCH   1  18
TORSDOF 5
ENDMDL
MODEL 8
REMARK VINA RESULT:      -7.3      6.025      7.783
REMARK  Name = 
REMARK  7 active torsions:
REMARK  status: ('A' for Active; 'I' for Inactive)
REMARK    1  A    between atoms: C_1  and  C_2
REMARK    2  A    between atoms: C_5  and  C_6
REMARK    3  A    between atoms: C_6  and  C_7
REMARK    4  A    between atoms: C_12  and  N_13
REMARK    5  A    between atoms: C_15  and  C_16
REMARK    6  A    between atoms: C_16  and  C_17
REMARK    7  A    between atoms: C_16  and  O_18
REMARK                            x       y       z     vdW  Elec       q    Type
REMARK                         _______ _______ _______ _____ _____    ______ ____
ROOT
ATOM      1  C   UNL     1       0.922  11.733  20.672  0.00  0.00    +0.000 C 
ATOM      2  O   UNL     1       0.533  11.933  21.837  0.00  0.00    +0.000 OA
ATOM      3  N   UNL     1       1.778  12.621  20.035  0.00  0.00    +0.000 N 
ATOM      4  C   UNL     1       2.293  13.713  20.870  0.00  0.00    +0.000 C 
ATOM      5  C   UNL     1       2.135  15.063  20.198  0.00  0.00    +0.000 C 
ATOM      6  C   UNL     1       2.801  15.060  18.824  0.00  0.00    +0.000 C 
ATOM      7  C   UNL     1       2.179  13.949  17.958  0.00  0.00    +0.000 C 
ATOM      8  C   UNL     1       2.211  12.563  18.627  0.00  0.00    +0.000 C 
ENDROOT
BRANCH   6   9
ATOM      9  N   UNL     1       4.255  14.996  18.915  0.00  0.00    +0.000 N 
ATOM     10  C   UNL     1       5.141  14.712  17.920  0.00  0.00    +0.000 A 
ATOM     11  C   UNL     1       6.368  14.702  18.545  0.00  0.00    +0.000 A 
ATOM     12  N   UNL     1       6.193  14.979  19.871  0.00  0.00    +0.000 NA
ATOM     13  N   UNL     1       4.898  15.158  20.086  0.00  0.00    +0.000 NA
BRANCH  11  14
ATOM     14  C   UNL     1       7.686  14.386  17.930  0.00  0.00    +0.000 C 
ATOM     15  C   UNL     1       8.778  14.110  18.947  0.00  0.00    +0.000 C 
BRANCH  14  16
ATOM     16  O   UNL     1       7.588  13.253  17.065  0.00  0.00    +0.000 OA
ATOM     17  H   UNL     1       6.865  12.706  17.419  0.00  0.00    +0.000 HD
ENDBRANCH  14  16
ENDBRANCH  11  14
ENDBRANCH   6   9
BRANCH   1  18
ATOM     18  C   UNL     1       0.355  10.497  20.011  0.00  0.00    +0.000 C 
ATOM     19  C   UNL     1       0.249   9.351  21.038  0.00  0.00    +0.000 C 
ATOM     20  C   UNL     1       1.069   9.158  19.814  0.00  0.00    +0.000 C 
BRANCH  18  25
ATOM     21  C   UNL     1      -4.496  11.137  16.785  0.00  0.00    +0.000 C 
ATOM     22  C   UNL     1      -3.205  11.055  17.538  0.00  0.00    +0.000 A 
ATOM     23  C   UNL     1      -3.028  11.782  18.714  0.00  0.00    +0.000 A 
ATOM     24  C   UNL     1      -1.840  11.668  19.434  0.00  0.00    +0.000 A 
ATOM     25  C   UNL     1      -0.808  10.799  19.045  0.00  0.00    +0.000 A 
ATOM     26  C   UNL     1      -0.977  10.119  17.820  0.00  0.00    +0.000 A 
ATOM     27  C   UNL     1      -2.160  10.249  17.078  0.00  0.00    +0.000 A 
ENDBRANCH  18  25
ENDBRANCH   1  18
TORSDOF 5
ENDMDL
MODEL 9
REMARK VINA RESULT:      -7.2      4.006      6.266
REMARK  Name = 
REMARK  7 active torsions:
REMARK  status: ('A' for Active; 'I' for Inactive)
REMARK    1  A    between atoms: C_1  and  C_2
REMARK    2  A    between atoms: C_5  and  C_6
REMARK    3  A    between atoms: C_6  and  C_7
REMARK    4  A    between atoms: C_12  and  N_13
REMARK    5  A    between atoms: C_15  and  C_16
REMARK    6  A    between atoms: C_16  and  C_17
REMARK    7  A    between atoms: C_16  and  O_18
REMARK                            x       y       z     vdW  Elec       q    Type
REMARK                         _______ _______ _______ _____ _____    ______ ____
ROOT
ATOM      1  C   UNL     1       2.133   6.466  19.892  0.00  0.00    +0.000 C 
ATOM      2  O   UNL     1       2.065   5.919  21.008  0.00  0.00    +0.000 OA
ATOM      3  N   UNL     1       1.729   7.782  19.708  0.00  0.00    +0.000 N 
ATOM      4  C   UNL     1       1.358   8.507  20.929  0.00  0.00    +0.000 C 
ATOM      5  C   UNL     1       0.023   9.210  20.787  0.00  0.00    +0.000 C 
ATOM      6  C   UNL     1       0.031  10.141  19.577  0.00  0.00    +0.000 C 
ATOM      7  C   UNL     1       0.350   9.325  18.309  0.00  0.00    +0.000 C 
ATOM      8  C   UNL     1       1.644   8.500  18.424  0.00  0.00    +0.000 C 
ENDROOT
BRANCH   6   9
ATOM      9  N   UNL     1       0.901  11.295  19.773  0.00  0.00    +0.000 N 
ATOM     10  C   UNL     1       1.461  12.088  18.818  0.00  0.00    +0.000 A 
ATOM     11  C   UNL     1       2.248  12.971  19.523  0.00  0.00    +0.000 A 
ATOM     12  N   UNL     1       2.139  12.696  20.857  0.00  0.00    +0.000 NA
ATOM     13  N   UNL     1       1.313  11.670  20.997  0.00  0.00    +0.000 NA
BRANCH  11  14
ATOM     14  C   UNL     1       3.135  14.028  18.963  0.00  0.00    +0.000 C 
ATOM     15  C   UNL     1       4.104  14.604  19.979  0.00  0.00    +0.000 C 
BRANCH  14  16
ATOM     16  O   UNL     1       3.892  13.528  17.860  0.00  0.00    +0.000 OA
ATOM     17  H   UNL     1       4.684  13.112  18.243  0.00  0.00    +0.000 HD
ENDBRANCH  14  16
ENDBRANCH  11  14
ENDBRANCH   6   9
BRANCH   1  18
ATOM     18  C   UNL     1       2.635   5.581  18.774  0.00  0.00    +0.000 C 
ATOM     19  C   UNL     1       1.513   5.352  17.740  0.00  0.00    +0.000 C 
ATOM     20  C   UNL     1       2.126   4.181  18.419  0.00  0.00    +0.000 C 
BRANCH  18  25
ATOM     21  C   UNL     1       8.088   7.410  17.647  0.00  0.00    +0.000 C 
ATOM     22  C   UNL     1       6.708   6.863  17.846  0.00  0.00    +0.000 A 
ATOM     23  C   UNL     1       6.465   5.902  18.824  0.00  0.00    +0.000 A 
ATOM     24  C   UNL     1       5.170   5.429  19.034  0.00  0.00    +0.000 A 
ATOM     25  C   UNL     1       4.067   5.922  18.320  0.00  0.00    +0.000 A 
ATOM     26  C   UNL     1       4.339   6.849  17.290  0.00  0.00    +0.000 A 
ATOM     27  C   UNL     1       5.643   7.309  17.057  0.00  0.00    +0.000 A 
ENDBRANCH  18  25
ENDBRANCH   1  18
TORSDOF 5
ENDMDL
