MODEL 1
REMARK VINA RESULT:      -8.1      0.000      0.000
REMARK  Name = 
REMARK  12 active torsions:
REMARK  status: ('A' for Active; 'I' for Inactive)
REMARK    1  A    between atoms: C_1  and  C_2
REMARK    2  A    between atoms: C_4  and  C_5
REMARK    3  A    between atoms: C_7  and  C_8
REMARK    4  A    between atoms: C_8  and  O_9
REMARK    5  A    between atoms: O_9  and  C_10
REMARK    6  A    between atoms: C_10  and  C_11
REMARK    7  A    between atoms: C_11  and  C_12
REMARK    8  A    between atoms: C_11  and  N_25
REMARK    9  A    between atoms: C_12  and  C_13
REMARK   10  A    between atoms: C_12  and  C_19
REMARK   11  A    between atoms: N_25  and  C_26
REMARK   12  A    between atoms: N_25  and  C_27
REMARK                            x       y       z     vdW  Elec       q    Type
REMARK                         _______ _______ _______ _____ _____    ______ ____
ROOT
ATOM      1  C   UNL     1       4.823   5.555  18.103  0.00  0.00    +0.000 C 
ENDROOT
BRANCH   1   2
ATOM      2  N   UNL     1       6.055   6.343  18.490  0.00  0.00    +0.000 NA
ATOM      3  C   UNL     1       7.156   5.547  19.035  0.00  0.00    +0.000 C 
ATOM      4  C   UNL     1       6.598   7.193  17.425  0.00  0.00    +0.000 C 
ENDBRANCH   1   2
BRANCH   1   5
ATOM      5  C   UNL     1       5.026   4.002  17.932  0.00  0.00    +0.000 C 
BRANCH   5   6
ATOM      6  O   UNL     1       5.006   3.545  16.574  0.00  0.00    +0.000 OA
BRANCH   6   7
ATOM      7  C   UNL     1       4.906   4.642  15.654  0.00  0.00    +0.000 C 
BRANCH   7  14
ATOM      8  C   UNL     1       8.700   5.948  12.586  0.00  0.00    +0.000 C 
ATOM      9  C   UNL     1       7.554   5.037  12.913  0.00  0.00    +0.000 A 
ATOM     10  C   UNL     1       7.160   4.043  12.011  0.00  0.00    +0.000 A 
ATOM     11  C   UNL     1       6.061   3.221  12.295  0.00  0.00    +0.000 A 
ATOM     12  C   UNL     1       5.644   2.148  11.329  0.00  0.00    +0.000 C 
ATOM     13  C   UNL     1       5.354   3.413  13.490  0.00  0.00    +0.000 A 
ATOM     14  C   UNL     1       5.731   4.410  14.406  0.00  0.00    +0.000 A 
ATOM     15  C   UNL     1       6.832   5.219  14.099  0.00  0.00    +0.000 A 
ENDBRANCH   7  14
ENDBRANCH   6   7
ENDBRANCH   5   6
ENDBRANCH   1   5
BRANCH   1  16
ATOM     16  C   UNL     1       3.629   5.788  19.151  0.00  0.00    +0.000 C 
BRANCH  16  17
ATOM     17  C   UNL     1       2.905   7.147  19.016  0.00  0.00    +0.000 A 
ATOM     18  C   UNL     1       2.951   7.899  17.830  0.00  0.00    +0.000 A 
ATOM     19  C   UNL     1       2.130   9.018  17.657  0.00  0.00    +0.000 A 
ATOM     20  C   UNL     1       1.265   9.418  18.673  0.00  0.00    +0.000 A 
ATOM     21  C   UNL     1       1.245   8.720  19.877  0.00  0.00    +0.000 A 
ATOM     22  C   UNL     1       2.064   7.598  20.051  0.00  0.00    +0.000 A 
ENDBRANCH  16  17
BRANCH  16  23
ATOM     23  C   UNL     1       2.654   4.606  19.376  0.00  0.00    +0.000 A 
ATOM     24  C   UNL     1       2.544   3.915  20.594  0.00  0.00    +0.000 A 
ATOM     25  C   UNL     1       1.649   2.853  20.758  0.00  0.00    +0.000 A 
ATOM     26  C   UNL     1       0.829   2.467  19.707  0.00  0.00    +0.000 A 
ATOM     27  C   UNL     1       0.897   3.152  18.497  0.00  0.00    +0.000 A 
ATOM     28  C   UNL     1       1.793   4.212  18.336  0.00  0.00    +0.000 A 
ENDBRANCH  16  23
ENDBRANCH   1  16
TORSDOF 8
ENDMDL
MODEL 2
REMARK VINA RESULT:      -8.0      0.158      1.634
REMARK  Name = 
REMARK  12 active torsions:
REMARK  status: ('A' for Active; 'I' for Inactive)
REMARK    1  A    between atoms: C_1  and  C_2
REMARK    2  A    between atoms: C_4  and  C_5
REMARK    3  A    between atoms: C_7  and  C_8
REMARK    4  A    between atoms: C_8  and  O_9
REMARK    5  A    between atoms: O_9  and  C_10
REMARK    6  A    between atoms: C_10  and  C_11
REMARK    7  A    between atoms: C_11  and  C_12
REMARK    8  A    between atoms: C_11  and  N_25
REMARK    9  A    between atoms: C_12  and  C_13
REMARK   10  A    between atoms: C_12  and  C_19
REMARK   11  A    between atoms: N_25  and  C_26
REMARK   12  A    between atoms: N_25  and  C_27
REMARK                            x       y       z     vdW  Elec       q    Type
REMARK                         _______ _______ _______ _____ _____    ______ ____
ROOT
ATOM      1  C   UNL     1       4.953   5.550  18.118  0.00  0.00    +0.000 C 
ENDROOT
BRANCH   1   2
ATOM      2  N   UNL     1       6.153   6.372  18.536  0.00  0.00    +0.000 NA
ATOM      3  C   UNL     1       7.228   5.617  19.181  0.00  0.00    +0.000 C 
ATOM      4  C   UNL     1       6.747   7.177  17.464  0.00  0.00    +0.000 C 
ENDBRANCH   1   2
BRANCH   1   5
ATOM      5  C   UNL     1       5.206   4.005  17.943  0.00  0.00    +0.000 C 
BRANCH   5   6
ATOM      6  O   UNL     1       4.980   3.512  16.616  0.00  0.00    +0.000 OA
BRANCH   6   7
ATOM      7  C   UNL     1       4.752   4.585  15.690  0.00  0.00    +0.000 C 
BRANCH   7  14
ATOM      8  C   UNL     1       5.611   2.175  11.335  0.00  0.00    +0.000 C 
ATOM      9  C   UNL     1       5.979   3.249  12.315  0.00  0.00    +0.000 A 
ATOM     10  C   UNL     1       7.132   4.019  12.123  0.00  0.00    +0.000 A 
ATOM     11  C   UNL     1       7.501   4.992  13.061  0.00  0.00    +0.000 A 
ATOM     12  C   UNL     1       8.735   5.823  12.849  0.00  0.00    +0.000 C 
ATOM     13  C   UNL     1       6.707   5.179  14.202  0.00  0.00    +0.000 A 
ATOM     14  C   UNL     1       5.550   4.411  14.416  0.00  0.00    +0.000 A 
ATOM     15  C   UNL     1       5.202   3.445  13.463  0.00  0.00    +0.000 A 
ENDBRANCH   7  14
ENDBRANCH   6   7
ENDBRANCH   5   6
ENDBRANCH   1   5
BRANCH   1  16
ATOM     16  C   UNL     1       3.730   5.741  19.141  0.00  0.00    +0.000 C 
BRANCH  16  17
ATOM     17  C   UNL     1       2.976   7.083  19.005  0.00  0.00    +0.000 A 
ATOM     18  C   UNL     1       2.979   7.820  17.808  0.00  0.00    +0.000 A 
ATOM     19  C   UNL     1       2.132   8.920  17.640  0.00  0.00    +0.000 A 
ATOM     20  C   UNL     1       1.283   9.316  18.670  0.00  0.00    +0.000 A 
ATOM     21  C   UNL     1       1.304   8.634  19.883  0.00  0.00    +0.000 A 
ATOM     22  C   UNL     1       2.149   7.531  20.053  0.00  0.00    +0.000 A 
ENDBRANCH  16  17
BRANCH  16  23
ATOM     23  C   UNL     1       2.780   4.533  19.330  0.00  0.00    +0.000 A 
ATOM     24  C   UNL     1       2.731   3.763  20.503  0.00  0.00    +0.000 A 
ATOM     25  C   UNL     1       1.857   2.679  20.637  0.00  0.00    +0.000 A 
ATOM     26  C   UNL     1       0.997   2.351  19.599  0.00  0.00    +0.000 A 
ATOM     27  C   UNL     1       1.003   3.112  18.434  0.00  0.00    +0.000 A 
ATOM     28  C   UNL     1       1.879   4.194  18.304  0.00  0.00    +0.000 A 
ENDBRANCH  16  23
ENDBRANCH   1  16
TORSDOF 8
ENDMDL
MODEL 3
REMARK VINA RESULT:      -7.7      1.259      3.655
REMARK  Name = 
REMARK  12 active torsions:
REMARK  status: ('A' for Active; 'I' for Inactive)
REMARK    1  A    between atoms: C_1  and  C_2
REMARK    2  A    between atoms: C_4  and  C_5
REMARK    3  A    between atoms: C_7  and  C_8
REMARK    4  A    between atoms: C_8  and  O_9
REMARK    5  A    between atoms: O_9  and  C_10
REMARK    6  A    between atoms: C_10  and  C_11
REMARK    7  A    between atoms: C_11  and  C_12
REMARK    8  A    between atoms: C_11  and  N_25
REMARK    9  A    between atoms: C_12  and  C_13
REMARK   10  A    between atoms: C_12  and  C_19
REMARK   11  A    between atoms: N_25  and  C_26
REMARK   12  A    between atoms: N_25  and  C_27
REMARK                            x       y       z     vdW  Elec       q    Type
REMARK                         _______ _______ _______ _____ _____    ______ ____
ROOT
ATOM      1  C   UNL     1       3.248   4.508  18.634  0.00  0.00    +0.000 C 
ENDROOT
BRANCH   1   2
ATOM      2  N   UNL     1       1.736   4.474  18.673  0.00  0.00    +0.000 NA
ATOM      3  C   UNL     1       1.090   4.088  17.418  0.00  0.00    +0.000 C 
ATOM      4  C   UNL     1       1.170   3.648  19.744  0.00  0.00    +0.000 C 
ENDBRANCH   1   2
BRANCH   1   5
ATOM      5  C   UNL     1       3.938   3.383  17.772  0.00  0.00    +0.000 C 
BRANCH   5   6
ATOM      6  O   UNL     1       4.317   3.794  16.452  0.00  0.00    +0.000 OA
BRANCH   6   7
ATOM      7  C   UNL     1       5.726   3.628  16.235  0.00  0.00    +0.000 C 
BRANCH   7  14
ATOM      8  C   UNL     1       8.594   5.906  12.758  0.00  0.00    +0.000 C 
ATOM      9  C   UNL     1       7.480   4.963  13.101  0.00  0.00    +0.000 A 
ATOM     10  C   UNL     1       6.704   4.384  12.091  0.00  0.00    +0.000 A 
ATOM     11  C   UNL     1       5.634   3.538  12.412  0.00  0.00    +0.000 A 
ATOM     12  C   UNL     1       4.807   2.912  11.325  0.00  0.00    +0.000 C 
ATOM     13  C   UNL     1       5.343   3.285  13.760  0.00  0.00    +0.000 A 
ATOM     14  C   UNL     1       6.107   3.861  14.789  0.00  0.00    +0.000 A 
ATOM     15  C   UNL     1       7.171   4.704  14.442  0.00  0.00    +0.000 A 
ENDBRANCH   7  14
ENDBRANCH   6   7
ENDBRANCH   5   6
ENDBRANCH   1   5
BRANCH   1  16
ATOM     16  C   UNL     1       3.787   5.929  18.119  0.00  0.00    +0.000 C 
BRANCH  16  17
ATOM     17  C   UNL     1       2.944   7.144  18.571  0.00  0.00    +0.000 A 
ATOM     18  C   UNL     1       2.527   8.136  17.668  0.00  0.00    +0.000 A 
ATOM     19  C   UNL     1       1.601   9.112  18.051  0.00  0.00    +0.000 A 
ATOM     20  C   UNL     1       1.093   9.128  19.348  0.00  0.00    +0.000 A 
ATOM     21  C   UNL     1       1.535   8.187  20.274  0.00  0.00    +0.000 A 
ATOM     22  C   UNL     1       2.459   7.207  19.891  0.00  0.00    +0.000 A 
ENDBRANCH  16  17
BRANCH  16  23
ATOM     23  C   UNL     1       5.311   6.182  18.225  0.00  0.00    +0.000 A 
ATOM     24  C   UNL     1       6.016   7.036  17.363  0.00  0.00    +0.000 A 
ATOM     25  C   UNL     1       7.394   7.239  17.492  0.00  0.00    +0.000 A 
ATOM     26  C   UNL     1       8.097   6.600  18.504  0.00  0.00    +0.000 A 
ATOM     27  C   UNL     1       7.420   5.769  19.391  0.00  0.00    +0.000 A 
ATOM     28  C   UNL     1       6.043   5.568  19.258  0.00  0.00    +0.000 A 
ENDBRANCH  16  23
ENDBRANCH   1  16
TORSDOF 8
ENDMDL
MODEL 4
REMARK VINA RESULT:      -7.6      0.882      2.125
REMARK  Name = 
REMARK  12 active torsions:
REMARK  status: ('A' for Active; 'I' for Inactive)
REMARK    1  A    between atoms: C_1  and  C_2
REMARK    2  A    between atoms: C_4  and  C_5
REMARK    3  A    between atoms: C_7  and  C_8
REMARK    4  A    between atoms: C_8  and  O_9
REMARK    5  A    between atoms: O_9  and  C_10
REMARK    6  A    between atoms: C_10  and  C_11
REMARK    7  A    between atoms: C_11  and  C_12
REMARK    8  A    between atoms: C_11  and  N_25
REMARK    9  A    between atoms: C_12  and  C_13
REMARK   10  A    between atoms: C_12  and  C_19
REMARK   11  A    between atoms: N_25  and  C_26
REMARK   12  A    between atoms: N_25  and  C_27
REMARK                            x       y       z     vdW  Elec       q    Type
REMARK                         _______ _______ _______ _____ _____    ______ ____
ROOT
ATOM      1  C   UNL     1       4.511   6.156  18.762  0.00  0.00    +0.000 C 
ENDROOT
BRANCH   1   2
ATOM      2  N   UNL     1       5.523   5.295  19.486  0.00  0.00    +0.000 NA
ATOM      3  C   UNL     1       5.356   3.853  19.303  0.00  0.00    +0.000 C 
ATOM      4  C   UNL     1       6.923   5.626  19.202  0.00  0.00    +0.000 C 
ENDBRANCH   1   2
BRANCH   1   5
ATOM      5  C   UNL     1       4.175   5.724  17.284  0.00  0.00    +0.000 C 
BRANCH   5   6
ATOM      6  O   UNL     1       5.321   5.517  16.449  0.00  0.00    +0.000 OA
BRANCH   6   7
ATOM      7  C   UNL     1       5.325   4.200  15.880  0.00  0.00    +0.000 C 
BRANCH   7  14
ATOM      8  C   UNL     1       5.653   2.190  11.258  0.00  0.00    +0.000 C 
ATOM      9  C   UNL     1       6.094   3.218  12.258  0.00  0.00    +0.000 A 
ATOM     10  C   UNL     1       7.144   4.094  11.958  0.00  0.00    +0.000 A 
ATOM     11  C   UNL     1       7.586   5.024  12.907  0.00  0.00    +0.000 A 
ATOM     12  C   UNL     1       8.708   5.969  12.580  0.00  0.00    +0.000 C 
ATOM     13  C   UNL     1       6.972   5.061  14.167  0.00  0.00    +0.000 A 
ATOM     14  C   UNL     1       5.921   4.186  14.489  0.00  0.00    +0.000 A 
ATOM     15  C   UNL     1       5.497   3.265  13.523  0.00  0.00    +0.000 A 
ENDBRANCH   7  14
ENDBRANCH   6   7
ENDBRANCH   5   6
ENDBRANCH   1   5
BRANCH   1  16
ATOM     16  C   UNL     1       3.132   6.248  19.579  0.00  0.00    +0.000 C 
BRANCH  16  17
ATOM     17  C   UNL     1       2.344   7.561  19.373  0.00  0.00    +0.000 A 
ATOM     18  C   UNL     1       2.222   8.165  18.110  0.00  0.00    +0.000 A 
ATOM     19  C   UNL     1       1.343   9.234  17.907  0.00  0.00    +0.000 A 
ATOM     20  C   UNL     1       0.586   9.732  18.965  0.00  0.00    +0.000 A 
ATOM     21  C   UNL     1       0.733   9.183  20.236  0.00  0.00    +0.000 A 
ATOM     22  C   UNL     1       1.610   8.112  20.441  0.00  0.00    +0.000 A 
ENDBRANCH  16  17
BRANCH  16  23
ATOM     23  C   UNL     1       2.225   4.993  19.566  0.00  0.00    +0.000 A 
ATOM     24  C   UNL     1       1.720   4.415  18.390  0.00  0.00    +0.000 A 
ATOM     25  C   UNL     1       0.904   3.279  18.419  0.00  0.00    +0.000 A 
ATOM     26  C   UNL     1       0.587   2.685  19.632  0.00  0.00    +0.000 A 
ATOM     27  C   UNL     1       1.096   3.219  20.812  0.00  0.00    +0.000 A 
ATOM     28  C   UNL     1       1.910   4.355  20.779  0.00  0.00    +0.000 A 
ENDBRANCH  16  23
ENDBRANCH   1  16
TORSDOF 8
ENDMDL
MODEL 5
REMARK VINA RESULT:      -7.6      0.927      1.361
REMARK  Name = 
REMARK  12 active torsions:
REMARK  status: ('A' for Active; 'I' for Inactive)
REMARK    1  A    between atoms: C_1  and  C_2
REMARK    2  A    between atoms: C_4  and  C_5
REMARK    3  A    between atoms: C_7  and  C_8
REMARK    4  A    between atoms: C_8  and  O_9
REMARK    5  A    between atoms: O_9  and  C_10
REMARK    6  A    between atoms: C_10  and  C_11
REMARK    7  A    between atoms: C_11  and  C_12
REMARK    8  A    between atoms: C_11  and  N_25
REMARK    9  A    between atoms: C_12  and  C_13
REMARK   10  A    between atoms: C_12  and  C_19
REMARK   11  A    between atoms: N_25  and  C_26
REMARK   12  A    between atoms: N_25  and  C_27
REMARK                            x       y       z     vdW  Elec       q    Type
REMARK                         _______ _______ _______ _____ _____    ______ ____
ROOT
ATOM      1  C   UNL     1       3.871   5.776  17.653  0.00  0.00    +0.000 C 
ENDROOT
BRANCH   1   2
ATOM      2  N   UNL     1       4.835   6.872  17.258  0.00  0.00    +0.000 NA
ATOM      3  C   UNL     1       6.200   6.711  17.761  0.00  0.00    +0.000 C 
ATOM      4  C   UNL     1       4.914   7.128  15.816  0.00  0.00    +0.000 C 
ENDBRANCH   1   2
BRANCH   1   5
ATOM      5  C   UNL     1       4.476   4.322  17.726  0.00  0.00    +0.000 C 
BRANCH   5   6
ATOM      6  O   UNL     1       4.708   3.710  16.452  0.00  0.00    +0.000 OA
BRANCH   6   7
ATOM      7  C   UNL     1       6.107   3.673  16.135  0.00  0.00    +0.000 C 
BRANCH   7  14
ATOM      8  C   UNL     1       8.600   6.000  12.409  0.00  0.00    +0.000 C 
ATOM      9  C   UNL     1       7.551   5.025  12.853  0.00  0.00    +0.000 A 
ATOM     10  C   UNL     1       6.714   4.409  11.916  0.00  0.00    +0.000 A 
ATOM     11  C   UNL     1       5.704   3.532  12.333  0.00  0.00    +0.000 A 
ATOM     12  C   UNL     1       4.812   2.865  11.325  0.00  0.00    +0.000 C 
ATOM     13  C   UNL     1       5.534   3.286  13.703  0.00  0.00    +0.000 A 
ATOM     14  C   UNL     1       6.360   3.900  14.660  0.00  0.00    +0.000 A 
ATOM     15  C   UNL     1       7.362   4.772  14.218  0.00  0.00    +0.000 A 
ENDBRANCH   7  14
ENDBRANCH   6   7
ENDBRANCH   5   6
ENDBRANCH   1   5
BRANCH   1  16
ATOM     16  C   UNL     1       3.171   6.095  19.062  0.00  0.00    +0.000 C 
BRANCH  16  17
ATOM     17  C   UNL     1       2.398   7.432  19.113  0.00  0.00    +0.000 A 
ATOM     18  C   UNL     1       2.113   8.171  17.952  0.00  0.00    +0.000 A 
ATOM     19  C   UNL     1       1.243   9.265  17.993  0.00  0.00    +0.000 A 
ATOM     20  C   UNL     1       0.661   9.655  19.197  0.00  0.00    +0.000 A 
ATOM     21  C   UNL     1       0.973   8.971  20.368  0.00  0.00    +0.000 A 
ATOM     22  C   UNL     1       1.841   7.873  20.329  0.00  0.00    +0.000 A 
ENDBRANCH  16  17
BRANCH  16  23
ATOM     23  C   UNL     1       2.408   4.932  19.745  0.00  0.00    +0.000 A 
ATOM     24  C   UNL     1       1.373   4.216  19.124  0.00  0.00    +0.000 A 
ATOM     25  C   UNL     1       0.709   3.170  19.774  0.00  0.00    +0.000 A 
ATOM     26  C   UNL     1       1.080   2.807  21.060  0.00  0.00    +0.000 A 
ATOM     27  C   UNL     1       2.122   3.480  21.691  0.00  0.00    +0.000 A 
ATOM     28  C   UNL     1       2.782   4.526  21.039  0.00  0.00    +0.000 A 
ENDBRANCH  16  23
ENDBRANCH   1  16
TORSDOF 8
ENDMDL
MODEL 6
REMARK VINA RESULT:      -7.6      0.837      1.326
REMARK  Name = 
REMARK  12 active torsions:
REMARK  status: ('A' for Active; 'I' for Inactive)
REMARK    1  A    between atoms: C_1  and  C_2
REMARK    2  A    between atoms: C_4  and  C_5
REMARK    3  A    between atoms: C_7  and  C_8
REMARK    4  A    between atoms: C_8  and  O_9
REMARK    5  A    between atoms: O_9  and  C_10
REMARK    6  A    between atoms: C_10  and  C_11
REMARK    7  A    between atoms: C_11  and  C_12
REMARK    8  A    between atoms: C_11  and  N_25
REMARK    9  A    between atoms: C_12  and  C_13
REMARK   10  A    between atoms: C_12  and  C_19
REMARK   11  A    between atoms: N_25  and  C_26
REMARK   12  A    between atoms: N_25  and  C_27
REMARK                            x       y       z     vdW  Elec       q    Type
REMARK                         _______ _______ _______ _____ _____    ______ ____
ROOT
ATOM      1  C   UNL     1       4.507   6.045  18.631  0.00  0.00    +0.000 C 
ENDROOT
BRANCH   1   2
ATOM      2  N   UNL     1       5.618   5.311  19.350  0.00  0.00    +0.000 NA
ATOM      3  C   UNL     1       5.543   3.851  19.284  0.00  0.00    +0.000 C 
ATOM      4  C   UNL     1       6.972   5.711  18.955  0.00  0.00    +0.000 C 
ENDBRANCH   1   2
BRANCH   1   5
ATOM      5  C   UNL     1       4.048   5.421  17.259  0.00  0.00    +0.000 C 
BRANCH   5   6
ATOM      6  O   UNL     1       5.047   5.446  16.231  0.00  0.00    +0.000 OA
BRANCH   6   7
ATOM      7  C   UNL     1       5.441   4.119  15.851  0.00  0.00    +0.000 C 
BRANCH   7  14
ATOM      8  C   UNL     1       8.610   6.101  12.454  0.00  0.00    +0.000 C 
ATOM      9  C   UNL     1       7.613   5.046  12.834  0.00  0.00    +0.000 A 
ATOM     10  C   UNL     1       7.187   4.102  11.894  0.00  0.00    +0.000 A 
ATOM     11  C   UNL     1       6.224   3.144  12.235  0.00  0.00    +0.000 A 
ATOM     12  C   UNL     1       5.773   2.125  11.227  0.00  0.00    +0.000 C 
ATOM     13  C   UNL     1       5.683   3.148  13.529  0.00  0.00    +0.000 A 
ATOM     14  C   UNL     1       6.093   4.092  14.485  0.00  0.00    +0.000 A 
ATOM     15  C   UNL     1       7.058   5.040  14.119  0.00  0.00    +0.000 A 
ENDBRANCH   7  14
ENDBRANCH   6   7
ENDBRANCH   5   6
ENDBRANCH   1   5
BRANCH   1  16
ATOM     16  C   UNL     1       3.211   6.200  19.565  0.00  0.00    +0.000 C 
BRANCH  16  17
ATOM     17  C   UNL     1       2.414   7.508  19.355  0.00  0.00    +0.000 A 
ATOM     18  C   UNL     1       2.333   8.135  18.100  0.00  0.00    +0.000 A 
ATOM     19  C   UNL     1       1.449   9.197  17.884  0.00  0.00    +0.000 A 
ATOM     20  C   UNL     1       0.646   9.665  18.921  0.00  0.00    +0.000 A 
ATOM     21  C   UNL     1       0.751   9.094  20.187  0.00  0.00    +0.000 A 
ATOM     22  C   UNL     1       1.633   8.029  20.404  0.00  0.00    +0.000 A 
ENDBRANCH  16  17
BRANCH  16  23
ATOM     23  C   UNL     1       2.299   4.957  19.711  0.00  0.00    +0.000 A 
ATOM     24  C   UNL     1       1.607   4.374  18.637  0.00  0.00    +0.000 A 
ATOM     25  C   UNL     1       0.793   3.250  18.810  0.00  0.00    +0.000 A 
ATOM     26  C   UNL     1       0.667   2.671  20.064  0.00  0.00    +0.000 A 
ATOM     27  C   UNL     1       1.363   3.210  21.142  0.00  0.00    +0.000 A 
ATOM     28  C   UNL     1       2.174   4.335  20.967  0.00  0.00    +0.000 A 
ENDBRANCH  16  23
ENDBRANCH   1  16
TORSDOF 8
ENDMDL
MODEL 7
REMARK VINA RESULT:      -7.5      1.769      7.906
REMARK  Name = 
REMARK  12 active torsions:
REMARK  status: ('A' for Active; 'I' for Inactive)
REMARK    1  A    between atoms: C_1  and  C_2
REMARK    2  A    between atoms: C_4  and  C_5
REMARK    3  A    between atoms: C_7  and  C_8
REMARK    4  A    between atoms: C_8  and  O_9
REMARK    5  A    between atoms: O_9  and  C_10
REMARK    6  A    between atoms: C_10  and  C_11
REMARK    7  A    between atoms: C_11  and  C_12
REMARK    8  A    between atoms: C_11  and  N_25
REMARK    9  A    between atoms: C_12  and  C_13
REMARK   10  A    between atoms: C_12  and  C_19
REMARK   11  A    between atoms: N_25  and  C_26
REMARK   12  A    between atoms: N_25  and  C_27
REMARK                            x       y       z     vdW  Elec       q    Type
REMARK                         _______ _______ _______ _____ _____    ______ ____
ROOT
ATOM      1  C   UNL     1       4.172   4.639  17.061  0.00  0.00    +0.000 C 
ENDROOT
BRANCH   1   2
ATOM      2  N   UNL     1       3.764   3.294  17.621  0.00  0.00    +0.000 NA
ATOM      3  C   UNL     1       4.254   3.008  18.970  0.00  0.00    +0.000 C 
ATOM      4  C   UNL     1       2.320   3.036  17.603  0.00  0.00    +0.000 C 
ENDBRANCH   1   2
BRANCH   1   5
ATOM      5  C   UNL     1       3.914   5.880  17.997  0.00  0.00    +0.000 C 
BRANCH   5   6
ATOM      6  O   UNL     1       2.720   6.613  17.696  0.00  0.00    +0.000 OA
BRANCH   6   7
ATOM      7  C   UNL     1       2.929   8.028  17.814  0.00  0.00    +0.000 C 
BRANCH   7  14
ATOM      8  C   UNL     1       0.525   8.818  22.186  0.00  0.00    +0.000 C 
ATOM      9  C   UNL     1       0.656   9.079  20.714  0.00  0.00    +0.000 A 
ATOM     10  C   UNL     1      -0.303   9.844  20.042  0.00  0.00    +0.000 A 
ATOM     11  C   UNL     1      -0.206  10.051  18.660  0.00  0.00    +0.000 A 
ATOM     12  C   UNL     1      -1.233  10.880  17.941  0.00  0.00    +0.000 C 
ATOM     13  C   UNL     1       0.860   9.475  17.955  0.00  0.00    +0.000 A 
ATOM     14  C   UNL     1       1.830   8.698  18.611  0.00  0.00    +0.000 A 
ATOM     15  C   UNL     1       1.711   8.506  19.993  0.00  0.00    +0.000 A 
ENDBRANCH   7  14
ENDBRANCH   6   7
ENDBRANCH   5   6
ENDBRANCH   1   5
BRANCH   1  16
ATOM     16  C   UNL     1       5.720   4.648  16.637  0.00  0.00    +0.000 C 
BRANCH  16  17
ATOM     17  C   UNL     1       5.977   4.550  15.116  0.00  0.00    +0.000 A 
ATOM     18  C   UNL     1       7.186   4.970  14.538  0.00  0.00    +0.000 A 
ATOM     19  C   UNL     1       7.478   4.689  13.200  0.00  0.00    +0.000 A 
ATOM     20  C   UNL     1       6.559   4.002  12.410  0.00  0.00    +0.000 A 
ATOM     21  C   UNL     1       5.332   3.625  12.948  0.00  0.00    +0.000 A 
ATOM     22  C   UNL     1       5.039   3.903  14.288  0.00  0.00    +0.000 A 
ENDBRANCH  16  17
BRANCH  16  23
ATOM     23  C   UNL     1       6.631   5.689  17.335  0.00  0.00    +0.000 A 
ATOM     24  C   UNL     1       6.750   7.022  16.911  0.00  0.00    +0.000 A 
ATOM     25  C   UNL     1       7.583   7.933  17.569  0.00  0.00    +0.000 A 
ATOM     26  C   UNL     1       8.306   7.531  18.682  0.00  0.00    +0.000 A 
ATOM     27  C   UNL     1       8.188   6.223  19.143  0.00  0.00    +0.000 A 
ATOM     28  C   UNL     1       7.356   5.315  18.481  0.00  0.00    +0.000 A 
ENDBRANCH  16  23
ENDBRANCH   1  16
TORSDOF 8
ENDMDL
MODEL 8
REMARK VINA RESULT:      -7.5      3.332      7.910
REMARK  Name = 
REMARK  12 active torsions:
REMARK  status: ('A' for Active; 'I' for Inactive)
REMARK    1  A    between atoms: C_1  and  C_2
REMARK    2  A    between atoms: C_4  and  C_5
REMARK    3  A    between atoms: C_7  and  C_8
REMARK    4  A    between atoms: C_8  and  O_9
REMARK    5  A    between atoms: O_9  and  C_10
REMARK    6  A    between atoms: C_10  and  C_11
REMARK    7  A    between atoms: C_11  and  C_12
REMARK    8  A    between atoms: C_11  and  N_25
REMARK    9  A    between atoms: C_12  and  C_13
REMARK   10  A    between atoms: C_12  and  C_19
REMARK   11  A    between atoms: N_25  and  C_26
REMARK   12  A    between atoms: N_25  and  C_27
REMARK                            x       y       z     vdW  Elec       q    Type
REMARK                         _______ _______ _______ _____ _____    ______ ____
ROOT
ATOM      1  C   UNL     1       3.259   6.778  19.032  0.00  0.00    +0.000 C 
ENDROOT
BRANCH   1   2
ATOM      2  N   UNL     1       4.010   5.506  18.705  0.00  0.00    +0.000 NA
ATOM      3  C   UNL     1       4.174   5.231  17.277  0.00  0.00    +0.000 C 
ATOM      4  C   UNL     1       5.327   5.392  19.340  0.00  0.00    +0.000 C 
ENDBRANCH   1   2
BRANCH   1   5
ATOM      5  C   UNL     1       3.036   7.773  17.830  0.00  0.00    +0.000 C 
BRANCH   5   6
ATOM      6  O   UNL     1       1.729   8.359  17.778  0.00  0.00    +0.000 OA
BRANCH   6   7
ATOM      7  C   UNL     1       1.778   9.772  18.021  0.00  0.00    +0.000 C 
BRANCH   7  14
ATOM      8  C   UNL     1      -3.242  10.066  17.550  0.00  0.00    +0.000 C 
ATOM      9  C   UNL     1      -1.981  10.471  18.255  0.00  0.00    +0.000 A 
ATOM     10  C   UNL     1      -2.013  11.443  19.261  0.00  0.00    +0.000 A 
ATOM     11  C   UNL     1      -0.831  11.855  19.889  0.00  0.00    +0.000 A 
ATOM     12  C   UNL     1      -0.868  12.893  20.974  0.00  0.00    +0.000 C 
ATOM     13  C   UNL     1       0.388  11.288  19.492  0.00  0.00    +0.000 A 
ATOM     14  C   UNL     1       0.442  10.314  18.479  0.00  0.00    +0.000 A 
ATOM     15  C   UNL     1      -0.754   9.920  17.867  0.00  0.00    +0.000 A 
ENDBRANCH   7  14
ENDBRANCH   6   7
ENDBRANCH   5   6
ENDBRANCH   1   5
BRANCH   1  16
ATOM     16  C   UNL     1       1.828   6.459  19.686  0.00  0.00    +0.000 C 
BRANCH  16  17
ATOM     17  C   UNL     1       1.635   4.994  20.138  0.00  0.00    +0.000 A 
ATOM     18  C   UNL     1       1.050   4.029  19.302  0.00  0.00    +0.000 A 
ATOM     19  C   UNL     1       1.068   2.674  19.647  0.00  0.00    +0.000 A 
ATOM     20  C   UNL     1       1.651   2.261  20.843  0.00  0.00    +0.000 A 
ATOM     21  C   UNL     1       2.186   3.207  21.712  0.00  0.00    +0.000 A 
ATOM     22  C   UNL     1       2.172   4.564  21.367  0.00  0.00    +0.000 A 
ENDBRANCH  16  17
BRANCH  16  23
ATOM     23  C   UNL     1       1.282   7.483  20.712  0.00  0.00    +0.000 A 
ATOM     24  C   UNL     1       2.102   8.355  21.446  0.00  0.00    +0.000 A 
ATOM     25  C   UNL     1       1.570   9.267  22.363  0.00  0.00    +0.000 A 
ATOM     26  C   UNL     1       0.198   9.338  22.554  0.00  0.00    +0.000 A 
ATOM     27  C   UNL     1      -0.642   8.506  21.820  0.00  0.00    +0.000 A 
ATOM     28  C   UNL     1      -0.107   7.594  20.906  0.00  0.00    +0.000 A 
ENDBRANCH  16  23
ENDBRANCH   1  16
TORSDOF 8
ENDMDL
MODEL 9
REMARK VINA RESULT:      -7.5      3.332      7.724
REMARK  Name = 
REMARK  12 active torsions:
REMARK  status: ('A' for Active; 'I' for Inactive)
REMARK    1  A    between atoms: C_1  and  C_2
REMARK    2  A    between atoms: C_4  and  C_5
REMARK    3  A    between atoms: C_7  and  C_8
REMARK    4  A    between atoms: C_8  and  O_9
REMARK    5  A    between atoms: O_9  and  C_10
REMARK    6  A    between atoms: C_10  and  C_11
REMARK    7  A    between atoms: C_11  and  C_12
REMARK    8  A    between atoms: C_11  and  N_25
REMARK    9  A    between atoms: C_12  and  C_13
REMARK   10  A    between atoms: C_12  and  C_19
REMARK   11  A    between atoms: N_25  and  C_26
REMARK   12  A    between atoms: N_25  and  C_27
REMARK                            x       y       z     vdW  Elec       q    Type
REMARK                         _______ _______ _______ _____ _____    ______ ____
ROOT
ATOM      1  C   UNL     1       3.339   6.803  19.097  0.00  0.00    +0.000 C 
ENDROOT
BRANCH   1   2
ATOM      2  N   UNL     1       4.096   5.538  18.759  0.00  0.00    +0.000 NA
ATOM      3  C   UNL     1       4.240   5.264  17.329  0.00  0.00    +0.000 C 
ATOM      4  C   UNL     1       5.424   5.436  19.374  0.00  0.00    +0.000 C 
ENDBRANCH   1   2
BRANCH   1   5
ATOM      5  C   UNL     1       3.171   7.838  17.921  0.00  0.00    +0.000 C 
BRANCH   5   6
ATOM      6  O   UNL     1       1.850   8.378  17.787  0.00  0.00    +0.000 OA
BRANCH   6   7
ATOM      7  C   UNL     1       1.854   9.809  17.890  0.00  0.00    +0.000 C 
BRANCH   7  14
ATOM      8  C   UNL     1      -0.892  12.703  20.988  0.00  0.00    +0.000 C 
ATOM      9  C   UNL     1      -0.820  11.734  19.845  0.00  0.00    +0.000 A 
ATOM     10  C   UNL     1      -1.991  11.226  19.272  0.00  0.00    +0.000 A 
ATOM     11  C   UNL     1      -1.925  10.287  18.234  0.00  0.00    +0.000 A 
ATOM     12  C   UNL     1      -3.184   9.749  17.615  0.00  0.00    +0.000 C 
ATOM     13  C   UNL     1      -0.671   9.854  17.782  0.00  0.00    +0.000 A 
ATOM     14  C   UNL     1       0.516  10.348  18.349  0.00  0.00    +0.000 A 
ATOM     15  C   UNL     1       0.424  11.285  19.385  0.00  0.00    +0.000 A 
ENDBRANCH   7  14
ENDBRANCH   6   7
ENDBRANCH   5   6
ENDBRANCH   1   5
BRANCH   1  16
ATOM     16  C   UNL     1       1.880   6.471  19.679  0.00  0.00    +0.000 C 
BRANCH  16  17
ATOM     17  C   UNL     1       1.678   5.005  20.126  0.00  0.00    +0.000 A 
ATOM     18  C   UNL     1       1.127   4.037  19.270  0.00  0.00    +0.000 A 
ATOM     19  C   UNL     1       1.139   2.682  19.616  0.00  0.00    +0.000 A 
ATOM     20  C   UNL     1       1.683   2.273  20.831  0.00  0.00    +0.000 A 
ATOM     21  C   UNL     1       2.185   3.222  21.717  0.00  0.00    +0.000 A 
ATOM     22  C   UNL     1       2.176   4.578  21.372  0.00  0.00    +0.000 A 
ENDBRANCH  16  17
BRANCH  16  23
ATOM     23  C   UNL     1       1.274   7.492  20.674  0.00  0.00    +0.000 A 
ATOM     24  C   UNL     1      -0.105   7.625  20.902  0.00  0.00    +0.000 A 
ATOM     25  C   UNL     1      -0.614   8.559  21.811  0.00  0.00    +0.000 A 
ATOM     26  C   UNL     1       0.252   9.373  22.527  0.00  0.00    +0.000 A 
ATOM     27  C   UNL     1       1.625   9.244  22.342  0.00  0.00    +0.000 A 
ATOM     28  C   UNL     1       2.130   8.311  21.432  0.00  0.00    +0.000 A 
ENDBRANCH  16  23
ENDBRANCH   1  16
TORSDOF 8
ENDMDL
