MODEL 1
REMARK VINA RESULT:      -7.4      0.000      0.000
REMARK  Name = 
REMARK  5 active torsions:
REMARK  status: ('A' for Active; 'I' for Inactive)
REMARK    1  A    between atoms: C_1  and  S_2
REMARK    2  A    between atoms: S_2  and  C_3
REMARK    3  A    between atoms: C_6  and  C_7
REMARK    4  A    between atoms: C_7  and  N_8
REMARK    5  A    between atoms: N_15  and  C_16
REMARK                            x       y       z     vdW  Elec       q    Type
REMARK                         _______ _______ _______ _____ _____    ______ ____
ROOT
ATOM      1  N   UNL     1       4.203   4.903  18.855  0.00  0.00    +0.000 NA
ATOM      2  C   UNL     1       3.620   4.463  20.136  0.00  0.00    +0.000 C 
ATOM      3  C   UNL     1       2.096   4.630  20.233  0.00  0.00    +0.000 C 
ATOM      4  C   UNL     1       1.394   3.932  19.062  0.00  0.00    +0.000 C 
ATOM      5  C   UNL     1       2.087   4.180  17.732  0.00  0.00    +0.000 C 
ATOM      6  C   UNL     1       3.183   5.247  17.839  0.00  0.00    +0.000 C 
ATOM      7  C   UNL     1       2.546   6.653  18.104  0.00  0.00    +0.000 C 
ATOM      8  N   UNL     1       2.389   7.062  19.507  0.00  0.00    +0.000 NA
ATOM      9  C   UNL     1       1.682   6.108  20.361  0.00  0.00    +0.000 C 
ENDROOT
BRANCH   8  10
ATOM     10  C   UNL     1       1.928   8.450  19.716  0.00  0.00    +0.000 C 
ATOM     11  C   UNL     1       0.879   8.625  20.828  0.00  0.00    +0.000 C 
ATOM     12  C   UNL     1       0.482  10.088  20.947  0.00  0.00    +0.000 C 
ATOM     13  O   UNL     1      -0.005  10.584  19.702  0.00  0.00    +0.000 OA
ATOM     14  C   UNL     1       0.988  10.534  18.677  0.00  0.00    +0.000 C 
ATOM     15  C   UNL     1       1.423   9.100  18.416  0.00  0.00    +0.000 C 
ENDBRANCH   8  10
BRANCH   1  16
ATOM     16  C   UNL     1       5.233   3.984  18.366  0.00  0.00    +0.000 C 
BRANCH  16  20
ATOM     17  C   UNL     1       6.905   4.898  14.609  0.00  0.00    +0.000 A 
ATOM     18  N   UNL     1       7.294   5.642  15.657  0.00  0.00    +0.000 NA
ATOM     19  C   UNL     1       6.716   5.357  16.841  0.00  0.00    +0.000 A 
ATOM     20  C   UNL     1       5.773   4.369  17.019  0.00  0.00    +0.000 A 
ATOM     21  C   UNL     1       5.416   3.702  15.865  0.00  0.00    +0.000 A 
ATOM     22  N   UNL     1       5.966   3.937  14.657  0.00  0.00    +0.000 NA
BRANCH  17  24
ATOM     23  C   UNL     1       6.976   3.872  12.081  0.00  0.00    +0.000 C 
ATOM     24  S   UNL     1       7.753   5.171  13.073  0.00  0.00    +0.000 S 
ENDBRANCH  17  24
ENDBRANCH  16  20
ENDBRANCH   1  16
TORSDOF 4
ENDMDL
MODEL 2
REMARK VINA RESULT:      -6.9      3.525      7.158
REMARK  Name = 
REMARK  5 active torsions:
REMARK  status: ('A' for Active; 'I' for Inactive)
REMARK    1  A    between atoms: C_1  and  S_2
REMARK    2  A    between atoms: S_2  and  C_3
REMARK    3  A    between atoms: C_6  and  C_7
REMARK    4  A    between atoms: C_7  and  N_8
REMARK    5  A    between atoms: N_15  and  C_16
REMARK                            x       y       z     vdW  Elec       q    Type
REMARK                         _______ _______ _______ _____ _____    ______ ____
ROOT
ATOM      1  N   UNL     1       2.443   5.229  19.609  0.00  0.00    +0.000 NA
ATOM      2  C   UNL     1       1.529   4.640  18.613  0.00  0.00    +0.000 C 
ATOM      3  C   UNL     1       1.920   3.229  18.146  0.00  0.00    +0.000 C 
ATOM      4  C   UNL     1       2.084   2.283  19.342  0.00  0.00    +0.000 C 
ATOM      5  C   UNL     1       2.841   2.923  20.495  0.00  0.00    +0.000 C 
ATOM      6  C   UNL     1       3.457   4.272  20.106  0.00  0.00    +0.000 C 
ATOM      7  C   UNL     1       4.616   4.062  19.075  0.00  0.00    +0.000 C 
ATOM      8  N   UNL     1       4.263   4.121  17.650  0.00  0.00    +0.000 NA
ATOM      9  C   UNL     1       3.167   3.243  17.241  0.00  0.00    +0.000 C 
ENDROOT
BRANCH   8  10
ATOM     10  C   UNL     1       5.401   4.072  16.710  0.00  0.00    +0.000 C 
ATOM     11  C   UNL     1       6.648   4.856  17.158  0.00  0.00    +0.000 C 
ATOM     12  C   UNL     1       7.746   4.733  16.113  0.00  0.00    +0.000 C 
ATOM     13  O   UNL     1       7.288   5.185  14.841  0.00  0.00    +0.000 OA
ATOM     14  C   UNL     1       6.199   4.402  14.352  0.00  0.00    +0.000 C 
ATOM     15  C   UNL     1       5.002   4.497  15.287  0.00  0.00    +0.000 C 
ENDBRANCH   8  10
BRANCH   1  16
ATOM     16  C   UNL     1       1.726   5.933  20.674  0.00  0.00    +0.000 C 
BRANCH  16  20
ATOM     17  C   UNL     1       0.977   9.982  19.784  0.00  0.00    +0.000 A 
ATOM     18  N   UNL     1       1.681   9.271  18.887  0.00  0.00    +0.000 NA
ATOM     19  C   UNL     1       1.941   7.989  19.212  0.00  0.00    +0.000 A 
ATOM     20  C   UNL     1       1.534   7.394  20.386  0.00  0.00    +0.000 A 
ATOM     21  C   UNL     1       0.860   8.234  21.250  0.00  0.00    +0.000 A 
ATOM     22  N   UNL     1       0.563   9.518  20.976  0.00  0.00    +0.000 NA
BRANCH  17  24
ATOM     23  C   UNL     1      -1.159  11.292  18.704  0.00  0.00    +0.000 C 
ATOM     24  S   UNL     1       0.511  11.630  19.312  0.00  0.00    +0.000 S 
ENDBRANCH  17  24
ENDBRANCH  16  20
ENDBRANCH   1  16
TORSDOF 4
ENDMDL
MODEL 3
REMARK VINA RESULT:      -6.8      0.522      1.078
REMARK  Name = 
REMARK  5 active torsions:
REMARK  status: ('A' for Active; 'I' for Inactive)
REMARK    1  A    between atoms: C_1  and  S_2
REMARK    2  A    between atoms: S_2  and  C_3
REMARK    3  A    between atoms: C_6  and  C_7
REMARK    4  A    between atoms: C_7  and  N_8
REMARK    5  A    between atoms: N_15  and  C_16
REMARK                            x       y       z     vdW  Elec       q    Type
REMARK                         _______ _______ _______ _____ _____    ______ ____
ROOT
ATOM      1  N   UNL     1       4.003   4.729  19.277  0.00  0.00    +0.000 NA
ATOM      2  C   UNL     1       3.324   4.447  20.554  0.00  0.00    +0.000 C 
ATOM      3  C   UNL     1       1.812   4.719  20.546  0.00  0.00    +0.000 C 
ATOM      4  C   UNL     1       1.127   3.964  19.400  0.00  0.00    +0.000 C 
ATOM      5  C   UNL     1       1.906   4.044  18.097  0.00  0.00    +0.000 C 
ATOM      6  C   UNL     1       3.065   5.045  18.176  0.00  0.00    +0.000 C 
ATOM      7  C   UNL     1       2.515   6.506  18.279  0.00  0.00    +0.000 C 
ATOM      8  N   UNL     1       2.312   7.051  19.628  0.00  0.00    +0.000 NA
ATOM      9  C   UNL     1       1.495   6.226  20.519  0.00  0.00    +0.000 C 
ENDROOT
BRANCH   8  10
ATOM     10  C   UNL     1       1.938   8.479  19.688  0.00  0.00    +0.000 C 
ATOM     11  C   UNL     1       0.893   8.833  20.761  0.00  0.00    +0.000 C 
ATOM     12  C   UNL     1       0.588  10.322  20.724  0.00  0.00    +0.000 C 
ATOM     13  O   UNL     1       0.143  10.716  19.427  0.00  0.00    +0.000 OA
ATOM     14  C   UNL     1       1.139  10.499  18.427  0.00  0.00    +0.000 C 
ATOM     15  C   UNL     1       1.485   9.022  18.321  0.00  0.00    +0.000 C 
ENDBRANCH   8  10
BRANCH   1  16
ATOM     16  C   UNL     1       4.992   3.706  18.933  0.00  0.00    +0.000 C 
BRANCH  16  20
ATOM     17  C   UNL     1       6.769   4.614  15.223  0.00  0.00    +0.000 A 
ATOM     18  N   UNL     1       5.678   3.830  15.211  0.00  0.00    +0.000 NA
ATOM     19  C   UNL     1       5.150   3.522  16.413  0.00  0.00    +0.000 A 
ATOM     20  C   UNL     1       5.664   3.957  17.614  0.00  0.00    +0.000 A 
ATOM     21  C   UNL     1       6.813   4.715  17.505  0.00  0.00    +0.000 A 
ATOM     22  N   UNL     1       7.379   5.063  16.333  0.00  0.00    +0.000 NA
BRANCH  17  24
ATOM     23  C   UNL     1       6.652   3.861  12.603  0.00  0.00    +0.000 C 
ATOM     24  S   UNL     1       7.396   5.138  13.646  0.00  0.00    +0.000 S 
ENDBRANCH  17  24
ENDBRANCH  16  20
ENDBRANCH   1  16
TORSDOF 4
ENDMDL
MODEL 4
REMARK VINA RESULT:      -6.7      0.489      1.111
REMARK  Name = 
REMARK  5 active torsions:
REMARK  status: ('A' for Active; 'I' for Inactive)
REMARK    1  A    between atoms: C_1  and  S_2
REMARK    2  A    between atoms: S_2  and  C_3
REMARK    3  A    between atoms: C_6  and  C_7
REMARK    4  A    between atoms: C_7  and  N_8
REMARK    5  A    between atoms: N_15  and  C_16
REMARK                            x       y       z     vdW  Elec       q    Type
REMARK                         _______ _______ _______ _____ _____    ______ ____
ROOT
ATOM      1  N   UNL     1       4.434   4.903  18.826  0.00  0.00    +0.000 NA
ATOM      2  C   UNL     1       3.967   4.496  20.164  0.00  0.00    +0.000 C 
ATOM      3  C   UNL     1       2.441   4.373  20.296  0.00  0.00    +0.000 C 
ATOM      4  C   UNL     1       1.874   3.432  19.225  0.00  0.00    +0.000 C 
ATOM      5  C   UNL     1       2.487   3.669  17.854  0.00  0.00    +0.000 C 
ATOM      6  C   UNL     1       3.352   4.934  17.816  0.00  0.00    +0.000 C 
ATOM      7  C   UNL     1       2.456   6.209  17.960  0.00  0.00    +0.000 C 
ATOM      8  N   UNL     1       2.240   6.726  19.318  0.00  0.00    +0.000 NA
ATOM      9  C   UNL     1       1.746   5.748  20.288  0.00  0.00    +0.000 C 
ENDROOT
BRANCH   8  10
ATOM     10  C   UNL     1       1.519   8.012  19.403  0.00  0.00    +0.000 C 
ATOM     11  C   UNL     1       1.976   9.080  18.393  0.00  0.00    +0.000 C 
ATOM     12  C   UNL     1       1.167  10.354  18.578  0.00  0.00    +0.000 C 
ATOM     13  O   UNL     1       1.276  10.835  19.916  0.00  0.00    +0.000 OA
ATOM     14  C   UNL     1       0.756   9.904  20.866  0.00  0.00    +0.000 C 
ATOM     15  C   UNL     1       1.535   8.598  20.825  0.00  0.00    +0.000 C 
ENDBRANCH   8  10
BRANCH   1  16
ATOM     16  C   UNL     1       5.618   4.156  18.398  0.00  0.00    +0.000 C 
BRANCH  16  20
ATOM     17  C   UNL     1       6.972   4.905  14.479  0.00  0.00    +0.000 A 
ATOM     18  N   UNL     1       7.314   5.789  15.432  0.00  0.00    +0.000 NA
ATOM     19  C   UNL     1       6.836   5.548  16.670  0.00  0.00    +0.000 A 
ATOM     20  C   UNL     1       6.037   4.474  16.992  0.00  0.00    +0.000 A 
ATOM     21  C   UNL     1       5.713   3.661  15.924  0.00  0.00    +0.000 A 
ATOM     22  N   UNL     1       6.168   3.845  14.670  0.00  0.00    +0.000 NA
BRANCH  17  24
ATOM     23  C   UNL     1       6.946   3.733  12.016  0.00  0.00    +0.000 C 
ATOM     24  S   UNL     1       7.702   5.133  12.877  0.00  0.00    +0.000 S 
ENDBRANCH  17  24
ENDBRANCH  16  20
ENDBRANCH   1  16
TORSDOF 4
ENDMDL
MODEL 5
REMARK VINA RESULT:      -6.6      3.485      7.220
REMARK  Name = 
REMARK  5 active torsions:
REMARK  status: ('A' for Active; 'I' for Inactive)
REMARK    1  A    between atoms: C_1  and  S_2
REMARK    2  A    between atoms: S_2  and  C_3
REMARK    3  A    between atoms: C_6  and  C_7
REMARK    4  A    between atoms: C_7  and  N_8
REMARK    5  A    between atoms: N_15  and  C_16
REMARK                            x       y       z     vdW  Elec       q    Type
REMARK                         _______ _______ _______ _____ _____    ______ ____
ROOT
ATOM      1  N   UNL     1       2.658   5.236  19.464  0.00  0.00    +0.000 NA
ATOM      2  C   UNL     1       1.710   4.640  18.504  0.00  0.00    +0.000 C 
ATOM      3  C   UNL     1       2.098   3.237  18.013  0.00  0.00    +0.000 C 
ATOM      4  C   UNL     1       2.324   2.287  19.196  0.00  0.00    +0.000 C 
ATOM      5  C   UNL     1       3.122   2.930  20.319  0.00  0.00    +0.000 C 
ATOM      6  C   UNL     1       3.704   4.290  19.912  0.00  0.00    +0.000 C 
ATOM      7  C   UNL     1       4.821   4.099  18.831  0.00  0.00    +0.000 C 
ATOM      8  N   UNL     1       4.406   4.161  17.423  0.00  0.00    +0.000 NA
ATOM      9  C   UNL     1       3.305   3.271  17.056  0.00  0.00    +0.000 C 
ENDROOT
BRANCH   8  10
ATOM     10  C   UNL     1       5.504   4.130  16.435  0.00  0.00    +0.000 C 
ATOM     11  C   UNL     1       6.599   5.190  16.648  0.00  0.00    +0.000 C 
ATOM     12  C   UNL     1       7.667   5.062  15.573  0.00  0.00    +0.000 C 
ATOM     13  O   UNL     1       7.093   5.174  14.273  0.00  0.00    +0.000 OA
ATOM     14  C   UNL     1       6.151   4.134  14.009  0.00  0.00    +0.000 C 
ATOM     15  C   UNL     1       4.988   4.198  14.987  0.00  0.00    +0.000 C 
ENDBRANCH   8  10
BRANCH   1  16
ATOM     16  C   UNL     1       1.979   5.926  20.562  0.00  0.00    +0.000 C 
BRANCH  16  20
ATOM     17  C   UNL     1       1.182   9.972  19.702  0.00  0.00    +0.000 A 
ATOM     18  N   UNL     1       0.755   9.495  20.883  0.00  0.00    +0.000 NA
ATOM     19  C   UNL     1       0.987   8.188  21.119  0.00  0.00    +0.000 A 
ATOM     20  C   UNL     1       1.620   7.346  20.232  0.00  0.00    +0.000 A 
ATOM     21  C   UNL     1       1.972   7.935  19.033  0.00  0.00    +0.000 A 
ATOM     22  N   UNL     1       1.775   9.236  18.746  0.00  0.00    +0.000 NA
BRANCH  17  24
ATOM     23  C   UNL     1       0.307  12.186  21.035  0.00  0.00    +0.000 C 
ATOM     24  S   UNL     1       1.005  11.718  19.433  0.00  0.00    +0.000 S 
ENDBRANCH  17  24
ENDBRANCH  16  20
ENDBRANCH   1  16
TORSDOF 4
ENDMDL
MODEL 6
REMARK VINA RESULT:      -6.6      3.653      7.213
REMARK  Name = 
REMARK  5 active torsions:
REMARK  status: ('A' for Active; 'I' for Inactive)
REMARK    1  A    between atoms: C_1  and  S_2
REMARK    2  A    between atoms: S_2  and  C_3
REMARK    3  A    between atoms: C_6  and  C_7
REMARK    4  A    between atoms: C_7  and  N_8
REMARK    5  A    between atoms: N_15  and  C_16
REMARK                            x       y       z     vdW  Elec       q    Type
REMARK                         _______ _______ _______ _____ _____    ______ ____
ROOT
ATOM      1  N   UNL     1       2.095   5.654  19.932  0.00  0.00    +0.000 NA
ATOM      2  C   UNL     1       1.322   5.481  18.688  0.00  0.00    +0.000 C 
ATOM      3  C   UNL     1       1.473   4.099  18.032  0.00  0.00    +0.000 C 
ATOM      4  C   UNL     1       1.137   2.982  19.028  0.00  0.00    +0.000 C 
ATOM      5  C   UNL     1       1.738   3.223  20.403  0.00  0.00    +0.000 C 
ATOM      6  C   UNL     1       2.720   4.400  20.409  0.00  0.00    +0.000 C 
ATOM      7  C   UNL     1       4.003   4.039  19.588  0.00  0.00    +0.000 C 
ATOM      8  N   UNL     1       4.008   4.395  18.162  0.00  0.00    +0.000 NA
ATOM      9  C   UNL     1       2.861   3.910  17.393  0.00  0.00    +0.000 C 
ENDROOT
BRANCH   8  10
ATOM     10  C   UNL     1       5.287   4.179  17.457  0.00  0.00    +0.000 C 
ATOM     11  C   UNL     1       6.516   4.814  18.132  0.00  0.00    +0.000 C 
ATOM     12  C   UNL     1       7.767   4.529  17.316  0.00  0.00    +0.000 C 
ATOM     13  O   UNL     1       7.618   4.999  15.978  0.00  0.00    +0.000 OA
ATOM     14  C   UNL     1       6.551   4.344  15.292  0.00  0.00    +0.000 C 
ATOM     15  C   UNL     1       5.221   4.613  15.982  0.00  0.00    +0.000 C 
ENDBRANCH   8  10
BRANCH   1  16
ATOM     16  C   UNL     1       1.337   6.363  20.965  0.00  0.00    +0.000 C 
BRANCH  16  20
ATOM     17  C   UNL     1       1.165  10.542  20.457  0.00  0.00    +0.000 A 
ATOM     18  N   UNL     1       1.416   9.796  19.369  0.00  0.00    +0.000 NA
ATOM     19  C   UNL     1       1.505   8.465  19.563  0.00  0.00    +0.000 A 
ATOM     20  C   UNL     1       1.357   7.854  20.789  0.00  0.00    +0.000 A 
ATOM     21  C   UNL     1       1.150   8.723  21.841  0.00  0.00    +0.000 A 
ATOM     22  N   UNL     1       1.042  10.059  21.706  0.00  0.00    +0.000 NA
BRANCH  17  24
ATOM     23  C   UNL     1       1.661  12.436  18.557  0.00  0.00    +0.000 C 
ATOM     24  S   UNL     1       0.911  12.280  20.196  0.00  0.00    +0.000 S 
ENDBRANCH  17  24
ENDBRANCH  16  20
ENDBRANCH   1  16
TORSDOF 4
ENDMDL
MODEL 7
REMARK VINA RESULT:      -6.5      3.499      7.170
REMARK  Name = 
REMARK  5 active torsions:
REMARK  status: ('A' for Active; 'I' for Inactive)
REMARK    1  A    between atoms: C_1  and  S_2
REMARK    2  A    between atoms: S_2  and  C_3
REMARK    3  A    between atoms: C_6  and  C_7
REMARK    4  A    between atoms: C_7  and  N_8
REMARK    5  A    between atoms: N_15  and  C_16
REMARK                            x       y       z     vdW  Elec       q    Type
REMARK                         _______ _______ _______ _____ _____    ______ ____
ROOT
ATOM      1  N   UNL     1       2.241   6.137  19.653  0.00  0.00    +0.000 NA
ATOM      2  C   UNL     1       1.393   5.703  18.527  0.00  0.00    +0.000 C 
ATOM      3  C   UNL     1       1.540   4.219  18.154  0.00  0.00    +0.000 C 
ATOM      4  C   UNL     1       1.303   3.323  19.375  0.00  0.00    +0.000 C 
ATOM      5  C   UNL     1       1.986   3.847  20.628  0.00  0.00    +0.000 C 
ATOM      6  C   UNL     1       2.932   5.015  20.327  0.00  0.00    +0.000 C 
ATOM      7  C   UNL     1       4.168   4.514  19.507  0.00  0.00    +0.000 C 
ATOM      8  N   UNL     1       4.068   4.573  18.043  0.00  0.00    +0.000 NA
ATOM      9  C   UNL     1       2.888   3.925  17.470  0.00  0.00    +0.000 C 
ENDROOT
BRANCH   8  10
ATOM     10  C   UNL     1       5.304   4.238  17.307  0.00  0.00    +0.000 C 
ATOM     11  C   UNL     1       6.584   4.895  17.854  0.00  0.00    +0.000 C 
ATOM     12  C   UNL     1       7.784   4.479  17.017  0.00  0.00    +0.000 C 
ATOM     13  O   UNL     1       7.585   4.811  15.645  0.00  0.00    +0.000 OA
ATOM     14  C   UNL     1       6.465   4.128  15.082  0.00  0.00    +0.000 C 
ATOM     15  C   UNL     1       5.180   4.516  15.799  0.00  0.00    +0.000 C 
ENDBRANCH   8  10
BRANCH   1  16
ATOM     16  C   UNL     1       1.532   7.030  20.572  0.00  0.00    +0.000 C 
BRANCH  16  20
ATOM     17  C   UNL     1       1.273  10.973  19.113  0.00  0.00    +0.000 A 
ATOM     18  N   UNL     1       0.763  10.729  20.332  0.00  0.00    +0.000 NA
ATOM     19  C   UNL     1       0.823   9.453  20.761  0.00  0.00    +0.000 A 
ATOM     20  C   UNL     1       1.363   8.419  20.028  0.00  0.00    +0.000 A 
ATOM     21  C   UNL     1       1.813   8.779  18.774  0.00  0.00    +0.000 A 
ATOM     22  N   UNL     1       1.788  10.038  18.297  0.00  0.00    +0.000 NA
BRANCH  17  24
ATOM     23  C   UNL     1      -0.451  12.964  18.400  0.00  0.00    +0.000 C 
ATOM     24  S   UNL     1       1.324  12.670  18.592  0.00  0.00    +0.000 S 
ENDBRANCH  17  24
ENDBRANCH  16  20
ENDBRANCH   1  16
TORSDOF 4
ENDMDL
MODEL 8
REMARK VINA RESULT:      -6.3      3.728      7.357
REMARK  Name = 
REMARK  5 active torsions:
REMARK  status: ('A' for Active; 'I' for Inactive)
REMARK    1  A    between atoms: C_1  and  S_2
REMARK    2  A    between atoms: S_2  and  C_3
REMARK    3  A    between atoms: C_6  and  C_7
REMARK    4  A    between atoms: C_7  and  N_8
REMARK    5  A    between atoms: N_15  and  C_16
REMARK                            x       y       z     vdW  Elec       q    Type
REMARK                         _______ _______ _______ _____ _____    ______ ____
ROOT
ATOM      1  N   UNL     1       2.149   5.891  19.733  0.00  0.00    +0.000 NA
ATOM      2  C   UNL     1       1.282   5.143  18.804  0.00  0.00    +0.000 C 
ATOM      3  C   UNL     1       1.877   3.816  18.306  0.00  0.00    +0.000 C 
ATOM      4  C   UNL     1       2.288   2.925  19.485  0.00  0.00    +0.000 C 
ATOM      5  C   UNL     1       3.004   3.697  20.581  0.00  0.00    +0.000 C 
ATOM      6  C   UNL     1       3.347   5.129  20.153  0.00  0.00    +0.000 C 
ATOM      7  C   UNL     1       4.448   5.113  19.040  0.00  0.00    +0.000 C 
ATOM      8  N   UNL     1       3.988   5.096  17.644  0.00  0.00    +0.000 NA
ATOM      9  C   UNL     1       3.034   4.037  17.314  0.00  0.00    +0.000 C 
ENDROOT
BRANCH   8  10
ATOM     10  C   UNL     1       5.047   5.235  16.624  0.00  0.00    +0.000 C 
ATOM     11  C   UNL     1       5.365   3.950  15.839  0.00  0.00    +0.000 C 
ATOM     12  C   UNL     1       6.467   4.216  14.826  0.00  0.00    +0.000 C 
ATOM     13  O   UNL     1       7.634   4.724  15.468  0.00  0.00    +0.000 OA
ATOM     14  C   UNL     1       7.392   5.974  16.114  0.00  0.00    +0.000 C 
ATOM     15  C   UNL     1       6.344   5.824  17.206  0.00  0.00    +0.000 C 
ENDBRANCH   8  10
BRANCH   1  16
ATOM     16  C   UNL     1       1.399   6.471  20.850  0.00  0.00    +0.000 C 
BRANCH  16  20
ATOM     17  C   UNL     1       0.997  10.662  20.717  0.00  0.00    +0.000 A 
ATOM     18  N   UNL     1       1.167  10.020  19.550  0.00  0.00    +0.000 NA
ATOM     19  C   UNL     1       1.333   8.684  19.621  0.00  0.00    +0.000 A 
ATOM     20  C   UNL     1       1.337   7.970  20.799  0.00  0.00    +0.000 A 
ATOM     21  C   UNL     1       1.201   8.741  21.936  0.00  0.00    +0.000 A 
ATOM     22  N   UNL     1       1.023  10.076  21.926  0.00  0.00    +0.000 NA
BRANCH  17  24
ATOM     23  C   UNL     1       1.279  12.739  18.970  0.00  0.00    +0.000 C 
ATOM     24  S   UNL     1       0.643  12.401  20.630  0.00  0.00    +0.000 S 
ENDBRANCH  17  24
ENDBRANCH  16  20
ENDBRANCH   1  16
TORSDOF 4
ENDMDL
MODEL 9
REMARK VINA RESULT:      -6.2      3.693      7.283
REMARK  Name = 
REMARK  5 active torsions:
REMARK  status: ('A' for Active; 'I' for Inactive)
REMARK    1  A    between atoms: C_1  and  S_2
REMARK    2  A    between atoms: S_2  and  C_3
REMARK    3  A    between atoms: C_6  and  C_7
REMARK    4  A    between atoms: C_7  and  N_8
REMARK    5  A    between atoms: N_15  and  C_16
REMARK                            x       y       z     vdW  Elec       q    Type
REMARK                         _______ _______ _______ _____ _____    ______ ____
ROOT
ATOM      1  N   UNL     1       2.215   5.540  19.707  0.00  0.00    +0.000 NA
ATOM      2  C   UNL     1       1.344   4.789  18.785  0.00  0.00    +0.000 C 
ATOM      3  C   UNL     1       1.962   3.494  18.236  0.00  0.00    +0.000 C 
ATOM      4  C   UNL     1       2.433   2.587  19.380  0.00  0.00    +0.000 C 
ATOM      5  C   UNL     1       3.158   3.353  20.474  0.00  0.00    +0.000 C 
ATOM      6  C   UNL     1       3.447   4.805  20.072  0.00  0.00    +0.000 C 
ATOM      7  C   UNL     1       4.514   4.849  18.928  0.00  0.00    +0.000 C 
ATOM      8  N   UNL     1       4.014   4.852  17.546  0.00  0.00    +0.000 NA
ATOM      9  C   UNL     1       3.082   3.773  17.217  0.00  0.00    +0.000 C 
ENDROOT
BRANCH   8  10
ATOM     10  C   UNL     1       5.037   5.047  16.500  0.00  0.00    +0.000 C 
ATOM     11  C   UNL     1       5.446   3.769  15.745  0.00  0.00    +0.000 C 
ATOM     12  C   UNL     1       6.503   4.094  14.700  0.00  0.00    +0.000 C 
ATOM     13  O   UNL     1       7.635   4.717  15.302  0.00  0.00    +0.000 OA
ATOM     14  C   UNL     1       7.302   5.962  15.917  0.00  0.00    +0.000 C 
ATOM     15  C   UNL     1       6.292   5.759  17.035  0.00  0.00    +0.000 C 
ENDBRANCH   8  10
BRANCH   1  16
ATOM     16  C   UNL     1       1.483   6.071  20.858  0.00  0.00    +0.000 C 
BRANCH  16  20
ATOM     17  C   UNL     1       0.815  10.222  20.592  0.00  0.00    +0.000 A 
ATOM     18  N   UNL     1       0.322   9.583  21.666  0.00  0.00    +0.000 NA
ATOM     19  C   UNL     1       0.514   8.249  21.709  0.00  0.00    +0.000 A 
ATOM     20  C   UNL     1       1.171   7.534  20.733  0.00  0.00    +0.000 A 
ATOM     21  C   UNL     1       1.592   8.287  19.655  0.00  0.00    +0.000 A 
ATOM     22  N   UNL     1       1.436   9.622  19.562  0.00  0.00    +0.000 NA
BRANCH  17  24
ATOM     23  C   UNL     1       1.487  12.331  18.998  0.00  0.00    +0.000 C 
ATOM     24  S   UNL     1       0.688  11.993  20.585  0.00  0.00    +0.000 S 
ENDBRANCH  17  24
ENDBRANCH  16  20
ENDBRANCH   1  16
TORSDOF 4
ENDMDL
