MODEL 1
REMARK VINA RESULT:      -7.7      0.000      0.000
REMARK  Name = 
REMARK  7 active torsions:
REMARK  status: ('A' for Active; 'I' for Inactive)
REMARK    1  A    between atoms: C_1  and  C_2
REMARK    2  A    between atoms: C_2  and  C_3
REMARK    3  A    between atoms: C_2  and  C_4
REMARK    4  A    between atoms: C_4  and  C_5
REMARK    5  A    between atoms: C_7  and  C_8
REMARK    6  A    between atoms: C_14  and  C_15
REMARK    7  A    between atoms: C_22  and  O_23
REMARK                            x       y       z     vdW  Elec       q    Type
REMARK                         _______ _______ _______ _____ _____    ______ ____
ROOT
ATOM      1  C   UNL     1       2.087   6.151  20.003  0.00  0.00    +0.000 C 
ATOM      2  O   UNL     1       1.600   5.755  21.062  0.00  0.00    +0.000 OA
ATOM      3  N   UNL     1       1.942   7.449  19.501  0.00  0.00    +0.000 N 
ATOM      4  C   UNL     1       2.249   7.934  18.137  0.00  0.00    +0.000 C 
ATOM      5  C   UNL     1       1.824   9.398  18.035  0.00  0.00    +0.000 C 
ATOM      6  C   UNL     1       1.303   9.671  19.406  0.00  0.00    +0.000 A 
ATOM      7  C   UNL     1       0.821  10.882  19.895  0.00  0.00    +0.000 A 
ATOM      8  C   UNL     1       0.363  10.929  21.214  0.00  0.00    +0.000 A 
ATOM      9  C   UNL     1       0.393   9.779  22.015  0.00  0.00    +0.000 A 
ATOM     10  C   UNL     1       0.894   8.571  21.514  0.00  0.00    +0.000 A 
ATOM     11  C   UNL     1       1.353   8.527  20.208  0.00  0.00    +0.000 A 
ENDROOT
BRANCH   1  14
ATOM     12  C   UNL     1       4.931   4.412  18.235  0.00  0.00    +0.000 A 
ATOM     13  C   UNL     1       4.237   5.343  19.005  0.00  0.00    +0.000 A 
ATOM     14  C   UNL     1       2.871   5.140  19.227  0.00  0.00    +0.000 A 
ATOM     15  C   UNL     1       2.253   4.061  18.600  0.00  0.00    +0.000 A 
ATOM     16  C   UNL     1       3.045   3.127  17.972  0.00  0.00    +0.000 A 
ATOM     17  N   UNL     1       4.359   3.269  17.795  0.00  0.00    +0.000 NA
BRANCH  16  18
ATOM     18  O   UNL     1       2.513   1.983  17.460  0.00  0.00    +0.000 OA
ATOM     19  H   UNL     1       1.556   1.998  17.602  0.00  0.00    +0.000 HD
ENDBRANCH  16  18
BRANCH  12  20
ATOM     20  C   UNL     1       6.331   4.677  17.734  0.00  0.00    +0.000 C 
BRANCH  20  22
ATOM     21  C   UNL     1       8.023   5.676  19.369  0.00  0.00    +0.000 C 
ATOM     22  C   UNL     1       6.919   5.971  18.350  0.00  0.00    +0.000 C 
ATOM     23  C   UNL     1       7.456   6.895  17.257  0.00  0.00    +0.000 C 
ENDBRANCH  20  22
ENDBRANCH  12  20
ENDBRANCH   1  14
BRANCH   7  24
ATOM     24  C   UNL     1       0.814  12.060  19.079  0.00  0.00    +0.000 C 
ATOM     25  N   UNL     1       0.779  13.006  18.410  0.00  0.00    +0.000 NA
ENDBRANCH   7  24
TORSDOF 5
ENDMDL
MODEL 2
REMARK VINA RESULT:      -7.7      1.808      2.539
REMARK  Name = 
REMARK  7 active torsions:
REMARK  status: ('A' for Active; 'I' for Inactive)
REMARK    1  A    between atoms: C_1  and  C_2
REMARK    2  A    between atoms: C_2  and  C_3
REMARK    3  A    between atoms: C_2  and  C_4
REMARK    4  A    between atoms: C_4  and  C_5
REMARK    5  A    between atoms: C_7  and  C_8
REMARK    6  A    between atoms: C_14  and  C_15
REMARK    7  A    between atoms: C_22  and  O_23
REMARK                            x       y       z     vdW  Elec       q    Type
REMARK                         _______ _______ _______ _____ _____    ______ ____
ROOT
ATOM      1  C   UNL     1       2.288   7.900  18.363  0.00  0.00    +0.000 C 
ATOM      2  O   UNL     1       2.581   8.534  17.349  0.00  0.00    +0.000 OA
ATOM      3  N   UNL     1       1.612   8.436  19.464  0.00  0.00    +0.000 N 
ATOM      4  C   UNL     1       1.460   7.844  20.812  0.00  0.00    +0.000 C 
ATOM      5  C   UNL     1       0.734   8.849  21.705  0.00  0.00    +0.000 C 
ATOM      6  C   UNL     1       0.489   9.984  20.767  0.00  0.00    +0.000 A 
ATOM      7  C   UNL     1      -0.191  11.168  21.042  0.00  0.00    +0.000 A 
ATOM      8  C   UNL     1      -0.303  12.119  20.024  0.00  0.00    +0.000 A 
ATOM      9  C   UNL     1       0.259  11.875  18.764  0.00  0.00    +0.000 A 
ATOM     10  C   UNL     1       0.928  10.674  18.497  0.00  0.00    +0.000 A 
ATOM     11  C   UNL     1       1.033   9.729  19.505  0.00  0.00    +0.000 A 
ENDROOT
BRANCH   1  14
ATOM     12  C   UNL     1       4.399   4.794  18.724  0.00  0.00    +0.000 A 
ATOM     13  C   UNL     1       4.016   6.132  18.766  0.00  0.00    +0.000 A 
ATOM     14  C   UNL     1       2.713   6.465  18.381  0.00  0.00    +0.000 A 
ATOM     15  C   UNL     1       1.887   5.453  17.898  0.00  0.00    +0.000 A 
ATOM     16  C   UNL     1       2.309   4.149  18.020  0.00  0.00    +0.000 A 
ATOM     17  N   UNL     1       3.528   3.801  18.436  0.00  0.00    +0.000 NA
BRANCH  16  18
ATOM     18  O   UNL     1       1.493   3.111  17.691  0.00  0.00    +0.000 OA
ATOM     19  H   UNL     1       1.921   2.590  16.997  0.00  0.00    +0.000 HD
ENDBRANCH  16  18
BRANCH  12  20
ATOM     20  C   UNL     1       5.842   4.373  18.872  0.00  0.00    +0.000 C 
BRANCH  20  22
ATOM     21  C   UNL     1       7.861   5.934  19.027  0.00  0.00    +0.000 C 
ATOM     22  C   UNL     1       6.794   5.329  18.110  0.00  0.00    +0.000 C 
ATOM     23  C   UNL     1       7.463   4.608  16.941  0.00  0.00    +0.000 C 
ENDBRANCH  20  22
ENDBRANCH  12  20
ENDBRANCH   1  14
BRANCH   7  24
ATOM     24  C   UNL     1      -0.783  11.401  22.326  0.00  0.00    +0.000 C 
ATOM     25  N   UNL     1      -1.244  11.568  23.377  0.00  0.00    +0.000 NA
ENDBRANCH   7  24
TORSDOF 5
ENDMDL
MODEL 3
REMARK VINA RESULT:      -7.7      2.198      3.796
REMARK  Name = 
REMARK  7 active torsions:
REMARK  status: ('A' for Active; 'I' for Inactive)
REMARK    1  A    between atoms: C_1  and  C_2
REMARK    2  A    between atoms: C_2  and  C_3
REMARK    3  A    between atoms: C_2  and  C_4
REMARK    4  A    between atoms: C_4  and  C_5
REMARK    5  A    between atoms: C_7  and  C_8
REMARK    6  A    between atoms: C_14  and  C_15
REMARK    7  A    between atoms: C_22  and  O_23
REMARK                            x       y       z     vdW  Elec       q    Type
REMARK                         _______ _______ _______ _____ _____    ______ ____
ROOT
ATOM      1  C   UNL     1       2.649   7.621  18.031  0.00  0.00    +0.000 C 
ATOM      2  O   UNL     1       2.859   8.328  17.045  0.00  0.00    +0.000 OA
ATOM      3  N   UNL     1       1.977   8.049  19.182  0.00  0.00    +0.000 N 
ATOM      4  C   UNL     1       1.916   7.376  20.499  0.00  0.00    +0.000 C 
ATOM      5  C   UNL     1       1.156   8.277  21.470  0.00  0.00    +0.000 C 
ATOM      6  C   UNL     1       0.799   9.440  20.606  0.00  0.00    +0.000 A 
ATOM      7  C   UNL     1       0.049  10.556  20.968  0.00  0.00    +0.000 A 
ATOM      8  C   UNL     1      -0.167  11.550  20.009  0.00  0.00    +0.000 A 
ATOM      9  C   UNL     1       0.364  11.415  18.719  0.00  0.00    +0.000 A 
ATOM     10  C   UNL     1       1.105  10.280  18.364  0.00  0.00    +0.000 A 
ATOM     11  C   UNL     1       1.312   9.292  19.314  0.00  0.00    +0.000 A 
ENDROOT
BRANCH   1  14
ATOM     12  C   UNL     1       2.798   3.852  17.976  0.00  0.00    +0.000 A 
ATOM     13  C   UNL     1       2.280   5.144  17.997  0.00  0.00    +0.000 A 
ATOM     14  C   UNL     1       3.172   6.222  17.955  0.00  0.00    +0.000 A 
ATOM     15  C   UNL     1       4.537   5.950  17.977  0.00  0.00    +0.000 A 
ATOM     16  C   UNL     1       4.949   4.646  17.823  0.00  0.00    +0.000 A 
ATOM     17  N   UNL     1       4.117   3.604  17.804  0.00  0.00    +0.000 NA
BRANCH  16  18
ATOM     18  O   UNL     1       6.268   4.334  17.701  0.00  0.00    +0.000 OA
ATOM     19  H   UNL     1       6.793   5.095  17.987  0.00  0.00    +0.000 HD
ENDBRANCH  16  18
BRANCH  12  20
ATOM     20  C   UNL     1       1.941   2.644  18.273  0.00  0.00    +0.000 C 
BRANCH  20  22
ATOM     21  C   UNL     1       3.032   2.564  20.583  0.00  0.00    +0.000 C 
ATOM     22  C   UNL     1       1.722   2.463  19.796  0.00  0.00    +0.000 C 
ATOM     23  C   UNL     1       0.721   3.489  20.324  0.00  0.00    +0.000 C 
ENDBRANCH  20  22
ENDBRANCH  12  20
ENDBRANCH   1  14
BRANCH   7  24
ATOM     24  C   UNL     1      -0.510  10.678  22.282  0.00  0.00    +0.000 C 
ATOM     25  N   UNL     1      -0.980  10.752  23.340  0.00  0.00    +0.000 NA
ENDBRANCH   7  24
TORSDOF 5
ENDMDL
MODEL 4
REMARK VINA RESULT:      -7.6      1.037      1.394
REMARK  Name = 
REMARK  7 active torsions:
REMARK  status: ('A' for Active; 'I' for Inactive)
REMARK    1  A    between atoms: C_1  and  C_2
REMARK    2  A    between atoms: C_2  and  C_3
REMARK    3  A    between atoms: C_2  and  C_4
REMARK    4  A    between atoms: C_4  and  C_5
REMARK    5  A    between atoms: C_7  and  C_8
REMARK    6  A    between atoms: C_14  and  C_15
REMARK    7  A    between atoms: C_22  and  O_23
REMARK                            x       y       z     vdW  Elec       q    Type
REMARK                         _______ _______ _______ _____ _____    ______ ____
ROOT
ATOM      1  C   UNL     1       2.085   6.069  19.858  0.00  0.00    +0.000 C 
ATOM      2  O   UNL     1       1.697   5.685  20.962  0.00  0.00    +0.000 OA
ATOM      3  N   UNL     1       1.929   7.372  19.374  0.00  0.00    +0.000 N 
ATOM      4  C   UNL     1       2.110   7.851  17.985  0.00  0.00    +0.000 C 
ATOM      5  C   UNL     1       1.721   9.327  17.926  0.00  0.00    +0.000 C 
ATOM      6  C   UNL     1       1.351   9.612  19.344  0.00  0.00    +0.000 A 
ATOM      7  C   UNL     1       0.959  10.836  19.879  0.00  0.00    +0.000 A 
ATOM      8  C   UNL     1       0.639  10.894  21.238  0.00  0.00    +0.000 A 
ATOM      9  C   UNL     1       0.716   9.741  22.032  0.00  0.00    +0.000 A 
ATOM     10  C   UNL     1       1.126   8.519  21.483  0.00  0.00    +0.000 A 
ATOM     11  C   UNL     1       1.449   8.465  20.137  0.00  0.00    +0.000 A 
ENDROOT
BRANCH   1  14
ATOM     12  C   UNL     1       4.653   4.284  17.748  0.00  0.00    +0.000 A 
ATOM     13  C   UNL     1       4.072   5.236  18.582  0.00  0.00    +0.000 A 
ATOM     14  C   UNL     1       2.754   5.037  19.006  0.00  0.00    +0.000 A 
ATOM     15  C   UNL     1       2.059   3.938  18.509  0.00  0.00    +0.000 A 
ATOM     16  C   UNL     1       2.757   2.987  17.800  0.00  0.00    +0.000 A 
ATOM     17  N   UNL     1       4.031   3.126  17.429  0.00  0.00    +0.000 NA
BRANCH  16  18
ATOM     18  O   UNL     1       2.164   1.827  17.404  0.00  0.00    +0.000 OA
ATOM     19  H   UNL     1       2.845   1.144  17.326  0.00  0.00    +0.000 HD
ENDBRANCH  16  18
BRANCH  12  20
ATOM     20  C   UNL     1       5.963   4.537  17.040  0.00  0.00    +0.000 C 
BRANCH  20  22
ATOM     21  C   UNL     1       5.253   6.428  15.474  0.00  0.00    +0.000 C 
ATOM     22  C   UNL     1       5.740   4.980  15.573  0.00  0.00    +0.000 C 
ATOM     23  C   UNL     1       7.019   4.807  14.755  0.00  0.00    +0.000 C 
ENDBRANCH  20  22
ENDBRANCH  12  20
ENDBRANCH   1  14
BRANCH   7  24
ATOM     24  C   UNL     1       0.904  12.016  19.067  0.00  0.00    +0.000 C 
ATOM     25  N   UNL     1       0.881  12.983  18.428  0.00  0.00    +0.000 NA
ENDBRANCH   7  24
TORSDOF 5
ENDMDL
MODEL 5
REMARK VINA RESULT:      -7.5      1.855      2.619
REMARK  Name = 
REMARK  7 active torsions:
REMARK  status: ('A' for Active; 'I' for Inactive)
REMARK    1  A    between atoms: C_1  and  C_2
REMARK    2  A    between atoms: C_2  and  C_3
REMARK    3  A    between atoms: C_2  and  C_4
REMARK    4  A    between atoms: C_4  and  C_5
REMARK    5  A    between atoms: C_7  and  C_8
REMARK    6  A    between atoms: C_14  and  C_15
REMARK    7  A    between atoms: C_22  and  O_23
REMARK                            x       y       z     vdW  Elec       q    Type
REMARK                         _______ _______ _______ _____ _____    ______ ____
ROOT
ATOM      1  C   UNL     1       2.395   7.802  18.187  0.00  0.00    +0.000 C 
ATOM      2  O   UNL     1       2.597   8.481  17.180  0.00  0.00    +0.000 OA
ATOM      3  N   UNL     1       1.729   8.260  19.329  0.00  0.00    +0.000 N 
ATOM      4  C   UNL     1       1.679   7.626  20.665  0.00  0.00    +0.000 C 
ATOM      5  C   UNL     1       0.922   8.552  21.615  0.00  0.00    +0.000 C 
ATOM      6  C   UNL     1       0.556   9.689  20.720  0.00  0.00    +0.000 A 
ATOM      7  C   UNL     1      -0.195  10.812  21.055  0.00  0.00    +0.000 A 
ATOM      8  C   UNL     1      -0.420  11.777  20.069  0.00  0.00    +0.000 A 
ATOM      9  C   UNL     1       0.103  11.607  18.781  0.00  0.00    +0.000 A 
ATOM     10  C   UNL     1       0.845  10.464  18.454  0.00  0.00    +0.000 A 
ATOM     11  C   UNL     1       1.061   9.505  19.430  0.00  0.00    +0.000 A 
ENDROOT
BRANCH   1  14
ATOM     12  C   UNL     1       4.759   4.862  18.257  0.00  0.00    +0.000 A 
ATOM     13  C   UNL     1       4.287   6.169  18.349  0.00  0.00    +0.000 A 
ATOM     14  C   UNL     1       2.922   6.402  18.148  0.00  0.00    +0.000 A 
ATOM     15  C   UNL     1       2.115   5.327  17.784  0.00  0.00    +0.000 A 
ATOM     16  C   UNL     1       2.645   4.059  17.848  0.00  0.00    +0.000 A 
ATOM     17  N   UNL     1       3.931   3.805  18.093  0.00  0.00    +0.000 NA
BRANCH  16  18
ATOM     18  O   UNL     1       1.870   2.961  17.636  0.00  0.00    +0.000 OA
ATOM     19  H   UNL     1       1.541   2.645  18.490  0.00  0.00    +0.000 HD
ENDBRANCH  16  18
BRANCH  12  20
ATOM     20  C   UNL     1       6.235   4.549  18.205  0.00  0.00    +0.000 C 
BRANCH  20  22
ATOM     21  C   UNL     1       5.986   5.086  15.718  0.00  0.00    +0.000 C 
ATOM     22  C   UNL     1       6.901   5.157  16.945  0.00  0.00    +0.000 C 
ATOM     23  C   UNL     1       7.317   6.605  17.197  0.00  0.00    +0.000 C 
ENDBRANCH  20  22
ENDBRANCH  12  20
ENDBRANCH   1  14
BRANCH   7  24
ATOM     24  C   UNL     1      -0.747  10.970  22.368  0.00  0.00    +0.000 C 
ATOM     25  N   UNL     1      -1.201  11.126  23.424  0.00  0.00    +0.000 NA
ENDBRANCH   7  24
TORSDOF 5
ENDMDL
MODEL 6
REMARK VINA RESULT:      -7.5      1.961      2.625
REMARK  Name = 
REMARK  7 active torsions:
REMARK  status: ('A' for Active; 'I' for Inactive)
REMARK    1  A    between atoms: C_1  and  C_2
REMARK    2  A    between atoms: C_2  and  C_3
REMARK    3  A    between atoms: C_2  and  C_4
REMARK    4  A    between atoms: C_4  and  C_5
REMARK    5  A    between atoms: C_7  and  C_8
REMARK    6  A    between atoms: C_14  and  C_15
REMARK    7  A    between atoms: C_22  and  O_23
REMARK                            x       y       z     vdW  Elec       q    Type
REMARK                         _______ _______ _______ _____ _____    ______ ____
ROOT
ATOM      1  C   UNL     1       2.458   7.561  18.030  0.00  0.00    +0.000 C 
ATOM      2  O   UNL     1       2.871   8.283  17.122  0.00  0.00    +0.000 OA
ATOM      3  N   UNL     1       1.793   8.026  19.170  0.00  0.00    +0.000 N 
ATOM      4  C   UNL     1       1.509   7.286  20.419  0.00  0.00    +0.000 C 
ATOM      5  C   UNL     1       0.858   8.245  21.415  0.00  0.00    +0.000 C 
ATOM      6  C   UNL     1       0.790   9.513  20.632  0.00  0.00    +0.000 A 
ATOM      7  C   UNL     1       0.237  10.723  21.041  0.00  0.00    +0.000 A 
ATOM      8  C   UNL     1       0.283  11.806  20.159  0.00  0.00    +0.000 A 
ATOM      9  C   UNL     1       0.876  11.664  18.896  0.00  0.00    +0.000 A 
ATOM     10  C   UNL     1       1.416  10.436  18.492  0.00  0.00    +0.000 A 
ATOM     11  C   UNL     1       1.363   9.362  19.366  0.00  0.00    +0.000 A 
ENDROOT
BRANCH   1  14
ATOM     12  C   UNL     1       4.169   4.290  17.252  0.00  0.00    +0.000 A 
ATOM     13  C   UNL     1       3.973   5.656  17.443  0.00  0.00    +0.000 A 
ATOM     14  C   UNL     1       2.715   6.096  17.869  0.00  0.00    +0.000 A 
ATOM     15  C   UNL     1       1.697   5.156  18.002  0.00  0.00    +0.000 A 
ATOM     16  C   UNL     1       2.021   3.822  17.920  0.00  0.00    +0.000 A 
ATOM     17  N   UNL     1       3.228   3.373  17.570  0.00  0.00    +0.000 NA
BRANCH  16  18
ATOM     18  O   UNL     1       1.097   2.855  18.175  0.00  0.00    +0.000 OA
ATOM     19  H   UNL     1       1.269   2.103  17.591  0.00  0.00    +0.000 HD
ENDBRANCH  16  18
BRANCH  12  20
ATOM     20  C   UNL     1       5.397   3.751  16.557  0.00  0.00    +0.000 C 
BRANCH  20  22
ATOM     21  C   UNL     1       7.620   4.617  17.476  0.00  0.00    +0.000 C 
ATOM     22  C   UNL     1       6.506   4.827  16.447  0.00  0.00    +0.000 C 
ATOM     23  C   UNL     1       7.100   4.850  15.039  0.00  0.00    +0.000 C 
ENDBRANCH  20  22
ENDBRANCH  12  20
ENDBRANCH   1  14
BRANCH   7  24
ATOM     24  C   UNL     1      -0.388  10.856  22.324  0.00  0.00    +0.000 C 
ATOM     25  N   UNL     1      -0.896  10.933  23.364  0.00  0.00    +0.000 NA
ENDBRANCH   7  24
TORSDOF 5
ENDMDL
MODEL 7
REMARK VINA RESULT:      -7.4      0.776      1.007
REMARK  Name = 
REMARK  7 active torsions:
REMARK  status: ('A' for Active; 'I' for Inactive)
REMARK    1  A    between atoms: C_1  and  C_2
REMARK    2  A    between atoms: C_2  and  C_3
REMARK    3  A    between atoms: C_2  and  C_4
REMARK    4  A    between atoms: C_4  and  C_5
REMARK    5  A    between atoms: C_7  and  C_8
REMARK    6  A    between atoms: C_14  and  C_15
REMARK    7  A    between atoms: C_22  and  O_23
REMARK                            x       y       z     vdW  Elec       q    Type
REMARK                         _______ _______ _______ _____ _____    ______ ____
ROOT
ATOM      1  C   UNL     1       2.325   6.290  19.686  0.00  0.00    +0.000 C 
ATOM      2  O   UNL     1       1.997   5.801  20.767  0.00  0.00    +0.000 OA
ATOM      3  N   UNL     1       2.012   7.592  19.279  0.00  0.00    +0.000 N 
ATOM      4  C   UNL     1       2.119   8.168  17.920  0.00  0.00    +0.000 C 
ATOM      5  C   UNL     1       1.560   9.589  17.949  0.00  0.00    +0.000 C 
ATOM      6  C   UNL     1       1.176   9.747  19.382  0.00  0.00    +0.000 A 
ATOM      7  C   UNL     1       0.650  10.884  19.990  0.00  0.00    +0.000 A 
ATOM      8  C   UNL     1       0.343  10.826  21.352  0.00  0.00    +0.000 A 
ATOM      9  C   UNL     1       0.563   9.647  22.077  0.00  0.00    +0.000 A 
ATOM     10  C   UNL     1       1.107   8.515  21.455  0.00  0.00    +0.000 A 
ATOM     11  C   UNL     1       1.417   8.576  20.107  0.00  0.00    +0.000 A 
ENDROOT
BRANCH   1  14
ATOM     12  C   UNL     1       4.835   5.070  17.147  0.00  0.00    +0.000 A 
ATOM     13  C   UNL     1       4.164   5.915  18.028  0.00  0.00    +0.000 A 
ATOM     14  C   UNL     1       3.099   5.394  18.772  0.00  0.00    +0.000 A 
ATOM     15  C   UNL     1       2.710   4.079  18.535  0.00  0.00    +0.000 A 
ATOM     16  C   UNL     1       3.514   3.288  17.747  0.00  0.00    +0.000 A 
ATOM     17  N   UNL     1       4.568   3.747  17.070  0.00  0.00    +0.000 NA
BRANCH  16  18
ATOM     18  O   UNL     1       3.260   1.960  17.589  0.00  0.00    +0.000 OA
ATOM     19  H   UNL     1       2.581   1.856  16.907  0.00  0.00    +0.000 HD
ENDBRANCH  16  18
BRANCH  12  20
ATOM     20  C   UNL     1       5.816   5.599  16.127  0.00  0.00    +0.000 C 
BRANCH  20  22
ATOM     21  C   UNL     1       7.346   7.150  17.465  0.00  0.00    +0.000 C 
ATOM     22  C   UNL     1       7.222   5.804  16.746  0.00  0.00    +0.000 C 
ATOM     23  C   UNL     1       7.559   4.668  17.711  0.00  0.00    +0.000 C 
ENDBRANCH  20  22
ENDBRANCH  12  20
ENDBRANCH   1  14
BRANCH   7  24
ATOM     24  C   UNL     1       0.448  12.094  19.249  0.00  0.00    +0.000 C 
ATOM     25  N   UNL     1       0.307  13.064  18.629  0.00  0.00    +0.000 NA
ENDBRANCH   7  24
TORSDOF 5
ENDMDL
MODEL 8
REMARK VINA RESULT:      -7.4      2.361      2.948
REMARK  Name = 
REMARK  7 active torsions:
REMARK  status: ('A' for Active; 'I' for Inactive)
REMARK    1  A    between atoms: C_1  and  C_2
REMARK    2  A    between atoms: C_2  and  C_3
REMARK    3  A    between atoms: C_2  and  C_4
REMARK    4  A    between atoms: C_4  and  C_5
REMARK    5  A    between atoms: C_7  and  C_8
REMARK    6  A    between atoms: C_14  and  C_15
REMARK    7  A    between atoms: C_22  and  O_23
REMARK                            x       y       z     vdW  Elec       q    Type
REMARK                         _______ _______ _______ _____ _____    ______ ____
ROOT
ATOM      1  C   UNL     1       3.434   5.929  19.384  0.00  0.00    +0.000 C 
ATOM      2  O   UNL     1       3.003   5.190  20.271  0.00  0.00    +0.000 OA
ATOM      3  N   UNL     1       2.865   7.159  19.035  0.00  0.00    +0.000 N 
ATOM      4  C   UNL     1       3.137   7.973  17.829  0.00  0.00    +0.000 C 
ATOM      5  C   UNL     1       2.197   9.177  17.835  0.00  0.00    +0.000 C 
ATOM      6  C   UNL     1       1.437   8.977  19.103  0.00  0.00    +0.000 A 
ATOM      7  C   UNL     1       0.465   9.817  19.641  0.00  0.00    +0.000 A 
ATOM      8  C   UNL     1      -0.143   9.444  20.842  0.00  0.00    +0.000 A 
ATOM      9  C   UNL     1       0.224   8.251  21.479  0.00  0.00    +0.000 A 
ATOM     10  C   UNL     1       1.213   7.422  20.934  0.00  0.00    +0.000 A 
ATOM     11  C   UNL     1       1.820   7.797  19.747  0.00  0.00    +0.000 A 
ENDROOT
BRANCH   1  14
ATOM     12  C   UNL     1       5.632   4.383  16.736  0.00  0.00    +0.000 A 
ATOM     13  C   UNL     1       4.498   4.882  17.374  0.00  0.00    +0.000 A 
ATOM     14  C   UNL     1       4.641   5.435  18.651  0.00  0.00    +0.000 A 
ATOM     15  C   UNL     1       5.894   5.387  19.256  0.00  0.00    +0.000 A 
ATOM     16  C   UNL     1       6.974   4.998  18.497  0.00  0.00    +0.000 A 
ATOM     17  N   UNL     1       6.872   4.518  17.257  0.00  0.00    +0.000 NA
BRANCH  16  18
ATOM     18  O   UNL     1       8.241   5.059  18.991  0.00  0.00    +0.000 OA
ATOM     19  H   UNL     1       8.349   5.900  19.457  0.00  0.00    +0.000 HD
ENDBRANCH  16  18
BRANCH  12  20
ATOM     20  C   UNL     1       5.537   3.547  15.482  0.00  0.00    +0.000 C 
BRANCH  20  22
ATOM     21  C   UNL     1       7.155   4.927  14.063  0.00  0.00    +0.000 C 
ATOM     22  C   UNL     1       5.721   4.410  14.209  0.00  0.00    +0.000 C 
ATOM     23  C   UNL     1       5.324   3.624  12.960  0.00  0.00    +0.000 C 
ENDBRANCH  20  22
ENDBRANCH  12  20
ENDBRANCH   1  14
BRANCH   7  24
ATOM     24  C   UNL     1       0.110  11.047  18.996  0.00  0.00    +0.000 C 
ATOM     25  N   UNL     1      -0.205  12.031  18.469  0.00  0.00    +0.000 NA
ENDBRANCH   7  24
TORSDOF 5
ENDMDL
MODEL 9
REMARK VINA RESULT:      -7.4      2.751      8.031
REMARK  Name = 
REMARK  7 active torsions:
REMARK  status: ('A' for Active; 'I' for Inactive)
REMARK    1  A    between atoms: C_1  and  C_2
REMARK    2  A    between atoms: C_2  and  C_3
REMARK    3  A    between atoms: C_2  and  C_4
REMARK    4  A    between atoms: C_4  and  C_5
REMARK    5  A    between atoms: C_7  and  C_8
REMARK    6  A    between atoms: C_14  and  C_15
REMARK    7  A    between atoms: C_22  and  O_23
REMARK                            x       y       z     vdW  Elec       q    Type
REMARK                         _______ _______ _______ _____ _____    ______ ____
ROOT
ATOM      1  C   UNL     1       2.010   8.500  18.278  0.00  0.00    +0.000 C 
ATOM      2  O   UNL     1       2.424   8.939  17.204  0.00  0.00    +0.000 OA
ATOM      3  N   UNL     1       2.399   7.276  18.834  0.00  0.00    +0.000 N 
ATOM      4  C   UNL     1       1.766   6.550  19.958  0.00  0.00    +0.000 C 
ATOM      5  C   UNL     1       2.479   5.210  20.132  0.00  0.00    +0.000 C 
ATOM      6  C   UNL     1       3.525   5.270  19.071  0.00  0.00    +0.000 A 
ATOM      7  C   UNL     1       4.506   4.318  18.804  0.00  0.00    +0.000 A 
ATOM      8  C   UNL     1       5.393   4.556  17.751  0.00  0.00    +0.000 A 
ATOM      9  C   UNL     1       5.287   5.727  16.989  0.00  0.00    +0.000 A 
ATOM     10  C   UNL     1       4.304   6.683  17.277  0.00  0.00    +0.000 A 
ATOM     11  C   UNL     1       3.430   6.449  18.326  0.00  0.00    +0.000 A 
ENDROOT
BRANCH   1  14
ATOM     12  C   UNL     1      -0.969  10.702  18.992  0.00  0.00    +0.000 A 
ATOM     13  C   UNL     1      -0.091   9.862  18.311  0.00  0.00    +0.000 A 
ATOM     14  C   UNL     1       1.020   9.360  18.997  0.00  0.00    +0.000 A 
ATOM     15  C   UNL     1       1.240   9.791  20.304  0.00  0.00    +0.000 A 
ATOM     16  C   UNL     1       0.250  10.512  20.931  0.00  0.00    +0.000 A 
ATOM     17  N   UNL     1      -0.847  10.956  20.315  0.00  0.00    +0.000 NA
BRANCH  16  18
ATOM     18  O   UNL     1       0.347  10.845  22.247  0.00  0.00    +0.000 OA
ATOM     19  H   UNL     1      -0.048  11.719  22.374  0.00  0.00    +0.000 HD
ENDBRANCH  16  18
BRANCH  12  20
ATOM     20  C   UNL     1      -2.041  11.486  18.273  0.00  0.00    +0.000 C 
BRANCH  20  22
ATOM     21  C   UNL     1      -4.426  10.693  17.805  0.00  0.00    +0.000 C 
ATOM     22  C   UNL     1      -2.948  10.561  17.424  0.00  0.00    +0.000 C 
ATOM     23  C   UNL     1      -2.770  10.848  15.934  0.00  0.00    +0.000 C 
ENDBRANCH  20  22
ENDBRANCH  12  20
ENDBRANCH   1  14
BRANCH   7  24
ATOM     24  C   UNL     1       4.623   3.132  19.601  0.00  0.00    +0.000 C 
ATOM     25  N   UNL     1       4.747   2.171  20.238  0.00  0.00    +0.000 NA
ENDBRANCH   7  24
TORSDOF 5
ENDMDL
