MODEL 1
REMARK VINA RESULT:      -7.7      0.000      0.000
REMARK  Name = 
REMARK  5 active torsions:
REMARK  status: ('A' for Active; 'I' for Inactive)
REMARK    1  A    between atoms: C_2  and  C_25
REMARK    2  A    between atoms: N_3  and  C_4
REMARK    3  A    between atoms: C_9  and  C_10
REMARK    4  A    between atoms: C_13  and  C_14
REMARK    5  A    between atoms: C_14  and  N_15
REMARK                            x       y       z     vdW  Elec       q    Type
REMARK                         _______ _______ _______ _____ _____    ______ ____
ROOT
ATOM      1  C   UNL     1       0.242  11.477  21.048  0.00  0.00    +0.000 A 
ATOM      2  C   UNL     1       0.814  10.420  20.322  0.00  0.00    +0.000 A 
ATOM      3  C   UNL     1       0.819   9.140  20.850  0.00  0.00    +0.000 A 
ATOM      4  C   UNL     1       0.235   8.899  22.102  0.00  0.00    +0.000 A 
ATOM      5  C   UNL     1      -0.393   9.941  22.803  0.00  0.00    +0.000 A 
ATOM      6  C   UNL     1      -0.405  11.244  22.290  0.00  0.00    +0.000 A 
ENDROOT
BRANCH   6   7
ATOM      7  C   UNL     1      -1.169  12.328  22.934  0.00  0.00    +0.000 A 
ATOM      8  C   UNL     1      -2.519  12.220  23.261  0.00  0.00    +0.000 A 
ATOM      9  N   UNL     1      -2.915  13.462  23.646  0.00  0.00    +0.000 N 
ATOM     10  C   UNL     1      -4.120  14.100  23.982  0.00  0.00    +0.000 A 
ATOM     11  C   UNL     1      -3.862  15.351  24.401  0.00  0.00    +0.000 A 
ATOM     12  S   UNL     1      -2.124  15.786  24.347  0.00  0.00    +0.000 S 
ATOM     13  C   UNL     1      -1.769  14.202  23.726  0.00  0.00    +0.000 A 
ATOM     14  N   UNL     1      -0.697  13.585  23.290  0.00  0.00    +0.000 NA
BRANCH  10  15
ATOM     15  C   UNL     1      -5.457  13.372  23.880  0.00  0.00    +0.000 C 
BRANCH  15  16
ATOM     16  N   UNL     1      -6.474  13.798  22.887  0.00  0.00    +0.000 NA
ATOM     17  C   UNL     1      -6.179  13.452  21.470  0.00  0.00    +0.000 C 
ATOM     18  C   UNL     1      -6.275  11.947  21.097  0.00  0.00    +0.000 C 
ATOM     19  N   UNL     1      -7.539  11.300  21.498  0.00  0.00    +0.000 NA
ATOM     20  C   UNL     1      -7.916  11.665  22.867  0.00  0.00    +0.000 C 
ATOM     21  C   UNL     1      -7.803  13.181  23.168  0.00  0.00    +0.000 C 
ATOM     22  H   UNL     1      -7.451  10.294  21.412  0.00  0.00    +0.000 HD
ENDBRANCH  15  16
ENDBRANCH  10  15
ENDBRANCH   6   7
BRANCH   1  25
ATOM     23  O   UNL     1      -1.134  12.978  18.968  0.00  0.00    +0.000 OA
ATOM     24  C   UNL     1      -0.210  13.456  19.619  0.00  0.00    +0.000 C 
ATOM     25  N   UNL     1       0.456  12.801  20.627  0.00  0.00    +0.000 N 
ATOM     26  H   UNL     1       0.995  13.392  21.263  0.00  0.00    +0.000 HD
BRANCH  24  27
ATOM     27  C   UNL     1       0.239  14.864  19.348  0.00  0.00    +0.000 A 
ATOM     28  C   UNL     1      -0.761  15.849  19.260  0.00  0.00    +0.000 A 
ATOM     29  C   UNL     1      -0.463  17.114  18.768  0.00  0.00    +0.000 A 
ATOM     30  C   UNL     1       0.810  17.362  18.270  0.00  0.00    +0.000 A 
ATOM     31  C   UNL     1       1.800  16.372  18.339  0.00  0.00    +0.000 A 
ATOM     32  C   UNL     1       3.012  16.540  17.663  0.00  0.00    +0.000 A 
ATOM     33  C   UNL     1       3.982  15.546  17.725  0.00  0.00    +0.000 A 
ATOM     34  C   UNL     1       3.784  14.520  18.620  0.00  0.00    +0.000 A 
ATOM     35  N   UNL     1       2.608  14.306  19.247  0.00  0.00    +0.000 NA
ATOM     36  C   UNL     1       1.572  15.157  19.011  0.00  0.00    +0.000 A 
ENDBRANCH  24  27
ENDBRANCH   1  25
TORSDOF 5
ENDMDL
MODEL 2
REMARK VINA RESULT:      -7.6      0.921      1.416
REMARK  Name = 
REMARK  5 active torsions:
REMARK  status: ('A' for Active; 'I' for Inactive)
REMARK    1  A    between atoms: C_2  and  C_25
REMARK    2  A    between atoms: N_3  and  C_4
REMARK    3  A    between atoms: C_9  and  C_10
REMARK    4  A    between atoms: C_13  and  C_14
REMARK    5  A    between atoms: C_14  and  N_15
REMARK                            x       y       z     vdW  Elec       q    Type
REMARK                         _______ _______ _______ _____ _____    ______ ____
ROOT
ATOM      1  C   UNL     1       0.422  11.229  20.530  0.00  0.00    +0.000 A 
ATOM      2  C   UNL     1       0.886  10.225  19.665  0.00  0.00    +0.000 A 
ATOM      3  C   UNL     1       0.898   8.904  20.083  0.00  0.00    +0.000 A 
ATOM      4  C   UNL     1       0.430   8.571  21.361  0.00  0.00    +0.000 A 
ATOM      5  C   UNL     1      -0.093   9.565  22.204  0.00  0.00    +0.000 A 
ATOM      6  C   UNL     1      -0.111  10.907  21.805  0.00  0.00    +0.000 A 
ENDROOT
BRANCH   6   7
ATOM      7  C   UNL     1      -0.774  11.950  22.609  0.00  0.00    +0.000 A 
ATOM      8  C   UNL     1      -2.022  11.779  23.202  0.00  0.00    +0.000 A 
ATOM      9  N   UNL     1      -2.384  12.999  23.680  0.00  0.00    +0.000 N 
ATOM     10  C   UNL     1      -3.522  13.579  24.264  0.00  0.00    +0.000 A 
ATOM     11  C   UNL     1      -3.237  14.837  24.643  0.00  0.00    +0.000 A 
ATOM     12  S   UNL     1      -1.567  15.351  24.244  0.00  0.00    +0.000 S 
ATOM     13  C   UNL     1      -1.279  13.789  23.537  0.00  0.00    +0.000 A 
ATOM     14  N   UNL     1      -0.293  13.225  22.882  0.00  0.00    +0.000 NA
BRANCH  10  15
ATOM     15  C   UNL     1      -4.819  12.792  24.424  0.00  0.00    +0.000 C 
BRANCH  15  16
ATOM     16  N   UNL     1      -5.720  12.579  23.264  0.00  0.00    +0.000 NA
ATOM     17  C   UNL     1      -7.162  12.407  23.590  0.00  0.00    +0.000 C 
ATOM     18  C   UNL     1      -7.910  13.673  24.088  0.00  0.00    +0.000 C 
ATOM     19  N   UNL     1      -7.751  14.856  23.219  0.00  0.00    +0.000 NA
ATOM     20  C   UNL     1      -6.355  15.033  22.808  0.00  0.00    +0.000 C 
ATOM     21  C   UNL     1      -5.673  13.730  22.317  0.00  0.00    +0.000 C 
ATOM     22  H   UNL     1      -8.085  15.682  23.700  0.00  0.00    +0.000 HD
ENDBRANCH  15  16
ENDBRANCH  10  15
ENDBRANCH   6   7
BRANCH   1  25
ATOM     23  O   UNL     1      -0.990  12.889  18.600  0.00  0.00    +0.000 OA
ATOM     24  C   UNL     1      -0.046  13.311  19.261  0.00  0.00    +0.000 C 
ATOM     25  N   UNL     1       0.639  12.578  20.201  0.00  0.00    +0.000 N 
ATOM     26  H   UNL     1       1.198  13.117  20.865  0.00  0.00    +0.000 HD
BRANCH  24  27
ATOM     27  C   UNL     1       0.410  14.731  19.082  0.00  0.00    +0.000 A 
ATOM     28  C   UNL     1      -0.586  15.722  19.035  0.00  0.00    +0.000 A 
ATOM     29  C   UNL     1      -0.277  17.014  18.623  0.00  0.00    +0.000 A 
ATOM     30  C   UNL     1       1.005  17.287  18.164  0.00  0.00    +0.000 A 
ATOM     31  C   UNL     1       1.992  16.292  18.192  0.00  0.00    +0.000 A 
ATOM     32  C   UNL     1       3.216  16.497  17.550  0.00  0.00    +0.000 A 
ATOM     33  C   UNL     1       4.183  15.498  17.570  0.00  0.00    +0.000 A 
ATOM     34  C   UNL     1       3.967  14.422  18.398  0.00  0.00    +0.000 A 
ATOM     35  N   UNL     1       2.780  14.174  18.990  0.00  0.00    +0.000 NA
ATOM     36  C   UNL     1       1.750  15.040  18.786  0.00  0.00    +0.000 A 
ENDBRANCH  24  27
ENDBRANCH   1  25
TORSDOF 5
ENDMDL
MODEL 3
REMARK VINA RESULT:      -7.1      6.574      9.351
REMARK  Name = 
REMARK  5 active torsions:
REMARK  status: ('A' for Active; 'I' for Inactive)
REMARK    1  A    between atoms: C_2  and  C_25
REMARK    2  A    between atoms: N_3  and  C_4
REMARK    3  A    between atoms: C_9  and  C_10
REMARK    4  A    between atoms: C_13  and  C_14
REMARK    5  A    between atoms: C_14  and  N_15
REMARK                            x       y       z     vdW  Elec       q    Type
REMARK                         _______ _______ _______ _____ _____    ______ ____
ROOT
ATOM      1  C   UNL     1       2.905   3.961  19.334  0.00  0.00    +0.000 A 
ATOM      2  C   UNL     1       2.788   2.570  19.493  0.00  0.00    +0.000 A 
ATOM      3  C   UNL     1       1.848   2.051  20.367  0.00  0.00    +0.000 A 
ATOM      4  C   UNL     1       1.003   2.915  21.078  0.00  0.00    +0.000 A 
ATOM      5  C   UNL     1       1.075   4.302  20.874  0.00  0.00    +0.000 A 
ATOM      6  C   UNL     1       2.021   4.850  19.999  0.00  0.00    +0.000 A 
ENDROOT
BRANCH   6   7
ATOM      7  C   UNL     1       2.032   6.285  19.662  0.00  0.00    +0.000 A 
ATOM      8  C   UNL     1       1.688   7.285  20.568  0.00  0.00    +0.000 A 
ATOM      9  N   UNL     1       1.626   8.438  19.853  0.00  0.00    +0.000 N 
ATOM     10  C   UNL     1       1.235   9.769  20.077  0.00  0.00    +0.000 A 
ATOM     11  C   UNL     1       1.513  10.506  18.987  0.00  0.00    +0.000 A 
ATOM     12  S   UNL     1       2.224   9.562  17.639  0.00  0.00    +0.000 S 
ATOM     13  C   UNL     1       2.119   8.128  18.617  0.00  0.00    +0.000 A 
ATOM     14  N   UNL     1       2.357   6.852  18.435  0.00  0.00    +0.000 NA
BRANCH  10  15
ATOM     15  C   UNL     1       0.630  10.203  21.408  0.00  0.00    +0.000 C 
BRANCH  15  16
ATOM     16  N   UNL     1      -0.831  10.433  21.533  0.00  0.00    +0.000 NA
ATOM     17  C   UNL     1      -1.274  11.106  22.785  0.00  0.00    +0.000 C 
ATOM     18  C   UNL     1      -0.906  12.609  22.924  0.00  0.00    +0.000 C 
ATOM     19  N   UNL     1      -1.293  13.440  21.768  0.00  0.00    +0.000 NA
ATOM     20  C   UNL     1      -0.943  12.790  20.501  0.00  0.00    +0.000 C 
ATOM     21  C   UNL     1      -1.345  11.295  20.429  0.00  0.00    +0.000 C 
ATOM     22  H   UNL     1      -0.847  14.347  21.834  0.00  0.00    +0.000 HD
ENDBRANCH  15  16
ENDBRANCH  10  15
ENDBRANCH   6   7
BRANCH   1  25
ATOM     23  O   UNL     1       5.693   4.070  20.164  0.00  0.00    +0.000 OA
ATOM     24  C   UNL     1       5.309   4.533  19.094  0.00  0.00    +0.000 C 
ATOM     25  N   UNL     1       4.011   4.486  18.643  0.00  0.00    +0.000 N 
ATOM     26  H   UNL     1       3.881   4.646  17.643  0.00  0.00    +0.000 HD
BRANCH  24  27
ATOM     27  C   UNL     1       6.298   5.181  18.168  0.00  0.00    +0.000 A 
ATOM     28  C   UNL     1       6.970   6.321  18.645  0.00  0.00    +0.000 A 
ATOM     29  C   UNL     1       7.703   7.122  17.777  0.00  0.00    +0.000 A 
ATOM     30  C   UNL     1       7.681   6.840  16.417  0.00  0.00    +0.000 A 
ATOM     31  C   UNL     1       6.994   5.716  15.940  0.00  0.00    +0.000 A 
ATOM     32  C   UNL     1       6.798   5.540  14.568  0.00  0.00    +0.000 A 
ATOM     33  C   UNL     1       6.102   4.429  14.105  0.00  0.00    +0.000 A 
ATOM     34  C   UNL     1       5.807   3.440  15.015  0.00  0.00    +0.000 A 
ATOM     35  N   UNL     1       5.938   3.602  16.348  0.00  0.00    +0.000 NA
ATOM     36  C   UNL     1       6.412   4.787  16.823  0.00  0.00    +0.000 A 
ENDBRANCH  24  27
ENDBRANCH   1  25
TORSDOF 5
ENDMDL
MODEL 4
REMARK VINA RESULT:      -7.1      1.219      2.117
REMARK  Name = 
REMARK  5 active torsions:
REMARK  status: ('A' for Active; 'I' for Inactive)
REMARK    1  A    between atoms: C_2  and  C_25
REMARK    2  A    between atoms: N_3  and  C_4
REMARK    3  A    between atoms: C_9  and  C_10
REMARK    4  A    between atoms: C_13  and  C_14
REMARK    5  A    between atoms: C_14  and  N_15
REMARK                            x       y       z     vdW  Elec       q    Type
REMARK                         _______ _______ _______ _____ _____    ______ ____
ROOT
ATOM      1  C   UNL     1       0.328  11.024  21.066  0.00  0.00    +0.000 A 
ATOM      2  C   UNL     1       0.585   9.726  20.597  0.00  0.00    +0.000 A 
ATOM      3  C   UNL     1       0.229   8.629  21.364  0.00  0.00    +0.000 A 
ATOM      4  C   UNL     1      -0.405   8.818  22.600  0.00  0.00    +0.000 A 
ATOM      5  C   UNL     1      -0.719  10.113  23.044  0.00  0.00    +0.000 A 
ATOM      6  C   UNL     1      -0.364  11.236  22.287  0.00  0.00    +0.000 A 
ENDROOT
BRANCH   6   7
ATOM      7  C   UNL     1      -0.798  12.595  22.659  0.00  0.00    +0.000 A 
ATOM      8  C   UNL     1      -2.083  12.891  23.107  0.00  0.00    +0.000 A 
ATOM      9  N   UNL     1      -2.163  14.246  23.158  0.00  0.00    +0.000 N 
ATOM     10  C   UNL     1      -3.157  15.211  23.393  0.00  0.00    +0.000 A 
ATOM     11  C   UNL     1      -2.595  16.432  23.424  0.00  0.00    +0.000 A 
ATOM     12  S   UNL     1      -0.830  16.424  23.116  0.00  0.00    +0.000 S 
ATOM     13  C   UNL     1      -0.892  14.695  22.938  0.00  0.00    +0.000 A 
ATOM     14  N   UNL     1      -0.037  13.757  22.610  0.00  0.00    +0.000 NA
BRANCH  10  15
ATOM     15  C   UNL     1      -4.614  14.811  23.603  0.00  0.00    +0.000 C 
BRANCH  15  16
ATOM     16  N   UNL     1      -5.588  14.896  22.487  0.00  0.00    +0.000 NA
ATOM     17  C   UNL     1      -5.205  14.179  21.240  0.00  0.00    +0.000 C 
ATOM     18  C   UNL     1      -5.235  12.628  21.303  0.00  0.00    +0.000 C 
ATOM     19  N   UNL     1      -6.499  12.063  21.815  0.00  0.00    +0.000 NA
ATOM     20  C   UNL     1      -6.962  12.781  23.007  0.00  0.00    +0.000 C 
ATOM     21  C   UNL     1      -6.911  14.324  22.872  0.00  0.00    +0.000 C 
ATOM     22  H   UNL     1      -6.376  11.079  22.021  0.00  0.00    +0.000 HD
ENDBRANCH  15  16
ENDBRANCH  10  15
ENDBRANCH   6   7
BRANCH   1  25
ATOM     23  O   UNL     1      -0.368  12.184  18.488  0.00  0.00    +0.000 OA
ATOM     24  C   UNL     1       0.552  12.618  19.176  0.00  0.00    +0.000 C 
ATOM     25  N   UNL     1       0.906  12.124  20.409  0.00  0.00    +0.000 N 
ATOM     26  H   UNL     1       1.484  12.738  20.986  0.00  0.00    +0.000 HD
BRANCH  24  27
ATOM     27  C   UNL     1       1.357  13.787  18.686  0.00  0.00    +0.000 A 
ATOM     28  C   UNL     1       2.686  13.535  18.303  0.00  0.00    +0.000 A 
ATOM     29  C   UNL     1       3.568  14.586  18.082  0.00  0.00    +0.000 A 
ATOM     30  C   UNL     1       3.149  15.884  18.342  0.00  0.00    +0.000 A 
ATOM     31  C   UNL     1       1.830  16.134  18.744  0.00  0.00    +0.000 A 
ATOM     32  C   UNL     1       1.460  17.402  19.199  0.00  0.00    +0.000 A 
ATOM     33  C   UNL     1       0.153  17.636  19.610  0.00  0.00    +0.000 A 
ATOM     34  C   UNL     1      -0.776  16.653  19.360  0.00  0.00    +0.000 A 
ATOM     35  N   UNL     1      -0.443  15.405  18.969  0.00  0.00    +0.000 NA
ATOM     36  C   UNL     1       0.872  15.104  18.783  0.00  0.00    +0.000 A 
ENDBRANCH  24  27
ENDBRANCH   1  25
TORSDOF 5
ENDMDL
MODEL 5
REMARK VINA RESULT:      -7.0      2.247      6.612
REMARK  Name = 
REMARK  5 active torsions:
REMARK  status: ('A' for Active; 'I' for Inactive)
REMARK    1  A    between atoms: C_2  and  C_25
REMARK    2  A    between atoms: N_3  and  C_4
REMARK    3  A    between atoms: C_9  and  C_10
REMARK    4  A    between atoms: C_13  and  C_14
REMARK    5  A    between atoms: C_14  and  N_15
REMARK                            x       y       z     vdW  Elec       q    Type
REMARK                         _______ _______ _______ _____ _____    ______ ____
ROOT
ATOM      1  C   UNL     1      -3.903  11.762  18.606  0.00  0.00    +0.000 A 
ATOM      2  C   UNL     1      -4.417  11.409  17.348  0.00  0.00    +0.000 A 
ATOM      3  C   UNL     1      -5.712  11.761  17.006  0.00  0.00    +0.000 A 
ATOM      4  C   UNL     1      -6.500  12.486  17.910  0.00  0.00    +0.000 A 
ATOM      5  C   UNL     1      -5.969  12.895  19.144  0.00  0.00    +0.000 A 
ATOM      6  C   UNL     1      -4.664  12.546  19.513  0.00  0.00    +0.000 A 
ENDROOT
BRANCH   6   7
ATOM      7  C   UNL     1      -4.033  13.072  20.737  0.00  0.00    +0.000 A 
ATOM      8  C   UNL     1      -2.949  13.946  20.722  0.00  0.00    +0.000 A 
ATOM      9  N   UNL     1      -2.528  14.048  22.011  0.00  0.00    +0.000 N 
ATOM     10  C   UNL     1      -1.454  14.635  22.699  0.00  0.00    +0.000 A 
ATOM     11  C   UNL     1      -1.640  14.491  24.023  0.00  0.00    +0.000 A 
ATOM     12  S   UNL     1      -3.126  13.586  24.450  0.00  0.00    +0.000 S 
ATOM     13  C   UNL     1      -3.476  13.407  22.756  0.00  0.00    +0.000 A 
ATOM     14  N   UNL     1      -4.388  12.783  22.049  0.00  0.00    +0.000 NA
BRANCH  10  15
ATOM     15  C   UNL     1      -0.321  15.333  21.953  0.00  0.00    +0.000 C 
BRANCH  15  16
ATOM     16  N   UNL     1       0.596  14.560  21.080  0.00  0.00    +0.000 NA
ATOM     17  C   UNL     1       0.564  14.914  19.635  0.00  0.00    +0.000 C 
ATOM     18  C   UNL     1       1.172  16.291  19.252  0.00  0.00    +0.000 C 
ATOM     19  N   UNL     1       2.532  16.524  19.775  0.00  0.00    +0.000 NA
ATOM     20  C   UNL     1       2.640  16.123  21.181  0.00  0.00    +0.000 C 
ATOM     21  C   UNL     1       2.019  14.737  21.490  0.00  0.00    +0.000 C 
ATOM     22  H   UNL     1       2.779  17.500  19.666  0.00  0.00    +0.000 HD
ENDBRANCH  15  16
ENDBRANCH  10  15
ENDBRANCH   6   7
BRANCH   1  25
ATOM     23  O   UNL     1      -1.183  12.440  17.821  0.00  0.00    +0.000 OA
ATOM     24  C   UNL     1      -1.430  11.541  18.619  0.00  0.00    +0.000 C 
ATOM     25  N   UNL     1      -2.692  11.197  19.042  0.00  0.00    +0.000 N 
ATOM     26  H   UNL     1      -2.739  10.641  19.898  0.00  0.00    +0.000 HD
BRANCH  24  27
ATOM     27  C   UNL     1      -0.302  10.753  19.222  0.00  0.00    +0.000 A 
ATOM     28  C   UNL     1       0.545  10.066  18.334  0.00  0.00    +0.000 A 
ATOM     29  C   UNL     1       1.447   9.121  18.810  0.00  0.00    +0.000 A 
ATOM     30  C   UNL     1       1.430   8.792  20.159  0.00  0.00    +0.000 A 
ATOM     31  C   UNL     1       0.571   9.463  21.040  0.00  0.00    +0.000 A 
ATOM     32  C   UNL     1       0.404   9.002  22.348  0.00  0.00    +0.000 A 
ATOM     33  C   UNL     1      -0.463   9.665  23.210  0.00  0.00    +0.000 A 
ATOM     34  C   UNL     1      -0.971  10.874  22.793  0.00  0.00    +0.000 A 
ATOM     35  N   UNL     1      -0.867  11.319  21.523  0.00  0.00    +0.000 NA
ATOM     36  C   UNL     1      -0.206  10.555  20.611  0.00  0.00    +0.000 A 
ENDBRANCH  24  27
ENDBRANCH   1  25
TORSDOF 5
ENDMDL
MODEL 6
REMARK VINA RESULT:      -6.9      1.401      2.367
REMARK  Name = 
REMARK  5 active torsions:
REMARK  status: ('A' for Active; 'I' for Inactive)
REMARK    1  A    between atoms: C_2  and  C_25
REMARK    2  A    between atoms: N_3  and  C_4
REMARK    3  A    between atoms: C_9  and  C_10
REMARK    4  A    between atoms: C_13  and  C_14
REMARK    5  A    between atoms: C_14  and  N_15
REMARK                            x       y       z     vdW  Elec       q    Type
REMARK                         _______ _______ _______ _____ _____    ______ ____
ROOT
ATOM      1  C   UNL     1       0.120  11.226  21.105  0.00  0.00    +0.000 A 
ATOM      2  C   UNL     1       0.672  10.003  20.691  0.00  0.00    +0.000 A 
ATOM      3  C   UNL     1       0.602   8.896  21.521  0.00  0.00    +0.000 A 
ATOM      4  C   UNL     1      -0.038   8.995  22.764  0.00  0.00    +0.000 A 
ATOM      5  C   UNL     1      -0.646  10.199  23.154  0.00  0.00    +0.000 A 
ATOM      6  C   UNL     1      -0.582  11.332  22.334  0.00  0.00    +0.000 A 
ENDROOT
BRANCH   6   7
ATOM      7  C   UNL     1      -1.323  12.566  22.652  0.00  0.00    +0.000 A 
ATOM      8  C   UNL     1      -2.688  12.718  22.424  0.00  0.00    +0.000 A 
ATOM      9  N   UNL     1      -2.966  14.029  22.651  0.00  0.00    +0.000 N 
ATOM     10  C   UNL     1      -4.068  14.888  22.504  0.00  0.00    +0.000 A 
ATOM     11  C   UNL     1      -3.766  16.093  23.018  0.00  0.00    +0.000 A 
ATOM     12  S   UNL     1      -2.095  16.209  23.656  0.00  0.00    +0.000 S 
ATOM     13  C   UNL     1      -1.826  14.556  23.188  0.00  0.00    +0.000 A 
ATOM     14  N   UNL     1      -0.802  13.737  23.191  0.00  0.00    +0.000 NA
BRANCH  10  15
ATOM     15  C   UNL     1      -5.370  14.406  21.873  0.00  0.00    +0.000 C 
BRANCH  15  16
ATOM     16  N   UNL     1      -6.662  14.581  22.581  0.00  0.00    +0.000 NA
ATOM     17  C   UNL     1      -7.825  13.866  21.989  0.00  0.00    +0.000 C 
ATOM     18  C   UNL     1      -7.824  12.319  22.130  0.00  0.00    +0.000 C 
ATOM     19  N   UNL     1      -7.609  11.833  23.507  0.00  0.00    +0.000 NA
ATOM     20  C   UNL     1      -6.517  12.557  24.165  0.00  0.00    +0.000 C 
ATOM     21  C   UNL     1      -6.584  14.095  23.988  0.00  0.00    +0.000 C 
ATOM     22  H   UNL     1      -7.417  10.839  23.493  0.00  0.00    +0.000 HD
ENDBRANCH  15  16
ENDBRANCH  10  15
ENDBRANCH   6   7
BRANCH   1  25
ATOM     23  O   UNL     1       2.337  13.084  21.436  0.00  0.00    +0.000 OA
ATOM     24  C   UNL     1       1.460  13.252  20.593  0.00  0.00    +0.000 C 
ATOM     25  N   UNL     1       0.407  12.394  20.379  0.00  0.00    +0.000 N 
ATOM     26  H   UNL     1      -0.076  12.497  19.485  0.00  0.00    +0.000 HD
BRANCH  24  27
ATOM     27  C   UNL     1       1.518  14.452  19.692  0.00  0.00    +0.000 A 
ATOM     28  C   UNL     1       2.778  14.806  19.177  0.00  0.00    +0.000 A 
ATOM     29  C   UNL     1       2.964  16.032  18.550  0.00  0.00    +0.000 A 
ATOM     30  C   UNL     1       1.916  16.944  18.526  0.00  0.00    +0.000 A 
ATOM     31  C   UNL     1       0.667  16.598  19.058  0.00  0.00    +0.000 A 
ATOM     32  C   UNL     1      -0.323  17.571  19.220  0.00  0.00    +0.000 A 
ATOM     33  C   UNL     1      -1.555  17.221  19.763  0.00  0.00    +0.000 A 
ATOM     34  C   UNL     1      -1.816  15.881  19.932  0.00  0.00    +0.000 A 
ATOM     35  N   UNL     1      -0.867  14.926  19.831  0.00  0.00    +0.000 NA
ATOM     36  C   UNL     1       0.405  15.294  19.519  0.00  0.00    +0.000 A 
ENDBRANCH  24  27
ENDBRANCH   1  25
TORSDOF 5
ENDMDL
MODEL 7
REMARK VINA RESULT:      -6.9      1.111      2.200
REMARK  Name = 
REMARK  5 active torsions:
REMARK  status: ('A' for Active; 'I' for Inactive)
REMARK    1  A    between atoms: C_2  and  C_25
REMARK    2  A    between atoms: N_3  and  C_4
REMARK    3  A    between atoms: C_9  and  C_10
REMARK    4  A    between atoms: C_13  and  C_14
REMARK    5  A    between atoms: C_14  and  N_15
REMARK                            x       y       z     vdW  Elec       q    Type
REMARK                         _______ _______ _______ _____ _____    ______ ____
ROOT
ATOM      1  C   UNL     1      -0.031  11.480  21.278  0.00  0.00    +0.000 A 
ATOM      2  C   UNL     1       0.469  10.357  20.599  0.00  0.00    +0.000 A 
ATOM      3  C   UNL     1       0.396   9.105  21.187  0.00  0.00    +0.000 A 
ATOM      4  C   UNL     1      -0.194   8.959  22.450  0.00  0.00    +0.000 A 
ATOM      5  C   UNL     1      -0.751  10.071  23.104  0.00  0.00    +0.000 A 
ATOM      6  C   UNL     1      -0.683  11.347  22.531  0.00  0.00    +0.000 A 
ENDROOT
BRANCH   6   7
ATOM      7  C   UNL     1      -1.374  12.505  23.126  0.00  0.00    +0.000 A 
ATOM      8  C   UNL     1      -2.753  12.557  23.317  0.00  0.00    +0.000 A 
ATOM      9  N   UNL     1      -3.034  13.832  23.695  0.00  0.00    +0.000 N 
ATOM     10  C   UNL     1      -4.183  14.606  23.929  0.00  0.00    +0.000 A 
ATOM     11  C   UNL     1      -3.820  15.810  24.405  0.00  0.00    +0.000 A 
ATOM     12  S   UNL     1      -2.046  16.033  24.532  0.00  0.00    +0.000 S 
ATOM     13  C   UNL     1      -1.822  14.426  23.905  0.00  0.00    +0.000 A 
ATOM     14  N   UNL     1      -0.793  13.691  23.560  0.00  0.00    +0.000 NA
BRANCH  10  15
ATOM     15  C   UNL     1      -5.579  14.047  23.678  0.00  0.00    +0.000 C 
BRANCH  15  16
ATOM     16  N   UNL     1      -6.282  14.318  22.399  0.00  0.00    +0.000 NA
ATOM     17  C   UNL     1      -5.580  13.862  21.168  0.00  0.00    +0.000 C 
ATOM     18  C   UNL     1      -5.515  12.327  20.943  0.00  0.00    +0.000 C 
ATOM     19  N   UNL     1      -6.819  11.642  21.035  0.00  0.00    +0.000 NA
ATOM     20  C   UNL     1      -7.586  12.106  22.195  0.00  0.00    +0.000 C 
ATOM     21  C   UNL     1      -7.614  13.648  22.355  0.00  0.00    +0.000 C 
ATOM     22  H   UNL     1      -6.676  10.640  21.084  0.00  0.00    +0.000 HD
ENDBRANCH  15  16
ENDBRANCH  10  15
ENDBRANCH   6   7
BRANCH   1  25
ATOM     23  O   UNL     1      -0.268  12.513  18.566  0.00  0.00    +0.000 OA
ATOM     24  C   UNL     1       0.155  13.197  19.493  0.00  0.00    +0.000 C 
ATOM     25  N   UNL     1       0.264  12.767  20.795  0.00  0.00    +0.000 N 
ATOM     26  H   UNL     1       0.357  13.500  21.500  0.00  0.00    +0.000 HD
BRANCH  24  27
ATOM     27  C   UNL     1       0.569  14.618  19.239  0.00  0.00    +0.000 A 
ATOM     28  C   UNL     1       1.837  14.823  18.667  0.00  0.00    +0.000 A 
ATOM     29  C   UNL     1       2.397  16.095  18.633  0.00  0.00    +0.000 A 
ATOM     30  C   UNL     1       1.734  17.142  19.259  0.00  0.00    +0.000 A 
ATOM     31  C   UNL     1       0.479  16.932  19.846  0.00  0.00    +0.000 A 
ATOM     32  C   UNL     1      -0.098  17.921  20.647  0.00  0.00    +0.000 A 
ATOM     33  C   UNL     1      -1.336  17.698  21.238  0.00  0.00    +0.000 A 
ATOM     34  C   UNL     1      -2.036  16.582  20.843  0.00  0.00    +0.000 A 
ATOM     35  N   UNL     1      -1.488  15.588  20.112  0.00  0.00    +0.000 NA
ATOM     36  C   UNL     1      -0.190  15.700  19.719  0.00  0.00    +0.000 A 
ENDBRANCH  24  27
ENDBRANCH   1  25
TORSDOF 5
ENDMDL
MODEL 8
REMARK VINA RESULT:      -6.9      2.737      7.753
REMARK  Name = 
REMARK  5 active torsions:
REMARK  status: ('A' for Active; 'I' for Inactive)
REMARK    1  A    between atoms: C_2  and  C_25
REMARK    2  A    between atoms: N_3  and  C_4
REMARK    3  A    between atoms: C_9  and  C_10
REMARK    4  A    between atoms: C_13  and  C_14
REMARK    5  A    between atoms: C_14  and  N_15
REMARK                            x       y       z     vdW  Elec       q    Type
REMARK                         _______ _______ _______ _____ _____    ______ ____
ROOT
ATOM      1  C   UNL     1       0.505  10.901  20.283  0.00  0.00    +0.000 A 
ATOM      2  C   UNL     1       0.733   9.551  20.596  0.00  0.00    +0.000 A 
ATOM      3  C   UNL     1       1.362   8.725  19.678  0.00  0.00    +0.000 A 
ATOM      4  C   UNL     1       1.784   9.244  18.446  0.00  0.00    +0.000 A 
ATOM      5  C   UNL     1       1.613  10.607  18.156  0.00  0.00    +0.000 A 
ATOM      6  C   UNL     1       0.976  11.459  19.066  0.00  0.00    +0.000 A 
ENDROOT
BRANCH   6   7
ATOM      7  C   UNL     1       0.903  12.915  18.849  0.00  0.00    +0.000 A 
ATOM      8  C   UNL     1       1.991  13.683  18.444  0.00  0.00    +0.000 A 
ATOM      9  N   UNL     1       1.598  14.980  18.543  0.00  0.00    +0.000 N 
ATOM     10  C   UNL     1       2.190  16.248  18.421  0.00  0.00    +0.000 A 
ATOM     11  C   UNL     1       1.241  17.196  18.522  0.00  0.00    +0.000 A 
ATOM     12  S   UNL     1      -0.402  16.544  18.818  0.00  0.00    +0.000 S 
ATOM     13  C   UNL     1       0.258  14.935  18.804  0.00  0.00    +0.000 A 
ATOM     14  N   UNL     1      -0.210  13.730  19.021  0.00  0.00    +0.000 NA
BRANCH  10  15
ATOM     15  C   UNL     1       3.687  16.403  18.176  0.00  0.00    +0.000 C 
BRANCH  15  16
ATOM     16  N   UNL     1       4.549  17.082  19.175  0.00  0.00    +0.000 NA
ATOM     17  C   UNL     1       4.409  16.607  20.578  0.00  0.00    +0.000 C 
ATOM     18  C   UNL     1       4.970  15.191  20.883  0.00  0.00    +0.000 C 
ATOM     19  N   UNL     1       6.361  14.979  20.440  0.00  0.00    +0.000 NA
ATOM     20  C   UNL     1       6.575  15.495  19.084  0.00  0.00    +0.000 C 
ATOM     21  C   UNL     1       5.996  16.914  18.853  0.00  0.00    +0.000 C 
ATOM     22  H   UNL     1       6.587  13.992  20.482  0.00  0.00    +0.000 HD
ENDBRANCH  15  16
ENDBRANCH  10  15
ENDBRANCH   6   7
BRANCH   1  25
ATOM     23  O   UNL     1      -0.062  10.589  23.121  0.00  0.00    +0.000 OA
ATOM     24  C   UNL     1      -0.593  11.460  22.438  0.00  0.00    +0.000 C 
ATOM     25  N   UNL     1      -0.343  11.667  21.102  0.00  0.00    +0.000 N 
ATOM     26  H   UNL     1      -0.623  12.576  20.732  0.00  0.00    +0.000 HD
BRANCH  24  27
ATOM     27  C   UNL     1      -1.570  12.408  23.073  0.00  0.00    +0.000 A 
ATOM     28  C   UNL     1      -2.804  11.873  23.486  0.00  0.00    +0.000 A 
ATOM     29  C   UNL     1      -3.851  12.714  23.845  0.00  0.00    +0.000 A 
ATOM     30  C   UNL     1      -3.697  14.086  23.695  0.00  0.00    +0.000 A 
ATOM     31  C   UNL     1      -2.474  14.617  23.264  0.00  0.00    +0.000 A 
ATOM     32  C   UNL     1      -2.375  15.967  22.918  0.00  0.00    +0.000 A 
ATOM     33  C   UNL     1      -1.161  16.481  22.477  0.00  0.00    +0.000 A 
ATOM     34  C   UNL     1      -0.052  15.675  22.590  0.00  0.00    +0.000 A 
ATOM     35  N   UNL     1      -0.123  14.357  22.872  0.00  0.00    +0.000 NA
ATOM     36  C   UNL     1      -1.345  13.796  23.084  0.00  0.00    +0.000 A 
ENDBRANCH  24  27
ENDBRANCH   1  25
TORSDOF 5
ENDMDL
MODEL 9
REMARK VINA RESULT:      -6.9      3.791      7.261
REMARK  Name = 
REMARK  5 active torsions:
REMARK  status: ('A' for Active; 'I' for Inactive)
REMARK    1  A    between atoms: C_2  and  C_25
REMARK    2  A    between atoms: N_3  and  C_4
REMARK    3  A    between atoms: C_9  and  C_10
REMARK    4  A    between atoms: C_13  and  C_14
REMARK    5  A    between atoms: C_14  and  N_15
REMARK                            x       y       z     vdW  Elec       q    Type
REMARK                         _______ _______ _______ _____ _____    ______ ____
ROOT
ATOM      1  C   UNL     1      -0.162  12.889  21.641  0.00  0.00    +0.000 A 
ATOM      2  C   UNL     1      -0.673  13.730  22.644  0.00  0.00    +0.000 A 
ATOM      3  C   UNL     1      -1.607  13.245  23.544  0.00  0.00    +0.000 A 
ATOM      4  C   UNL     1      -2.028  11.910  23.463  0.00  0.00    +0.000 A 
ATOM      5  C   UNL     1      -1.474  11.050  22.501  0.00  0.00    +0.000 A 
ATOM      6  C   UNL     1      -0.531  11.520  21.578  0.00  0.00    +0.000 A 
ENDROOT
BRANCH   6   7
ATOM      7  C   UNL     1       0.167  10.614  20.648  0.00  0.00    +0.000 A 
ATOM      8  C   UNL     1       0.316   9.249  20.878  0.00  0.00    +0.000 A 
ATOM      9  N   UNL     1       1.168   8.794  19.922  0.00  0.00    +0.000 N 
ATOM     10  C   UNL     1       1.837   7.596  19.624  0.00  0.00    +0.000 A 
ATOM     11  C   UNL     1       2.474   7.720  18.447  0.00  0.00    +0.000 A 
ATOM     12  S   UNL     1       2.300   9.339  17.698  0.00  0.00    +0.000 S 
ATOM     13  C   UNL     1       1.333   9.838  19.055  0.00  0.00    +0.000 A 
ATOM     14  N   UNL     1       0.779  10.959  19.448  0.00  0.00    +0.000 NA
BRANCH  10  15
ATOM     15  C   UNL     1       1.753   6.390  20.554  0.00  0.00    +0.000 C 
BRANCH  15  16
ATOM     16  N   UNL     1       2.701   5.257  20.410  0.00  0.00    +0.000 NA
ATOM     17  C   UNL     1       2.502   4.124  21.354  0.00  0.00    +0.000 C 
ATOM     18  C   UNL     1       1.239   3.250  21.121  0.00  0.00    +0.000 C 
ATOM     19  N   UNL     1       1.086   2.758  19.738  0.00  0.00    +0.000 NA
ATOM     20  C   UNL     1       1.342   3.820  18.761  0.00  0.00    +0.000 C 
ATOM     21  C   UNL     1       2.620   4.648  19.051  0.00  0.00    +0.000 C 
ATOM     22  H   UNL     1       0.156   2.378  19.611  0.00  0.00    +0.000 HD
ENDBRANCH  15  16
ENDBRANCH  10  15
ENDBRANCH   6   7
BRANCH   1  25
ATOM     23  O   UNL     1       2.423  14.224  21.750  0.00  0.00    +0.000 OA
ATOM     24  C   UNL     1       1.799  14.086  20.701  0.00  0.00    +0.000 C 
ATOM     25  N   UNL     1       0.589  13.444  20.591  0.00  0.00    +0.000 N 
ATOM     26  H   UNL     1       0.323  13.155  19.648  0.00  0.00    +0.000 HD
BRANCH  24  27
ATOM     27  C   UNL     1       2.375  14.617  19.420  0.00  0.00    +0.000 A 
ATOM     28  C   UNL     1       3.684  14.221  19.094  0.00  0.00    +0.000 A 
ATOM     29  C   UNL     1       4.379  14.856  18.071  0.00  0.00    +0.000 A 
ATOM     30  C   UNL     1       3.803  15.953  17.444  0.00  0.00    +0.000 A 
ATOM     31  C   UNL     1       2.506  16.360  17.784  0.00  0.00    +0.000 A 
ATOM     32  C   UNL     1       2.001  17.573  17.308  0.00  0.00    +0.000 A 
ATOM     33  C   UNL     1       0.718  17.976  17.664  0.00  0.00    +0.000 A 
ATOM     34  C   UNL     1      -0.078  17.061  18.312  0.00  0.00    +0.000 A 
ATOM     35  N   UNL     1       0.395  15.905  18.826  0.00  0.00    +0.000 NA
ATOM     36  C   UNL     1       1.715  15.611  18.675  0.00  0.00    +0.000 A 
ENDBRANCH  24  27
ENDBRANCH   1  25
TORSDOF 5
ENDMDL
