MODEL 1
REMARK VINA RESULT:      -6.2      0.000      0.000
REMARK  Name = 
REMARK  8 active torsions:
REMARK  status: ('A' for Active; 'I' for Inactive)
REMARK    1  A    between atoms: C_2  and  C_3
REMARK    2  A    between atoms: C_3  and  S_4
REMARK    3  A    between atoms: S_4  and  C_5
REMARK    4  A    between atoms: C_9  and  N_10
REMARK    5  A    between atoms: N_10  and  C_11
REMARK    6  A    between atoms: C_11  and  C_12
REMARK    7  A    between atoms: C_12  and  C_13
REMARK    8  A    between atoms: C_12  and  O_14
REMARK                            x       y       z     vdW  Elec       q    Type
REMARK                         _______ _______ _______ _____ _____    ______ ____
ROOT
ATOM      1  C   UNL     1       5.102   4.523  16.938  0.00  0.00    +0.000 C 
ATOM      2  C   UNL     1       3.875   4.032  16.703  0.00  0.00    +0.000 C 
ATOM      3  C   UNL     1       3.118   3.249  17.708  0.00  0.00    +0.000 C 
ATOM      4  O   UNL     1       1.989   2.828  17.459  0.00  0.00    +0.000 OA
ATOM      5  C   UNL     1       3.750   3.022  19.057  0.00  0.00    +0.000 C 
ATOM      6  C   UNL     1       4.945   3.551  19.272  0.00  0.00    +0.000 C 
ATOM      7  C   UNL     1       5.714   4.321  18.277  0.00  0.00    +0.000 C 
ATOM      8  O   UNL     1       6.802   4.764  18.622  0.00  0.00    +0.000 OA
ENDROOT
BRANCH   5   9
ATOM      9  N   UNL     1       3.091   2.266  20.018  0.00  0.00    +0.000 N 
ATOM     10  H   UNL     1       2.628   1.431  19.658  0.00  0.00    +0.000 HD
BRANCH   9  11
ATOM     11  C   UNL     1       2.513   2.814  21.255  0.00  0.00    +0.000 C 
BRANCH  11  12
ATOM     12  C   UNL     1       1.243   3.656  21.024  0.00  0.00    +0.000 C 
ATOM     13  C   UNL     1       1.515   5.097  20.612  0.00  0.00    +0.000 C 
BRANCH  12  14
ATOM     14  O   UNL     1       0.416   3.022  20.047  0.00  0.00    +0.000 OA
ATOM     15  H   UNL     1      -0.509   3.164  20.324  0.00  0.00    +0.000 HD
ENDBRANCH  12  14
ENDBRANCH  11  12
ENDBRANCH   9  11
ENDBRANCH   5   9
BRANCH   1  16
ATOM     16  S   UNL     1       5.916   5.470  15.722  0.00  0.00    +0.000 S 
BRANCH  16  17
ATOM     17  C   UNL     1       6.615   4.234  14.584  0.00  0.00    +0.000 C 
BRANCH  17  19
ATOM     18  C   UNL     1       5.977   3.313  12.332  0.00  0.00    +0.000 C 
ATOM     19  C   UNL     1       5.664   3.984  13.449  0.00  0.00    +0.000 C 
ENDBRANCH  17  19
ENDBRANCH  16  17
ENDBRANCH   1  16
TORSDOF 7
ENDMDL
MODEL 2
REMARK VINA RESULT:      -6.0      2.639      3.579
REMARK  Name = 
REMARK  8 active torsions:
REMARK  status: ('A' for Active; 'I' for Inactive)
REMARK    1  A    between atoms: C_2  and  C_3
REMARK    2  A    between atoms: C_3  and  S_4
REMARK    3  A    between atoms: S_4  and  C_5
REMARK    4  A    between atoms: C_9  and  N_10
REMARK    5  A    between atoms: N_10  and  C_11
REMARK    6  A    between atoms: C_11  and  C_12
REMARK    7  A    between atoms: C_12  and  C_13
REMARK    8  A    between atoms: C_12  and  O_14
REMARK                            x       y       z     vdW  Elec       q    Type
REMARK                         _______ _______ _______ _____ _____    ______ ____
ROOT
ATOM      1  C   UNL     1       5.653   5.177  17.259  0.00  0.00    +0.000 C 
ATOM      2  C   UNL     1       4.948   5.744  18.251  0.00  0.00    +0.000 C 
ATOM      3  C   UNL     1       3.588   5.294  18.629  0.00  0.00    +0.000 C 
ATOM      4  O   UNL     1       2.981   5.831  19.554  0.00  0.00    +0.000 OA
ATOM      5  C   UNL     1       2.988   4.133  17.878  0.00  0.00    +0.000 C 
ATOM      6  C   UNL     1       3.722   3.569  16.930  0.00  0.00    +0.000 C 
ATOM      7  C   UNL     1       5.071   4.016  16.535  0.00  0.00    +0.000 C 
ATOM      8  O   UNL     1       5.638   3.389  15.650  0.00  0.00    +0.000 OA
ENDROOT
BRANCH   5   9
ATOM      9  N   UNL     1       1.704   3.698  18.176  0.00  0.00    +0.000 N 
ATOM     10  H   UNL     1       0.993   4.431  18.159  0.00  0.00    +0.000 HD
BRANCH   9  11
ATOM     11  C   UNL     1       1.393   2.549  19.041  0.00  0.00    +0.000 C 
BRANCH  11  12
ATOM     12  C   UNL     1       1.123   2.936  20.509  0.00  0.00    +0.000 C 
ATOM     13  C   UNL     1       2.330   2.788  21.427  0.00  0.00    +0.000 C 
BRANCH  12  14
ATOM     14  O   UNL     1       0.631   4.276  20.572  0.00  0.00    +0.000 OA
ATOM     15  H   UNL     1       0.883   4.628  21.446  0.00  0.00    +0.000 HD
ENDBRANCH  12  14
ENDBRANCH  11  12
ENDBRANCH   9  11
ENDBRANCH   5   9
BRANCH   1  16
ATOM     16  S   UNL     1       7.264   5.733  16.897  0.00  0.00    +0.000 S 
BRANCH  16  17
ATOM     17  C   UNL     1       7.638   6.921  18.224  0.00  0.00    +0.000 C 
BRANCH  17  19
ATOM     18  C   UNL     1       8.453   9.300  18.210  0.00  0.00    +0.000 C 
ATOM     19  C   UNL     1       7.741   8.308  17.659  0.00  0.00    +0.000 C 
ENDBRANCH  17  19
ENDBRANCH  16  17
ENDBRANCH   1  16
TORSDOF 7
ENDMDL
MODEL 3
REMARK VINA RESULT:      -5.9      3.038      6.157
REMARK  Name = 
REMARK  8 active torsions:
REMARK  status: ('A' for Active; 'I' for Inactive)
REMARK    1  A    between atoms: C_2  and  C_3
REMARK    2  A    between atoms: C_3  and  S_4
REMARK    3  A    between atoms: S_4  and  C_5
REMARK    4  A    between atoms: C_9  and  N_10
REMARK    5  A    between atoms: N_10  and  C_11
REMARK    6  A    between atoms: C_11  and  C_12
REMARK    7  A    between atoms: C_12  and  C_13
REMARK    8  A    between atoms: C_12  and  O_14
REMARK                            x       y       z     vdW  Elec       q    Type
REMARK                         _______ _______ _______ _____ _____    ______ ____
ROOT
ATOM      1  C   UNL     1       3.324   5.821  19.254  0.00  0.00    +0.000 C 
ATOM      2  C   UNL     1       4.440   5.092  19.415  0.00  0.00    +0.000 C 
ATOM      3  C   UNL     1       5.595   5.178  18.490  0.00  0.00    +0.000 C 
ATOM      4  O   UNL     1       6.606   4.504  18.681  0.00  0.00    +0.000 OA
ATOM      5  C   UNL     1       5.514   6.146  17.338  0.00  0.00    +0.000 C 
ATOM      6  C   UNL     1       4.416   6.878  17.226  0.00  0.00    +0.000 C 
ATOM      7  C   UNL     1       3.255   6.793  18.131  0.00  0.00    +0.000 C 
ATOM      8  O   UNL     1       2.313   7.544  17.915  0.00  0.00    +0.000 OA
ENDROOT
BRANCH   5   9
ATOM      9  N   UNL     1       6.559   6.236  16.428  0.00  0.00    +0.000 N 
ATOM     10  H   UNL     1       6.692   7.163  16.024  0.00  0.00    +0.000 HD
BRANCH   9  11
ATOM     11  C   UNL     1       7.038   5.120  15.597  0.00  0.00    +0.000 C 
BRANCH  11  12
ATOM     12  C   UNL     1       5.915   4.177  15.121  0.00  0.00    +0.000 C 
ATOM     13  C   UNL     1       5.950   3.867  13.630  0.00  0.00    +0.000 C 
BRANCH  12  14
ATOM     14  O   UNL     1       5.959   2.960  15.868  0.00  0.00    +0.000 OA
ATOM     15  H   UNL     1       6.900   2.714  15.952  0.00  0.00    +0.000 HD
ENDBRANCH  12  14
ENDBRANCH  11  12
ENDBRANCH   9  11
ENDBRANCH   5   9
BRANCH   1  16
ATOM     16  S   UNL     1       2.021   5.697  20.404  0.00  0.00    +0.000 S 
BRANCH  16  17
ATOM     17  C   UNL     1       2.154   4.001  21.052  0.00  0.00    +0.000 C 
BRANCH  17  19
ATOM     18  C   UNL     1       0.962   2.737  19.234  0.00  0.00    +0.000 C 
ATOM     19  C   UNL     1       1.042   3.153  20.505  0.00  0.00    +0.000 C 
ENDBRANCH  17  19
ENDBRANCH  16  17
ENDBRANCH   1  16
TORSDOF 7
ENDMDL
MODEL 4
REMARK VINA RESULT:      -5.9      1.906      2.647
REMARK  Name = 
REMARK  8 active torsions:
REMARK  status: ('A' for Active; 'I' for Inactive)
REMARK    1  A    between atoms: C_2  and  C_3
REMARK    2  A    between atoms: C_3  and  S_4
REMARK    3  A    between atoms: S_4  and  C_5
REMARK    4  A    between atoms: C_9  and  N_10
REMARK    5  A    between atoms: N_10  and  C_11
REMARK    6  A    between atoms: C_11  and  C_12
REMARK    7  A    between atoms: C_12  and  C_13
REMARK    8  A    between atoms: C_12  and  O_14
REMARK                            x       y       z     vdW  Elec       q    Type
REMARK                         _______ _______ _______ _____ _____    ______ ____
ROOT
ATOM      1  C   UNL     1       6.037   5.060  16.148  0.00  0.00    +0.000 C 
ATOM      2  C   UNL     1       6.121   4.213  17.186  0.00  0.00    +0.000 C 
ATOM      3  C   UNL     1       5.380   4.421  18.453  0.00  0.00    +0.000 C 
ATOM      4  O   UNL     1       5.472   3.613  19.376  0.00  0.00    +0.000 OA
ATOM      5  C   UNL     1       4.478   5.624  18.561  0.00  0.00    +0.000 C 
ATOM      6  C   UNL     1       4.387   6.420  17.507  0.00  0.00    +0.000 C 
ATOM      7  C   UNL     1       5.128   6.232  16.246  0.00  0.00    +0.000 C 
ATOM      8  O   UNL     1       4.933   7.041  15.349  0.00  0.00    +0.000 OA
ENDROOT
BRANCH   5   9
ATOM      9  N   UNL     1       3.790   5.876  19.741  0.00  0.00    +0.000 N 
ATOM     10  H   UNL     1       4.364   5.834  20.584  0.00  0.00    +0.000 HD
BRANCH   9  11
ATOM     11  C   UNL     1       2.360   5.597  19.946  0.00  0.00    +0.000 C 
BRANCH  11  12
ATOM     12  C   UNL     1       1.950   4.158  19.574  0.00  0.00    +0.000 C 
ATOM     13  C   UNL     1       1.050   3.481  20.599  0.00  0.00    +0.000 C 
BRANCH  12  14
ATOM     14  O   UNL     1       1.313   4.155  18.295  0.00  0.00    +0.000 OA
ATOM     15  H   UNL     1       0.355   4.062  18.458  0.00  0.00    +0.000 HD
ENDBRANCH  12  14
ENDBRANCH  11  12
ENDBRANCH   9  11
ENDBRANCH   5   9
BRANCH   1  16
ATOM     16  S   UNL     1       6.906   4.729  14.674  0.00  0.00    +0.000 S 
BRANCH  16  17
ATOM     17  C   UNL     1       5.665   3.971  13.581  0.00  0.00    +0.000 C 
BRANCH  17  19
ATOM     18  C   UNL     1       5.835   2.397  11.627  0.00  0.00    +0.000 C 
ATOM     19  C   UNL     1       6.331   3.402  12.361  0.00  0.00    +0.000 C 
ENDBRANCH  17  19
ENDBRANCH  16  17
ENDBRANCH   1  16
TORSDOF 7
ENDMDL
MODEL 5
REMARK VINA RESULT:      -5.9      1.453      1.616
REMARK  Name = 
REMARK  8 active torsions:
REMARK  status: ('A' for Active; 'I' for Inactive)
REMARK    1  A    between atoms: C_2  and  C_3
REMARK    2  A    between atoms: C_3  and  S_4
REMARK    3  A    between atoms: S_4  and  C_5
REMARK    4  A    between atoms: C_9  and  N_10
REMARK    5  A    between atoms: N_10  and  C_11
REMARK    6  A    between atoms: C_11  and  C_12
REMARK    7  A    between atoms: C_12  and  C_13
REMARK    8  A    between atoms: C_12  and  O_14
REMARK                            x       y       z     vdW  Elec       q    Type
REMARK                         _______ _______ _______ _____ _____    ______ ____
ROOT
ATOM      1  C   UNL     1       5.567   4.560  16.947  0.00  0.00    +0.000 C 
ATOM      2  C   UNL     1       4.403   3.988  16.601  0.00  0.00    +0.000 C 
ATOM      3  C   UNL     1       3.185   4.073  17.441  0.00  0.00    +0.000 C 
ATOM      4  O   UNL     1       2.133   3.548  17.081  0.00  0.00    +0.000 OA
ATOM      5  C   UNL     1       3.261   4.858  18.726  0.00  0.00    +0.000 C 
ATOM      6  C   UNL     1       4.412   5.442  19.023  0.00  0.00    +0.000 C 
ATOM      7  C   UNL     1       5.634   5.354  18.202  0.00  0.00    +0.000 C 
ATOM      8  O   UNL     1       6.623   5.960  18.593  0.00  0.00    +0.000 OA
ENDROOT
BRANCH   5   9
ATOM      9  N   UNL     1       2.154   4.937  19.561  0.00  0.00    +0.000 N 
ATOM     10  H   UNL     1       1.430   5.584  19.247  0.00  0.00    +0.000 HD
BRANCH   9  11
ATOM     11  C   UNL     1       2.187   4.696  21.012  0.00  0.00    +0.000 C 
BRANCH  11  12
ATOM     12  C   UNL     1       1.653   3.309  21.421  0.00  0.00    +0.000 C 
ATOM     13  C   UNL     1       1.063   2.503  20.270  0.00  0.00    +0.000 C 
BRANCH  12  14
ATOM     14  O   UNL     1       2.693   2.559  22.051  0.00  0.00    +0.000 OA
ATOM     15  H   UNL     1       3.007   3.092  22.807  0.00  0.00    +0.000 HD
ENDBRANCH  12  14
ENDBRANCH  11  12
ENDBRANCH   9  11
ENDBRANCH   5   9
BRANCH   1  16
ATOM     16  S   UNL     1       6.947   4.453  15.888  0.00  0.00    +0.000 S 
BRANCH  16  17
ATOM     17  C   UNL     1       6.278   4.830  14.239  0.00  0.00    +0.000 C 
BRANCH  17  19
ATOM     18  C   UNL     1       5.602   3.452  12.246  0.00  0.00    +0.000 C 
ATOM     19  C   UNL     1       6.301   3.598  13.380  0.00  0.00    +0.000 C 
ENDBRANCH  17  19
ENDBRANCH  16  17
ENDBRANCH   1  16
TORSDOF 7
ENDMDL
MODEL 6
REMARK VINA RESULT:      -5.9      1.901      2.271
REMARK  Name = 
REMARK  8 active torsions:
REMARK  status: ('A' for Active; 'I' for Inactive)
REMARK    1  A    between atoms: C_2  and  C_3
REMARK    2  A    between atoms: C_3  and  S_4
REMARK    3  A    between atoms: S_4  and  C_5
REMARK    4  A    between atoms: C_9  and  N_10
REMARK    5  A    between atoms: N_10  and  C_11
REMARK    6  A    between atoms: C_11  and  C_12
REMARK    7  A    between atoms: C_12  and  C_13
REMARK    8  A    between atoms: C_12  and  O_14
REMARK                            x       y       z     vdW  Elec       q    Type
REMARK                         _______ _______ _______ _____ _____    ______ ____
ROOT
ATOM      1  C   UNL     1       5.390   5.258  17.147  0.00  0.00    +0.000 C 
ATOM      2  C   UNL     1       5.479   4.184  17.947  0.00  0.00    +0.000 C 
ATOM      3  C   UNL     1       4.662   4.026  19.173  0.00  0.00    +0.000 C 
ATOM      4  O   UNL     1       4.763   3.019  19.872  0.00  0.00    +0.000 OA
ATOM      5  C   UNL     1       3.673   5.112  19.514  0.00  0.00    +0.000 C 
ATOM      6  C   UNL     1       3.580   6.141  18.685  0.00  0.00    +0.000 C 
ATOM      7  C   UNL     1       4.396   6.316  17.470  0.00  0.00    +0.000 C 
ATOM      8  O   UNL     1       4.191   7.312  16.789  0.00  0.00    +0.000 OA
ENDROOT
BRANCH   5   9
ATOM      9  N   UNL     1       2.910   5.021  20.670  0.00  0.00    +0.000 N 
ATOM     10  H   UNL     1       3.426   4.721  21.498  0.00  0.00    +0.000 HD
BRANCH   9  11
ATOM     11  C   UNL     1       1.468   4.728  20.695  0.00  0.00    +0.000 C 
BRANCH  11  12
ATOM     12  C   UNL     1       1.142   3.222  20.663  0.00  0.00    +0.000 C 
ATOM     13  C   UNL     1       0.951   2.654  19.261  0.00  0.00    +0.000 C 
BRANCH  12  14
ATOM     14  O   UNL     1       2.166   2.493  21.343  0.00  0.00    +0.000 OA
ATOM     15  H   UNL     1       1.919   2.474  22.287  0.00  0.00    +0.000 HD
ENDBRANCH  12  14
ENDBRANCH  11  12
ENDBRANCH   9  11
ENDBRANCH   5   9
BRANCH   1  16
ATOM     16  S   UNL     1       6.354   5.357  15.698  0.00  0.00    +0.000 S 
BRANCH  16  17
ATOM     17  C   UNL     1       6.136   3.735  14.903  0.00  0.00    +0.000 C 
BRANCH  17  19
ATOM     18  C   UNL     1       6.403   3.534  12.410  0.00  0.00    +0.000 C 
ATOM     19  C   UNL     1       5.692   3.915  13.479  0.00  0.00    +0.000 C 
ENDBRANCH  17  19
ENDBRANCH  16  17
ENDBRANCH   1  16
TORSDOF 7
ENDMDL
MODEL 7
REMARK VINA RESULT:      -5.9      3.063      6.054
REMARK  Name = 
REMARK  8 active torsions:
REMARK  status: ('A' for Active; 'I' for Inactive)
REMARK    1  A    between atoms: C_2  and  C_3
REMARK    2  A    between atoms: C_3  and  S_4
REMARK    3  A    between atoms: S_4  and  C_5
REMARK    4  A    between atoms: C_9  and  N_10
REMARK    5  A    between atoms: N_10  and  C_11
REMARK    6  A    between atoms: C_11  and  C_12
REMARK    7  A    between atoms: C_12  and  C_13
REMARK    8  A    between atoms: C_12  and  O_14
REMARK                            x       y       z     vdW  Elec       q    Type
REMARK                         _______ _______ _______ _____ _____    ______ ____
ROOT
ATOM      1  C   UNL     1       3.152   4.332  18.031  0.00  0.00    +0.000 C 
ATOM      2  C   UNL     1       3.971   3.934  17.044  0.00  0.00    +0.000 C 
ATOM      3  C   UNL     1       5.429   4.199  17.055  0.00  0.00    +0.000 C 
ATOM      4  O   UNL     1       6.147   3.805  16.138  0.00  0.00    +0.000 OA
ATOM      5  C   UNL     1       6.011   4.926  18.240  0.00  0.00    +0.000 C 
ATOM      6  C   UNL     1       5.185   5.272  19.216  0.00  0.00    +0.000 C 
ATOM      7  C   UNL     1       3.731   5.026  19.211  0.00  0.00    +0.000 C 
ATOM      8  O   UNL     1       3.093   5.389  20.190  0.00  0.00    +0.000 OA
ENDROOT
BRANCH   5   9
ATOM      9  N   UNL     1       7.367   5.225  18.277  0.00  0.00    +0.000 N 
ATOM     10  H   UNL     1       7.978   4.414  18.383  0.00  0.00    +0.000 HD
BRANCH   9  11
ATOM     11  C   UNL     1       7.926   6.494  18.767  0.00  0.00    +0.000 C 
BRANCH  11  12
ATOM     12  C   UNL     1       7.656   7.691  17.833  0.00  0.00    +0.000 C 
ATOM     13  C   UNL     1       8.464   8.939  18.167  0.00  0.00    +0.000 C 
BRANCH  12  14
ATOM     14  O   UNL     1       7.897   7.308  16.478  0.00  0.00    +0.000 OA
ATOM     15  H   UNL     1       8.369   6.454  16.506  0.00  0.00    +0.000 HD
ENDBRANCH  12  14
ENDBRANCH  11  12
ENDBRANCH   9  11
ENDBRANCH   5   9
BRANCH   1  16
ATOM     16  S   UNL     1       1.453   3.949  17.970  0.00  0.00    +0.000 S 
BRANCH  16  17
ATOM     17  C   UNL     1       1.292   2.458  19.001  0.00  0.00    +0.000 C 
BRANCH  17  19
ATOM     18  C   UNL     1       1.615   2.549  21.493  0.00  0.00    +0.000 C 
ATOM     19  C   UNL     1       0.899   2.839  20.399  0.00  0.00    +0.000 C 
ENDBRANCH  17  19
ENDBRANCH  16  17
ENDBRANCH   1  16
TORSDOF 7
ENDMDL
MODEL 8
REMARK VINA RESULT:      -5.8      2.518      6.555
REMARK  Name = 
REMARK  8 active torsions:
REMARK  status: ('A' for Active; 'I' for Inactive)
REMARK    1  A    between atoms: C_2  and  C_3
REMARK    2  A    between atoms: C_3  and  S_4
REMARK    3  A    between atoms: S_4  and  C_5
REMARK    4  A    between atoms: C_9  and  N_10
REMARK    5  A    between atoms: N_10  and  C_11
REMARK    6  A    between atoms: C_11  and  C_12
REMARK    7  A    between atoms: C_12  and  C_13
REMARK    8  A    between atoms: C_12  and  O_14
REMARK                            x       y       z     vdW  Elec       q    Type
REMARK                         _______ _______ _______ _____ _____    ______ ____
ROOT
ATOM      1  C   UNL     1       3.002   4.736  19.134  0.00  0.00    +0.000 C 
ATOM      2  C   UNL     1       4.238   4.975  19.601  0.00  0.00    +0.000 C 
ATOM      3  C   UNL     1       5.460   4.740  18.795  0.00  0.00    +0.000 C 
ATOM      4  O   UNL     1       6.574   4.986  19.254  0.00  0.00    +0.000 OA
ATOM      5  C   UNL     1       5.295   4.235  17.384  0.00  0.00    +0.000 C 
ATOM      6  C   UNL     1       4.062   4.044  16.939  0.00  0.00    +0.000 C 
ATOM      7  C   UNL     1       2.840   4.262  17.735  0.00  0.00    +0.000 C 
ATOM      8  O   UNL     1       1.765   4.058  17.187  0.00  0.00    +0.000 OA
ENDROOT
BRANCH   5   9
ATOM      9  N   UNL     1       6.413   3.970  16.604  0.00  0.00    +0.000 N 
ATOM     10  H   UNL     1       7.050   3.275  16.997  0.00  0.00    +0.000 HD
BRANCH   9  11
ATOM     11  C   UNL     1       7.035   4.936  15.685  0.00  0.00    +0.000 C 
BRANCH  11  12
ATOM     12  C   UNL     1       7.083   4.453  14.221  0.00  0.00    +0.000 C 
ATOM     13  C   UNL     1       5.726   4.061  13.648  0.00  0.00    +0.000 C 
BRANCH  12  14
ATOM     14  O   UNL     1       7.680   5.459  13.402  0.00  0.00    +0.000 OA
ATOM     15  H   UNL     1       6.949   5.978  13.013  0.00  0.00    +0.000 HD
ENDBRANCH  12  14
ENDBRANCH  11  12
ENDBRANCH   9  11
ENDBRANCH   5   9
BRANCH   1  16
ATOM     16  S   UNL     1       1.609   5.074  20.126  0.00  0.00    +0.000 S 
BRANCH  16  17
ATOM     17  C   UNL     1       0.680   3.510  20.144  0.00  0.00    +0.000 C 
BRANCH  17  19
ATOM     18  C   UNL     1       2.271   2.877  21.987  0.00  0.00    +0.000 C 
ATOM     19  C   UNL     1       1.306   2.551  21.116  0.00  0.00    +0.000 C 
ENDBRANCH  17  19
ENDBRANCH  16  17
ENDBRANCH   1  16
TORSDOF 7
ENDMDL
MODEL 9
REMARK VINA RESULT:      -5.8      1.702      2.565
REMARK  Name = 
REMARK  8 active torsions:
REMARK  status: ('A' for Active; 'I' for Inactive)
REMARK    1  A    between atoms: C_2  and  C_3
REMARK    2  A    between atoms: C_3  and  S_4
REMARK    3  A    between atoms: S_4  and  C_5
REMARK    4  A    between atoms: C_9  and  N_10
REMARK    5  A    between atoms: N_10  and  C_11
REMARK    6  A    between atoms: C_11  and  C_12
REMARK    7  A    between atoms: C_12  and  C_13
REMARK    8  A    between atoms: C_12  and  O_14
REMARK                            x       y       z     vdW  Elec       q    Type
REMARK                         _______ _______ _______ _____ _____    ______ ____
ROOT
ATOM      1  C   UNL     1       5.262   4.611  17.229  0.00  0.00    +0.000 C 
ATOM      2  C   UNL     1       4.053   4.198  16.818  0.00  0.00    +0.000 C 
ATOM      3  C   UNL     1       3.172   3.341  17.648  0.00  0.00    +0.000 C 
ATOM      4  O   UNL     1       2.064   2.996  17.241  0.00  0.00    +0.000 OA
ATOM      5  C   UNL     1       3.654   2.943  19.020  0.00  0.00    +0.000 C 
ATOM      6  C   UNL     1       4.835   3.397  19.412  0.00  0.00    +0.000 C 
ATOM      7  C   UNL     1       5.726   4.238  18.592  0.00  0.00    +0.000 C 
ATOM      8  O   UNL     1       6.784   4.597  19.092  0.00  0.00    +0.000 OA
ENDROOT
BRANCH   5   9
ATOM      9  N   UNL     1       2.877   2.114  19.818  0.00  0.00    +0.000 N 
ATOM     10  H   UNL     1       2.412   1.356  19.318  0.00  0.00    +0.000 HD
BRANCH   9  11
ATOM     11  C   UNL     1       2.213   2.540  21.061  0.00  0.00    +0.000 C 
BRANCH  11  12
ATOM     12  C   UNL     1       1.038   3.512  20.832  0.00  0.00    +0.000 C 
ATOM     13  C   UNL     1       1.459   4.960  20.617  0.00  0.00    +0.000 C 
BRANCH  12  14
ATOM     14  O   UNL     1       0.254   3.068  19.724  0.00  0.00    +0.000 OA
ATOM     15  H   UNL     1       0.702   3.384  18.916  0.00  0.00    +0.000 HD
ENDBRANCH  12  14
ENDBRANCH  11  12
ENDBRANCH   9  11
ENDBRANCH   5   9
BRANCH   1  16
ATOM     16  S   UNL     1       6.226   5.651  16.215  0.00  0.00    +0.000 S 
BRANCH  16  17
ATOM     17  C   UNL     1       6.220   7.252  17.081  0.00  0.00    +0.000 C 
BRANCH  17  19
ATOM     18  C   UNL     1       8.258   7.642  18.501  0.00  0.00    +0.000 C 
ATOM     19  C   UNL     1       7.629   7.712  17.320  0.00  0.00    +0.000 C 
ENDBRANCH  17  19
ENDBRANCH  16  17
ENDBRANCH   1  16
TORSDOF 7
ENDMDL
