MODEL 1
REMARK VINA RESULT:      -5.4      0.000      0.000
REMARK  Name = 
REMARK  14 active torsions:
REMARK  status: ('A' for Active; 'I' for Inactive)
REMARK    1  A    between atoms: C_1  and  O_2
REMARK    2  A    between atoms: O_2  and  C_3
REMARK    3  A    between atoms: C_3  and  C_4
REMARK    4  A    between atoms: C_4  and  O_5
REMARK    5  A    between atoms: O_5  and  C_6
REMARK    6  A    between atoms: C_6  and  C_7
REMARK    7  A    between atoms: C_7  and  O_8
REMARK    8  A    between atoms: O_8  and  C_9
REMARK    9  A    between atoms: N_11  and  C_12
REMARK   10  A    between atoms: C_12  and  C_13
REMARK   11  A    between atoms: C_13  and  N_14
REMARK   12  A    between atoms: N_14  and  C_15
REMARK   13  A    between atoms: N_14  and  C_16
REMARK   14  A    between atoms: N_14  and  C_17
REMARK                            x       y       z     vdW  Elec       q    Type
REMARK                         _______ _______ _______ _____ _____    ______ ____
ROOT
ATOM      1  C   UNL     1       7.318   4.726  18.096  0.00  0.00    +0.000 C 
ATOM      2  O   UNL     1       8.132   4.213  17.343  0.00  0.00    +0.000 OA
ATOM      3  N   UNL     1       6.329   3.985  18.681  0.00  0.00    +0.000 N 
ATOM      4  H   UNL     1       6.415   2.997  18.474  0.00  0.00    +0.000 HD
ENDROOT
BRANCH   1   5
ATOM      5  O   UNL     1       7.257   6.029  18.433  0.00  0.00    +0.000 OA
BRANCH   5   6
ATOM      6  C   UNL     1       7.159   6.962  17.333  0.00  0.00    +0.000 C 
BRANCH   6   7
ATOM      7  C   UNL     1       5.691   7.052  16.909  0.00  0.00    +0.000 C 
BRANCH   7   8
ATOM      8  O   UNL     1       5.612   6.773  15.505  0.00  0.00    +0.000 OA
BRANCH   8   9
ATOM      9  C   UNL     1       5.473   5.386  15.192  0.00  0.00    +0.000 C 
BRANCH   9  10
ATOM     10  C   UNL     1       6.608   4.836  14.324  0.00  0.00    +0.000 C 
BRANCH  10  12
ATOM     11  C   UNL     1       6.178   3.516  12.423  0.00  0.00    +0.000 C 
ATOM     12  O   UNL     1       6.287   3.523  13.842  0.00  0.00    +0.000 OA
ENDBRANCH  10  12
ENDBRANCH   9  10
ENDBRANCH   8   9
ENDBRANCH   7   8
ENDBRANCH   6   7
ENDBRANCH   5   6
ENDBRANCH   1   5
BRANCH   3  13
ATOM     13  C   UNL     1       5.049   4.519  19.116  0.00  0.00    +0.000 C 
BRANCH  13  14
ATOM     14  C   UNL     1       4.062   3.383  19.475  0.00  0.00    +0.000 C 
BRANCH  14  15
ATOM     15  N   UNL     1       2.737   3.385  18.677  0.00  0.00    +0.000 N 
ATOM     16  C   UNL     1       2.566   4.672  17.892  0.00  0.00    +0.000 C 
ATOM     17  C   UNL     1       2.687   2.165  17.767  0.00  0.00    +0.000 C 
ATOM     18  C   UNL     1       1.549   3.280  19.640  0.00  0.00    +0.000 C 
ENDBRANCH  14  15
ENDBRANCH  13  14
ENDBRANCH   3  13
TORSDOF 10
ENDMDL
MODEL 2
REMARK VINA RESULT:      -5.1      3.166      5.641
REMARK  Name = 
REMARK  14 active torsions:
REMARK  status: ('A' for Active; 'I' for Inactive)
REMARK    1  A    between atoms: C_1  and  O_2
REMARK    2  A    between atoms: O_2  and  C_3
REMARK    3  A    between atoms: C_3  and  C_4
REMARK    4  A    between atoms: C_4  and  O_5
REMARK    5  A    between atoms: O_5  and  C_6
REMARK    6  A    between atoms: C_6  and  C_7
REMARK    7  A    between atoms: C_7  and  O_8
REMARK    8  A    between atoms: O_8  and  C_9
REMARK    9  A    between atoms: N_11  and  C_12
REMARK   10  A    between atoms: C_12  and  C_13
REMARK   11  A    between atoms: C_13  and  N_14
REMARK   12  A    between atoms: N_14  and  C_15
REMARK   13  A    between atoms: N_14  and  C_16
REMARK   14  A    between atoms: N_14  and  C_17
REMARK                            x       y       z     vdW  Elec       q    Type
REMARK                         _______ _______ _______ _____ _____    ______ ____
ROOT
ATOM      1  C   UNL     1       4.558   2.323  20.248  0.00  0.00    +0.000 C 
ATOM      2  O   UNL     1       5.115   1.715  21.150  0.00  0.00    +0.000 OA
ATOM      3  N   UNL     1       5.273   2.913  19.243  0.00  0.00    +0.000 N 
ATOM      4  H   UNL     1       6.264   2.717  19.310  0.00  0.00    +0.000 HD
ENDROOT
BRANCH   1   5
ATOM      5  O   UNL     1       3.230   2.512  20.120  0.00  0.00    +0.000 OA
BRANCH   5   6
ATOM      6  C   UNL     1       2.509   2.786  21.342  0.00  0.00    +0.000 C 
BRANCH   6   7
ATOM      7  C   UNL     1       1.157   3.402  20.976  0.00  0.00    +0.000 C 
BRANCH   7   8
ATOM      8  O   UNL     1       1.366   4.348  19.920  0.00  0.00    +0.000 OA
BRANCH   8   9
ATOM      9  C   UNL     1       1.559   5.691  20.367  0.00  0.00    +0.000 C 
BRANCH   9  10
ATOM     10  C   UNL     1       2.712   6.413  19.664  0.00  0.00    +0.000 C 
BRANCH  10  12
ATOM     11  C   UNL     1       2.338   8.044  18.008  0.00  0.00    +0.000 C 
ATOM     12  O   UNL     1       2.396   6.649  18.285  0.00  0.00    +0.000 OA
ENDBRANCH  10  12
ENDBRANCH   9  10
ENDBRANCH   8   9
ENDBRANCH   7   8
ENDBRANCH   6   7
ENDBRANCH   5   6
ENDBRANCH   1   5
BRANCH   3  13
ATOM     13  C   UNL     1       4.817   4.059  18.474  0.00  0.00    +0.000 C 
BRANCH  13  14
ATOM     14  C   UNL     1       4.854   3.763  16.955  0.00  0.00    +0.000 C 
BRANCH  14  15
ATOM     15  N   UNL     1       5.834   4.638  16.138  0.00  0.00    +0.000 N 
ATOM     16  C   UNL     1       5.270   6.024  15.898  0.00  0.00    +0.000 C 
ATOM     17  C   UNL     1       7.180   4.697  16.849  0.00  0.00    +0.000 C 
ATOM     18  C   UNL     1       6.077   4.002  14.764  0.00  0.00    +0.000 C 
ENDBRANCH  14  15
ENDBRANCH  13  14
ENDBRANCH   3  13
TORSDOF 10
ENDMDL
MODEL 3
REMARK VINA RESULT:      -4.9      1.752      2.459
REMARK  Name = 
REMARK  14 active torsions:
REMARK  status: ('A' for Active; 'I' for Inactive)
REMARK    1  A    between atoms: C_1  and  O_2
REMARK    2  A    between atoms: O_2  and  C_3
REMARK    3  A    between atoms: C_3  and  C_4
REMARK    4  A    between atoms: C_4  and  O_5
REMARK    5  A    between atoms: O_5  and  C_6
REMARK    6  A    between atoms: C_6  and  C_7
REMARK    7  A    between atoms: C_7  and  O_8
REMARK    8  A    between atoms: O_8  and  C_9
REMARK    9  A    between atoms: N_11  and  C_12
REMARK   10  A    between atoms: C_12  and  C_13
REMARK   11  A    between atoms: C_13  and  N_14
REMARK   12  A    between atoms: N_14  and  C_15
REMARK   13  A    between atoms: N_14  and  C_16
REMARK   14  A    between atoms: N_14  and  C_17
REMARK                            x       y       z     vdW  Elec       q    Type
REMARK                         _______ _______ _______ _____ _____    ______ ____
ROOT
ATOM      1  C   UNL     1       6.067   5.132  19.035  0.00  0.00    +0.000 C 
ATOM      2  O   UNL     1       7.009   5.297  19.796  0.00  0.00    +0.000 OA
ATOM      3  N   UNL     1       4.804   5.529  19.375  0.00  0.00    +0.000 N 
ATOM      4  H   UNL     1       4.780   6.021  20.260  0.00  0.00    +0.000 HD
ENDROOT
BRANCH   1   5
ATOM      5  O   UNL     1       6.118   4.550  17.821  0.00  0.00    +0.000 OA
BRANCH   5   6
ATOM      6  C   UNL     1       6.412   5.427  16.711  0.00  0.00    +0.000 C 
BRANCH   6   7
ATOM      7  C   UNL     1       7.187   4.630  15.659  0.00  0.00    +0.000 C 
BRANCH   7   8
ATOM      8  O   UNL     1       6.308   3.640  15.109  0.00  0.00    +0.000 OA
BRANCH   8   9
ATOM      9  C   UNL     1       5.653   4.043  13.905  0.00  0.00    +0.000 C 
BRANCH   9  10
ATOM     10  C   UNL     1       6.412   3.654  12.633  0.00  0.00    +0.000 C 
BRANCH  10  12
ATOM     11  C   UNL     1       4.397   3.197  11.506  0.00  0.00    +0.000 C 
ATOM     12  O   UNL     1       5.672   2.684  11.879  0.00  0.00    +0.000 OA
ENDBRANCH  10  12
ENDBRANCH   9  10
ENDBRANCH   8   9
ENDBRANCH   7   8
ENDBRANCH   6   7
ENDBRANCH   5   6
ENDBRANCH   1   5
BRANCH   3  13
ATOM     13  C   UNL     1       3.586   4.934  18.851  0.00  0.00    +0.000 C 
BRANCH  13  14
ATOM     14  C   UNL     1       3.262   3.601  19.567  0.00  0.00    +0.000 C 
BRANCH  14  15
ATOM     15  N   UNL     1       1.925   3.580  20.346  0.00  0.00    +0.000 N 
ATOM     16  C   UNL     1       2.071   2.866  21.675  0.00  0.00    +0.000 C 
ATOM     17  C   UNL     1       1.419   5.005  20.528  0.00  0.00    +0.000 C 
ATOM     18  C   UNL     1       0.865   2.824  19.538  0.00  0.00    +0.000 C 
ENDBRANCH  14  15
ENDBRANCH  13  14
ENDBRANCH   3  13
TORSDOF 10
ENDMDL
MODEL 4
REMARK VINA RESULT:      -4.9      1.476      1.929
REMARK  Name = 
REMARK  14 active torsions:
REMARK  status: ('A' for Active; 'I' for Inactive)
REMARK    1  A    between atoms: C_1  and  O_2
REMARK    2  A    between atoms: O_2  and  C_3
REMARK    3  A    between atoms: C_3  and  C_4
REMARK    4  A    between atoms: C_4  and  O_5
REMARK    5  A    between atoms: O_5  and  C_6
REMARK    6  A    between atoms: C_6  and  C_7
REMARK    7  A    between atoms: C_7  and  O_8
REMARK    8  A    between atoms: O_8  and  C_9
REMARK    9  A    between atoms: N_11  and  C_12
REMARK   10  A    between atoms: C_12  and  C_13
REMARK   11  A    between atoms: C_13  and  N_14
REMARK   12  A    between atoms: N_14  and  C_15
REMARK   13  A    between atoms: N_14  and  C_16
REMARK   14  A    between atoms: N_14  and  C_17
REMARK                            x       y       z     vdW  Elec       q    Type
REMARK                         _______ _______ _______ _____ _____    ______ ____
ROOT
ATOM      1  C   UNL     1       6.258   5.261  19.294  0.00  0.00    +0.000 C 
ATOM      2  O   UNL     1       7.316   5.420  19.885  0.00  0.00    +0.000 OA
ATOM      3  N   UNL     1       5.394   4.261  19.644  0.00  0.00    +0.000 N 
ATOM      4  H   UNL     1       5.704   3.754  20.464  0.00  0.00    +0.000 HD
ENDROOT
BRANCH   1   5
ATOM      5  O   UNL     1       5.812   5.990  18.253  0.00  0.00    +0.000 OA
BRANCH   5   6
ATOM      6  C   UNL     1       6.751   6.193  17.174  0.00  0.00    +0.000 C 
BRANCH   6   7
ATOM      7  C   UNL     1       7.007   4.843  16.499  0.00  0.00    +0.000 C 
BRANCH   7   8
ATOM      8  O   UNL     1       7.744   5.077  15.292  0.00  0.00    +0.000 OA
BRANCH   8   9
ATOM      9  C   UNL     1       6.982   4.896  14.097  0.00  0.00    +0.000 C 
BRANCH   9  10
ATOM     10  C   UNL     1       5.750   4.007  14.283  0.00  0.00    +0.000 C 
BRANCH  10  12
ATOM     11  C   UNL     1       5.945   3.116  12.114  0.00  0.00    +0.000 C 
ATOM     12  O   UNL     1       5.088   3.789  13.030  0.00  0.00    +0.000 OA
ENDBRANCH  10  12
ENDBRANCH   9  10
ENDBRANCH   8   9
ENDBRANCH   7   8
ENDBRANCH   6   7
ENDBRANCH   5   6
ENDBRANCH   1   5
BRANCH   3  13
ATOM     13  C   UNL     1       4.438   3.645  18.738  0.00  0.00    +0.000 C 
BRANCH  13  14
ATOM     14  C   UNL     1       3.015   4.210  18.960  0.00  0.00    +0.000 C 
BRANCH  14  15
ATOM     15  N   UNL     1       2.060   3.293  19.762  0.00  0.00    +0.000 N 
ATOM     16  C   UNL     1       1.457   2.218  18.879  0.00  0.00    +0.000 C 
ATOM     17  C   UNL     1       2.805   2.692  20.946  0.00  0.00    +0.000 C 
ATOM     18  C   UNL     1       0.901   4.119  20.329  0.00  0.00    +0.000 C 
ENDBRANCH  14  15
ENDBRANCH  13  14
ENDBRANCH   3  13
TORSDOF 10
ENDMDL
MODEL 5
REMARK VINA RESULT:      -4.9      3.081      5.231
REMARK  Name = 
REMARK  14 active torsions:
REMARK  status: ('A' for Active; 'I' for Inactive)
REMARK    1  A    between atoms: C_1  and  O_2
REMARK    2  A    between atoms: O_2  and  C_3
REMARK    3  A    between atoms: C_3  and  C_4
REMARK    4  A    between atoms: C_4  and  O_5
REMARK    5  A    between atoms: O_5  and  C_6
REMARK    6  A    between atoms: C_6  and  C_7
REMARK    7  A    between atoms: C_7  and  O_8
REMARK    8  A    between atoms: O_8  and  C_9
REMARK    9  A    between atoms: N_11  and  C_12
REMARK   10  A    between atoms: C_12  and  C_13
REMARK   11  A    between atoms: C_13  and  N_14
REMARK   12  A    between atoms: N_14  and  C_15
REMARK   13  A    between atoms: N_14  and  C_16
REMARK   14  A    between atoms: N_14  and  C_17
REMARK                            x       y       z     vdW  Elec       q    Type
REMARK                         _______ _______ _______ _____ _____    ______ ____
ROOT
ATOM      1  C   UNL     1       7.291   4.796  17.793  0.00  0.00    +0.000 C 
ATOM      2  O   UNL     1       8.179   4.181  17.223  0.00  0.00    +0.000 OA
ATOM      3  N   UNL     1       6.358   4.149  18.556  0.00  0.00    +0.000 N 
ATOM      4  H   UNL     1       6.548   3.158  18.637  0.00  0.00    +0.000 HD
ENDROOT
BRANCH   1   5
ATOM      5  O   UNL     1       7.090   6.127  17.748  0.00  0.00    +0.000 OA
BRANCH   5   6
ATOM      6  C   UNL     1       7.998   6.931  18.535  0.00  0.00    +0.000 C 
BRANCH   6   7
ATOM      7  C   UNL     1       8.057   8.332  17.922  0.00  0.00    +0.000 C 
BRANCH   7   8
ATOM      8  O   UNL     1       8.854   9.162  18.776  0.00  0.00    +0.000 OA
BRANCH   8   9
ATOM      9  C   UNL     1       8.951  10.521  18.345  0.00  0.00    +0.000 C 
BRANCH   9  10
ATOM     10  C   UNL     1      10.189  11.248  18.880  0.00  0.00    +0.000 C 
BRANCH  10  12
ATOM     11  C   UNL     1       9.254  12.438  20.682  0.00  0.00    +0.000 C 
ATOM     12  O   UNL     1      10.124  11.376  20.307  0.00  0.00    +0.000 OA
ENDBRANCH  10  12
ENDBRANCH   9  10
ENDBRANCH   8   9
ENDBRANCH   7   8
ENDBRANCH   6   7
ENDBRANCH   5   6
ENDBRANCH   1   5
BRANCH   3  13
ATOM     13  C   UNL     1       5.017   4.648  18.812  0.00  0.00    +0.000 C 
BRANCH  13  14
ATOM     14  C   UNL     1       3.972   3.509  18.730  0.00  0.00    +0.000 C 
BRANCH  14  15
ATOM     15  N   UNL     1       2.730   3.688  19.635  0.00  0.00    +0.000 N 
ATOM     16  C   UNL     1       2.832   2.838  20.887  0.00  0.00    +0.000 C 
ATOM     17  C   UNL     1       2.554   5.163  19.974  0.00  0.00    +0.000 C 
ATOM     18  C   UNL     1       1.471   3.243  18.885  0.00  0.00    +0.000 C 
ENDBRANCH  14  15
ENDBRANCH  13  14
ENDBRANCH   3  13
TORSDOF 10
ENDMDL
MODEL 6
REMARK VINA RESULT:      -4.8      1.682      2.383
REMARK  Name = 
REMARK  14 active torsions:
REMARK  status: ('A' for Active; 'I' for Inactive)
REMARK    1  A    between atoms: C_1  and  O_2
REMARK    2  A    between atoms: O_2  and  C_3
REMARK    3  A    between atoms: C_3  and  C_4
REMARK    4  A    between atoms: C_4  and  O_5
REMARK    5  A    between atoms: O_5  and  C_6
REMARK    6  A    between atoms: C_6  and  C_7
REMARK    7  A    between atoms: C_7  and  O_8
REMARK    8  A    between atoms: O_8  and  C_9
REMARK    9  A    between atoms: N_11  and  C_12
REMARK   10  A    between atoms: C_12  and  C_13
REMARK   11  A    between atoms: C_13  and  N_14
REMARK   12  A    between atoms: N_14  and  C_15
REMARK   13  A    between atoms: N_14  and  C_16
REMARK   14  A    between atoms: N_14  and  C_17
REMARK                            x       y       z     vdW  Elec       q    Type
REMARK                         _______ _______ _______ _____ _____    ______ ____
ROOT
ATOM      1  C   UNL     1       5.773   4.743  18.250  0.00  0.00    +0.000 C 
ATOM      2  O   UNL     1       6.808   4.170  18.555  0.00  0.00    +0.000 OA
ATOM      3  N   UNL     1       5.057   5.453  19.173  0.00  0.00    +0.000 N 
ATOM      4  H   UNL     1       5.525   5.497  20.070  0.00  0.00    +0.000 HD
ENDROOT
BRANCH   1   5
ATOM      5  O   UNL     1       5.196   4.748  17.032  0.00  0.00    +0.000 OA
BRANCH   5   6
ATOM      6  C   UNL     1       5.935   4.087  15.980  0.00  0.00    +0.000 C 
BRANCH   6   7
ATOM      7  C   UNL     1       6.912   5.095  15.371  0.00  0.00    +0.000 C 
BRANCH   7   8
ATOM      8  O   UNL     1       6.979   4.859  13.959  0.00  0.00    +0.000 OA
BRANCH   8   9
ATOM      9  C   UNL     1       6.160   3.778  13.508  0.00  0.00    +0.000 C 
BRANCH   9  10
ATOM     10  C   UNL     1       6.426   3.372  12.055  0.00  0.00    +0.000 C 
BRANCH  10  12
ATOM     11  C   UNL     1       6.305   1.209  11.135  0.00  0.00    +0.000 C 
ATOM     12  O   UNL     1       5.558   2.300  11.663  0.00  0.00    +0.000 OA
ENDBRANCH  10  12
ENDBRANCH   9  10
ENDBRANCH   8   9
ENDBRANCH   7   8
ENDBRANCH   6   7
ENDBRANCH   5   6
ENDBRANCH   1   5
BRANCH   3  13
ATOM     13  C   UNL     1       3.626   5.695  19.096  0.00  0.00    +0.000 C 
BRANCH  13  14
ATOM     14  C   UNL     1       2.842   4.698  19.983  0.00  0.00    +0.000 C 
BRANCH  14  15
ATOM     15  N   UNL     1       2.135   3.553  19.220  0.00  0.00    +0.000 N 
ATOM     16  C   UNL     1       0.899   3.077  19.958  0.00  0.00    +0.000 C 
ATOM     17  C   UNL     1       1.800   4.012  17.807  0.00  0.00    +0.000 C 
ATOM     18  C   UNL     1       3.079   2.352  19.093  0.00  0.00    +0.000 C 
ENDBRANCH  14  15
ENDBRANCH  13  14
ENDBRANCH   3  13
TORSDOF 10
ENDMDL
MODEL 7
REMARK VINA RESULT:      -4.7      3.107      5.124
REMARK  Name = 
REMARK  14 active torsions:
REMARK  status: ('A' for Active; 'I' for Inactive)
REMARK    1  A    between atoms: C_1  and  O_2
REMARK    2  A    between atoms: O_2  and  C_3
REMARK    3  A    between atoms: C_3  and  C_4
REMARK    4  A    between atoms: C_4  and  O_5
REMARK    5  A    between atoms: O_5  and  C_6
REMARK    6  A    between atoms: C_6  and  C_7
REMARK    7  A    between atoms: C_7  and  O_8
REMARK    8  A    between atoms: O_8  and  C_9
REMARK    9  A    between atoms: N_11  and  C_12
REMARK   10  A    between atoms: C_12  and  C_13
REMARK   11  A    between atoms: C_13  and  N_14
REMARK   12  A    between atoms: N_14  and  C_15
REMARK   13  A    between atoms: N_14  and  C_16
REMARK   14  A    between atoms: N_14  and  C_17
REMARK                            x       y       z     vdW  Elec       q    Type
REMARK                         _______ _______ _______ _____ _____    ______ ____
ROOT
ATOM      1  C   UNL     1       7.037   4.979  17.808  0.00  0.00    +0.000 C 
ATOM      2  O   UNL     1       7.714   4.637  16.850  0.00  0.00    +0.000 OA
ATOM      3  N   UNL     1       6.356   4.061  18.558  0.00  0.00    +0.000 N 
ATOM      4  H   UNL     1       6.548   3.109  18.268  0.00  0.00    +0.000 HD
ENDROOT
BRANCH   1   5
ATOM      5  O   UNL     1       6.850   6.241  18.239  0.00  0.00    +0.000 OA
BRANCH   5   6
ATOM      6  C   UNL     1       7.515   7.275  17.478  0.00  0.00    +0.000 C 
BRANCH   6   7
ATOM      7  C   UNL     1       8.398   8.083  18.432  0.00  0.00    +0.000 C 
BRANCH   7   8
ATOM      8  O   UNL     1       8.301   9.466  18.070  0.00  0.00    +0.000 OA
BRANCH   8   9
ATOM      9  C   UNL     1       9.098  10.338  18.874  0.00  0.00    +0.000 C 
BRANCH   9  10
ATOM     10  C   UNL     1       9.983  11.286  18.059  0.00  0.00    +0.000 C 
BRANCH  10  12
ATOM     11  C   UNL     1      11.503  11.863  19.761  0.00  0.00    +0.000 C 
ATOM     12  O   UNL     1      10.488  12.344  18.886  0.00  0.00    +0.000 OA
ENDBRANCH  10  12
ENDBRANCH   9  10
ENDBRANCH   8   9
ENDBRANCH   7   8
ENDBRANCH   6   7
ENDBRANCH   5   6
ENDBRANCH   1   5
BRANCH   3  13
ATOM     13  C   UNL     1       5.153   4.351  19.320  0.00  0.00    +0.000 C 
BRANCH  13  14
ATOM     14  C   UNL     1       4.173   3.153  19.295  0.00  0.00    +0.000 C 
BRANCH  14  15
ATOM     15  N   UNL     1       2.754   3.474  18.767  0.00  0.00    +0.000 N 
ATOM     16  C   UNL     1       2.090   2.242  18.185  0.00  0.00    +0.000 C 
ATOM     17  C   UNL     1       1.920   4.084  19.885  0.00  0.00    +0.000 C 
ATOM     18  C   UNL     1       2.840   4.516  17.647  0.00  0.00    +0.000 C 
ENDBRANCH  14  15
ENDBRANCH  13  14
ENDBRANCH   3  13
TORSDOF 10
ENDMDL
MODEL 8
REMARK VINA RESULT:      -4.6      2.178      3.662
REMARK  Name = 
REMARK  14 active torsions:
REMARK  status: ('A' for Active; 'I' for Inactive)
REMARK    1  A    between atoms: C_1  and  O_2
REMARK    2  A    between atoms: O_2  and  C_3
REMARK    3  A    between atoms: C_3  and  C_4
REMARK    4  A    between atoms: C_4  and  O_5
REMARK    5  A    between atoms: O_5  and  C_6
REMARK    6  A    between atoms: C_6  and  C_7
REMARK    7  A    between atoms: C_7  and  O_8
REMARK    8  A    between atoms: O_8  and  C_9
REMARK    9  A    between atoms: N_11  and  C_12
REMARK   10  A    between atoms: C_12  and  C_13
REMARK   11  A    between atoms: C_13  and  N_14
REMARK   12  A    between atoms: N_14  and  C_15
REMARK   13  A    between atoms: N_14  and  C_16
REMARK   14  A    between atoms: N_14  and  C_17
REMARK                            x       y       z     vdW  Elec       q    Type
REMARK                         _______ _______ _______ _____ _____    ______ ____
ROOT
ATOM      1  C   UNL     1       4.069   3.751  16.913  0.00  0.00    +0.000 C 
ATOM      2  O   UNL     1       4.688   3.945  15.878  0.00  0.00    +0.000 OA
ATOM      3  N   UNL     1       4.275   2.625  17.661  0.00  0.00    +0.000 N 
ATOM      4  H   UNL     1       5.026   2.052  17.295  0.00  0.00    +0.000 HD
ENDROOT
BRANCH   1   5
ATOM      5  O   UNL     1       3.127   4.558  17.439  0.00  0.00    +0.000 OA
BRANCH   5   6
ATOM      6  C   UNL     1       3.453   5.965  17.482  0.00  0.00    +0.000 C 
BRANCH   6   7
ATOM      7  C   UNL     1       4.789   6.128  18.210  0.00  0.00    +0.000 C 
BRANCH   7   8
ATOM      8  O   UNL     1       5.662   6.903  17.378  0.00  0.00    +0.000 OA
BRANCH   8   9
ATOM      9  C   UNL     1       7.052   6.642  17.585  0.00  0.00    +0.000 C 
BRANCH   9  10
ATOM     10  C   UNL     1       7.430   5.167  17.419  0.00  0.00    +0.000 C 
BRANCH  10  12
ATOM     11  C   UNL     1       8.084   5.646  19.629  0.00  0.00    +0.000 C 
ATOM     12  O   UNL     1       7.889   4.619  18.662  0.00  0.00    +0.000 OA
ENDBRANCH  10  12
ENDBRANCH   9  10
ENDBRANCH   8   9
ENDBRANCH   7   8
ENDBRANCH   6   7
ENDBRANCH   5   6
ENDBRANCH   1   5
BRANCH   3  13
ATOM     13  C   UNL     1       3.285   2.034  18.546  0.00  0.00    +0.000 C 
BRANCH  13  14
ATOM     14  C   UNL     1       3.385   2.626  19.973  0.00  0.00    +0.000 C 
BRANCH  14  15
ATOM     15  N   UNL     1       2.069   3.213  20.536  0.00  0.00    +0.000 N 
ATOM     16  C   UNL     1       0.923   3.038  19.558  0.00  0.00    +0.000 C 
ATOM     17  C   UNL     1       1.759   2.571  21.881  0.00  0.00    +0.000 C 
ATOM     18  C   UNL     1       2.233   4.717  20.779  0.00  0.00    +0.000 C 
ENDBRANCH  14  15
ENDBRANCH  13  14
ENDBRANCH   3  13
TORSDOF 10
ENDMDL
MODEL 9
REMARK VINA RESULT:      -4.6      3.065      5.101
REMARK  Name = 
REMARK  14 active torsions:
REMARK  status: ('A' for Active; 'I' for Inactive)
REMARK    1  A    between atoms: C_1  and  O_2
REMARK    2  A    between atoms: O_2  and  C_3
REMARK    3  A    between atoms: C_3  and  C_4
REMARK    4  A    between atoms: C_4  and  O_5
REMARK    5  A    between atoms: O_5  and  C_6
REMARK    6  A    between atoms: C_6  and  C_7
REMARK    7  A    between atoms: C_7  and  O_8
REMARK    8  A    between atoms: O_8  and  C_9
REMARK    9  A    between atoms: N_11  and  C_12
REMARK   10  A    between atoms: C_12  and  C_13
REMARK   11  A    between atoms: C_13  and  N_14
REMARK   12  A    between atoms: N_14  and  C_15
REMARK   13  A    between atoms: N_14  and  C_16
REMARK   14  A    between atoms: N_14  and  C_17
REMARK                            x       y       z     vdW  Elec       q    Type
REMARK                         _______ _______ _______ _____ _____    ______ ____
ROOT
ATOM      1  C   UNL     1       7.000   4.835  18.267  0.00  0.00    +0.000 C 
ATOM      2  O   UNL     1       7.936   4.261  17.730  0.00  0.00    +0.000 OA
ATOM      3  N   UNL     1       6.016   4.136  18.911  0.00  0.00    +0.000 N 
ATOM      4  H   UNL     1       6.209   3.143  18.944  0.00  0.00    +0.000 HD
ENDROOT
BRANCH   1   5
ATOM      5  O   UNL     1       6.791   6.165  18.291  0.00  0.00    +0.000 OA
BRANCH   5   6
ATOM      6  C   UNL     1       7.546   6.941  17.333  0.00  0.00    +0.000 C 
BRANCH   6   7
ATOM      7  C   UNL     1       7.405   8.422  17.694  0.00  0.00    +0.000 C 
BRANCH   7   8
ATOM      8  O   UNL     1       8.579   8.821  18.414  0.00  0.00    +0.000 OA
BRANCH   8   9
ATOM      9  C   UNL     1       8.875  10.216  18.320  0.00  0.00    +0.000 C 
BRANCH   9  10
ATOM     10  C   UNL     1       9.604  10.772  19.547  0.00  0.00    +0.000 C 
BRANCH  10  12
ATOM     11  C   UNL     1      11.375  12.193  20.166  0.00  0.00    +0.000 C 
ATOM     12  O   UNL     1      10.361  11.940  19.200  0.00  0.00    +0.000 OA
ENDBRANCH  10  12
ENDBRANCH   9  10
ENDBRANCH   8   9
ENDBRANCH   7   8
ENDBRANCH   6   7
ENDBRANCH   5   6
ENDBRANCH   1   5
BRANCH   3  13
ATOM     13  C   UNL     1       4.655   4.611  19.092  0.00  0.00    +0.000 C 
BRANCH  13  14
ATOM     14  C   UNL     1       3.634   3.640  18.451  0.00  0.00    +0.000 C 
BRANCH  14  15
ATOM     15  N   UNL     1       2.424   3.274  19.342  0.00  0.00    +0.000 N 
ATOM     16  C   UNL     1       1.515   2.273  18.656  0.00  0.00    +0.000 C 
ATOM     17  C   UNL     1       2.919   2.752  20.685  0.00  0.00    +0.000 C 
ATOM     18  C   UNL     1       1.588   4.527  19.625  0.00  0.00    +0.000 C 
ENDBRANCH  14  15
ENDBRANCH  13  14
ENDBRANCH   3  13
TORSDOF 10
ENDMDL
