MODEL 1
REMARK VINA RESULT:      -7.1      0.000      0.000
REMARK  Name = 
REMARK  9 active torsions:
REMARK  status: ('A' for Active; 'I' for Inactive)
REMARK    1  A    between atoms: C_2  and  O_3
REMARK    2  A    between atoms: C_2  and  C_4
REMARK    3  A    between atoms: C_4  and  C_5
REMARK    4  A    between atoms: C_5  and  C_6
REMARK    5  A    between atoms: C_6  and  C_7
REMARK    6  A    between atoms: C_7  and  C_8
REMARK    7  A    between atoms: C_8  and  C_9
REMARK    8  A    between atoms: C_9  and  C_10
REMARK    9  A    between atoms: C_13  and  C_14
REMARK                            x       y       z     vdW  Elec       q    Type
REMARK                         _______ _______ _______ _____ _____    ______ ____
ROOT
ATOM      1  C   UNL     1       4.631   5.497  18.337  0.00  0.00    +0.000 A 
ATOM      2  C   UNL     1       5.476   4.410  18.102  0.00  0.00    +0.000 A 
ATOM      3  C   UNL     1       6.044   4.214  16.845  0.00  0.00    +0.000 A 
ATOM      4  C   UNL     1       5.759   5.068  15.766  0.00  0.00    +0.000 A 
ATOM      5  C   UNL     1       4.932   6.174  16.023  0.00  0.00    +0.000 A 
ATOM      6  C   UNL     1       4.378   6.389  17.291  0.00  0.00    +0.000 A 
ENDROOT
BRANCH   4   7
ATOM      7  C   UNL     1       6.287   4.770  14.416  0.00  0.00    +0.000 A 
ATOM      8  C   UNL     1       5.636   3.832  13.587  0.00  0.00    +0.000 A 
ATOM      9  C   UNL     1       6.124   3.508  12.321  0.00  0.00    +0.000 A 
ATOM     10  C   UNL     1       7.267   4.134  11.840  0.00  0.00    +0.000 A 
ATOM     11  C   UNL     1       7.917   5.083  12.626  0.00  0.00    +0.000 A 
ATOM     12  C   UNL     1       7.436   5.394  13.901  0.00  0.00    +0.000 A 
ENDBRANCH   4   7
BRANCH   1  13
ATOM     13  C   UNL     1       3.985   5.676  19.685  0.00  0.00    +0.000 C 
BRANCH  13  14
ATOM     14  C   UNL     1       2.523   6.109  19.565  0.00  0.00    +0.000 C 
BRANCH  14  15
ATOM     15  C   UNL     1       1.640   5.356  20.555  0.00  0.00    +0.000 C 
BRANCH  15  16
ATOM     16  C   UNL     1       2.165   3.938  20.772  0.00  0.00    +0.000 C 
BRANCH  16  17
ATOM     17  C   UNL     1       1.079   2.902  20.496  0.00  0.00    +0.000 C 
BRANCH  17  18
ATOM     18  C   UNL     1       0.734   2.842  19.010  0.00  0.00    +0.000 C 
BRANCH  18  20
ATOM     19  O   UNL     1       2.293   3.155  17.172  0.00  0.00    +0.000 OA
ATOM     20  C   UNL     1       1.952   2.539  18.166  0.00  0.00    +0.000 C 
BRANCH  20  21
ATOM     21  O   UNL     1       2.650   1.480  18.638  0.00  0.00    +0.000 OA
ATOM     22  H   UNL     1       3.431   1.252  18.103  0.00  0.00    +0.000 HD
ENDBRANCH  20  21
ENDBRANCH  18  20
ENDBRANCH  17  18
ENDBRANCH  16  17
ENDBRANCH  15  16
ENDBRANCH  14  15
ENDBRANCH  13  14
ENDBRANCH   1  13
TORSDOF 9
ENDMDL
MODEL 2
REMARK VINA RESULT:      -7.0      0.765      1.715
REMARK  Name = 
REMARK  9 active torsions:
REMARK  status: ('A' for Active; 'I' for Inactive)
REMARK    1  A    between atoms: C_2  and  O_3
REMARK    2  A    between atoms: C_2  and  C_4
REMARK    3  A    between atoms: C_4  and  C_5
REMARK    4  A    between atoms: C_5  and  C_6
REMARK    5  A    between atoms: C_6  and  C_7
REMARK    6  A    between atoms: C_7  and  C_8
REMARK    7  A    between atoms: C_8  and  C_9
REMARK    8  A    between atoms: C_9  and  C_10
REMARK    9  A    between atoms: C_13  and  C_14
REMARK                            x       y       z     vdW  Elec       q    Type
REMARK                         _______ _______ _______ _____ _____    ______ ____
ROOT
ATOM      1  C   UNL     1       4.342   5.454  18.178  0.00  0.00    +0.000 A 
ATOM      2  C   UNL     1       4.707   6.483  17.308  0.00  0.00    +0.000 A 
ATOM      3  C   UNL     1       5.219   6.194  16.044  0.00  0.00    +0.000 A 
ATOM      4  C   UNL     1       5.424   4.872  15.617  0.00  0.00    +0.000 A 
ATOM      5  C   UNL     1       5.025   3.846  16.489  0.00  0.00    +0.000 A 
ATOM      6  C   UNL     1       4.488   4.131  17.751  0.00  0.00    +0.000 A 
ENDROOT
BRANCH   4   7
ATOM      7  C   UNL     1       6.073   4.598  14.315  0.00  0.00    +0.000 A 
ATOM      8  C   UNL     1       7.261   5.269  13.956  0.00  0.00    +0.000 A 
ATOM      9  C   UNL     1       7.882   5.054  12.726  0.00  0.00    +0.000 A 
ATOM     10  C   UNL     1       7.342   4.143  11.829  0.00  0.00    +0.000 A 
ATOM     11  C   UNL     1       6.182   3.446  12.165  0.00  0.00    +0.000 A 
ATOM     12  C   UNL     1       5.553   3.675  13.393  0.00  0.00    +0.000 A 
ENDBRANCH   4   7
BRANCH   1  13
ATOM     13  C   UNL     1       3.833   5.773  19.558  0.00  0.00    +0.000 C 
BRANCH  13  14
ATOM     14  C   UNL     1       2.375   6.233  19.537  0.00  0.00    +0.000 C 
BRANCH  14  15
ATOM     15  C   UNL     1       1.560   5.535  20.621  0.00  0.00    +0.000 C 
BRANCH  15  16
ATOM     16  C   UNL     1       2.425   4.531  21.381  0.00  0.00    +0.000 C 
BRANCH  16  17
ATOM     17  C   UNL     1       1.783   3.147  21.386  0.00  0.00    +0.000 C 
BRANCH  17  18
ATOM     18  C   UNL     1       0.755   3.009  20.267  0.00  0.00    +0.000 C 
BRANCH  18  20
ATOM     19  O   UNL     1       2.425   1.768  19.010  0.00  0.00    +0.000 OA
ATOM     20  C   UNL     1       1.275   2.153  19.133  0.00  0.00    +0.000 C 
BRANCH  20  21
ATOM     21  O   UNL     1       0.307   1.845  18.240  0.00  0.00    +0.000 OA
ATOM     22  H   UNL     1       0.423   2.270  17.371  0.00  0.00    +0.000 HD
ENDBRANCH  20  21
ENDBRANCH  18  20
ENDBRANCH  17  18
ENDBRANCH  16  17
ENDBRANCH  15  16
ENDBRANCH  14  15
ENDBRANCH  13  14
ENDBRANCH   1  13
TORSDOF 9
ENDMDL
MODEL 3
REMARK VINA RESULT:      -7.0      5.837      8.817
REMARK  Name = 
REMARK  9 active torsions:
REMARK  status: ('A' for Active; 'I' for Inactive)
REMARK    1  A    between atoms: C_2  and  O_3
REMARK    2  A    between atoms: C_2  and  C_4
REMARK    3  A    between atoms: C_4  and  C_5
REMARK    4  A    between atoms: C_5  and  C_6
REMARK    5  A    between atoms: C_6  and  C_7
REMARK    6  A    between atoms: C_7  and  C_8
REMARK    7  A    between atoms: C_8  and  C_9
REMARK    8  A    between atoms: C_9  and  C_10
REMARK    9  A    between atoms: C_13  and  C_14
REMARK                            x       y       z     vdW  Elec       q    Type
REMARK                         _______ _______ _______ _____ _____    ______ ____
ROOT
ATOM      1  C   UNL     1       6.388   6.232  17.638  0.00  0.00    +0.000 A 
ATOM      2  C   UNL     1       6.343   5.747  18.947  0.00  0.00    +0.000 A 
ATOM      3  C   UNL     1       5.237   5.029  19.398  0.00  0.00    +0.000 A 
ATOM      4  C   UNL     1       4.120   4.804  18.577  0.00  0.00    +0.000 A 
ATOM      5  C   UNL     1       4.190   5.270  17.253  0.00  0.00    +0.000 A 
ATOM      6  C   UNL     1       5.310   5.972  16.788  0.00  0.00    +0.000 A 
ENDROOT
BRANCH   4   7
ATOM      7  C   UNL     1       2.915   4.136  19.118  0.00  0.00    +0.000 A 
ATOM      8  C   UNL     1       2.036   3.444  18.258  0.00  0.00    +0.000 A 
ATOM      9  C   UNL     1       0.879   2.828  18.732  0.00  0.00    +0.000 A 
ATOM     10  C   UNL     1       0.581   2.867  20.088  0.00  0.00    +0.000 A 
ATOM     11  C   UNL     1       1.443   3.521  20.967  0.00  0.00    +0.000 A 
ATOM     12  C   UNL     1       2.595   4.152  20.486  0.00  0.00    +0.000 A 
ENDBRANCH   4   7
BRANCH   1  13
ATOM     13  C   UNL     1       7.566   7.046  17.172  0.00  0.00    +0.000 C 
BRANCH  13  14
ATOM     14  C   UNL     1       8.225   7.807  18.323  0.00  0.00    +0.000 C 
BRANCH  14  15
ATOM     15  C   UNL     1       8.233   9.310  18.060  0.00  0.00    +0.000 C 
BRANCH  15  16
ATOM     16  C   UNL     1       9.165  10.021  19.039  0.00  0.00    +0.000 C 
BRANCH  16  17
ATOM     17  C   UNL     1       9.702  11.319  18.441  0.00  0.00    +0.000 C 
BRANCH  17  18
ATOM     18  C   UNL     1      11.223  11.385  18.537  0.00  0.00    +0.000 C 
BRANCH  18  20
ATOM     19  O   UNL     1      11.696  13.768  18.618  0.00  0.00    +0.000 OA
ATOM     20  C   UNL     1      11.758  12.704  18.026  0.00  0.00    +0.000 C 
BRANCH  20  21
ATOM     21  O   UNL     1      12.333  12.585  16.807  0.00  0.00    +0.000 OA
ATOM     22  H   UNL     1      13.124  12.016  16.797  0.00  0.00    +0.000 HD
ENDBRANCH  20  21
ENDBRANCH  18  20
ENDBRANCH  17  18
ENDBRANCH  16  17
ENDBRANCH  15  16
ENDBRANCH  14  15
ENDBRANCH  13  14
ENDBRANCH   1  13
TORSDOF 9
ENDMDL
MODEL 4
REMARK VINA RESULT:      -6.9      1.076      1.623
REMARK  Name = 
REMARK  9 active torsions:
REMARK  status: ('A' for Active; 'I' for Inactive)
REMARK    1  A    between atoms: C_2  and  O_3
REMARK    2  A    between atoms: C_2  and  C_4
REMARK    3  A    between atoms: C_4  and  C_5
REMARK    4  A    between atoms: C_5  and  C_6
REMARK    5  A    between atoms: C_6  and  C_7
REMARK    6  A    between atoms: C_7  and  C_8
REMARK    7  A    between atoms: C_8  and  C_9
REMARK    8  A    between atoms: C_9  and  C_10
REMARK    9  A    between atoms: C_13  and  C_14
REMARK                            x       y       z     vdW  Elec       q    Type
REMARK                         _______ _______ _______ _____ _____    ______ ____
ROOT
ATOM      1  C   UNL     1       4.448   5.391  18.099  0.00  0.00    +0.000 A 
ATOM      2  C   UNL     1       4.610   6.422  17.171  0.00  0.00    +0.000 A 
ATOM      3  C   UNL     1       5.110   6.156  15.898  0.00  0.00    +0.000 A 
ATOM      4  C   UNL     1       5.504   4.863  15.516  0.00  0.00    +0.000 A 
ATOM      5  C   UNL     1       5.308   3.830  16.447  0.00  0.00    +0.000 A 
ATOM      6  C   UNL     1       4.783   4.088  17.721  0.00  0.00    +0.000 A 
ENDROOT
BRANCH   4   7
ATOM      7  C   UNL     1       6.135   4.631  14.197  0.00  0.00    +0.000 A 
ATOM      8  C   UNL     1       5.599   3.675  13.309  0.00  0.00    +0.000 A 
ATOM      9  C   UNL     1       6.185   3.414  12.071  0.00  0.00    +0.000 A 
ATOM     10  C   UNL     1       7.313   4.121  11.677  0.00  0.00    +0.000 A 
ATOM     11  C   UNL     1       7.851   5.090  12.523  0.00  0.00    +0.000 A 
ATOM     12  C   UNL     1       7.271   5.338  13.770  0.00  0.00    +0.000 A 
ENDBRANCH   4   7
BRANCH   1  13
ATOM     13  C   UNL     1       3.951   5.693  19.488  0.00  0.00    +0.000 C 
BRANCH  13  14
ATOM     14  C   UNL     1       2.442   5.941  19.513  0.00  0.00    +0.000 C 
BRANCH  14  15
ATOM     15  C   UNL     1       1.774   5.171  20.649  0.00  0.00    +0.000 C 
BRANCH  15  16
ATOM     16  C   UNL     1       1.073   3.925  20.112  0.00  0.00    +0.000 C 
BRANCH  16  17
ATOM     17  C   UNL     1       1.838   2.660  20.490  0.00  0.00    +0.000 C 
BRANCH  17  18
ATOM     18  C   UNL     1       2.417   1.973  19.256  0.00  0.00    +0.000 C 
BRANCH  18  20
ATOM     19  O   UNL     1       4.603   2.052  20.316  0.00  0.00    +0.000 OA
ATOM     20  C   UNL     1       3.869   1.599  19.456  0.00  0.00    +0.000 C 
BRANCH  20  21
ATOM     21  O   UNL     1       4.288   0.679  18.556  0.00  0.00    +0.000 OA
ATOM     22  H   UNL     1       4.083  -0.240  18.806  0.00  0.00    +0.000 HD
ENDBRANCH  20  21
ENDBRANCH  18  20
ENDBRANCH  17  18
ENDBRANCH  16  17
ENDBRANCH  15  16
ENDBRANCH  14  15
ENDBRANCH  13  14
ENDBRANCH   1  13
TORSDOF 9
ENDMDL
MODEL 5
REMARK VINA RESULT:      -6.9      1.303      1.982
REMARK  Name = 
REMARK  9 active torsions:
REMARK  status: ('A' for Active; 'I' for Inactive)
REMARK    1  A    between atoms: C_2  and  O_3
REMARK    2  A    between atoms: C_2  and  C_4
REMARK    3  A    between atoms: C_4  and  C_5
REMARK    4  A    between atoms: C_5  and  C_6
REMARK    5  A    between atoms: C_6  and  C_7
REMARK    6  A    between atoms: C_7  and  C_8
REMARK    7  A    between atoms: C_8  and  C_9
REMARK    8  A    between atoms: C_9  and  C_10
REMARK    9  A    between atoms: C_13  and  C_14
REMARK                            x       y       z     vdW  Elec       q    Type
REMARK                         _______ _______ _______ _____ _____    ______ ____
ROOT
ATOM      1  C   UNL     1       4.236   5.712  18.046  0.00  0.00    +0.000 A 
ATOM      2  C   UNL     1       4.312   4.377  17.645  0.00  0.00    +0.000 A 
ATOM      3  C   UNL     1       4.940   4.032  16.449  0.00  0.00    +0.000 A 
ATOM      4  C   UNL     1       5.477   5.005  15.591  0.00  0.00    +0.000 A 
ATOM      5  C   UNL     1       5.421   6.342  16.020  0.00  0.00    +0.000 A 
ATOM      6  C   UNL     1       4.812   6.691  17.233  0.00  0.00    +0.000 A 
ENDROOT
BRANCH   4   7
ATOM      7  C   UNL     1       6.037   4.618  14.277  0.00  0.00    +0.000 A 
ATOM      8  C   UNL     1       7.201   5.246  13.785  0.00  0.00    +0.000 A 
ATOM      9  C   UNL     1       7.738   4.923  12.540  0.00  0.00    +0.000 A 
ATOM     10  C   UNL     1       7.136   3.945  11.760  0.00  0.00    +0.000 A 
ATOM     11  C   UNL     1       5.999   3.289  12.229  0.00  0.00    +0.000 A 
ATOM     12  C   UNL     1       5.453   3.626  13.472  0.00  0.00    +0.000 A 
ENDBRANCH   4   7
BRANCH   1  13
ATOM     13  C   UNL     1       3.516   6.081  19.316  0.00  0.00    +0.000 C 
BRANCH  13  14
ATOM     14  C   UNL     1       2.027   5.740  19.249  0.00  0.00    +0.000 C 
BRANCH  14  15
ATOM     15  C   UNL     1       1.518   5.219  20.590  0.00  0.00    +0.000 C 
BRANCH  15  16
ATOM     16  C   UNL     1       0.980   3.797  20.444  0.00  0.00    +0.000 C 
BRANCH  16  17
ATOM     17  C   UNL     1       2.066   2.848  19.943  0.00  0.00    +0.000 C 
BRANCH  17  18
ATOM     18  C   UNL     1       3.061   2.511  21.051  0.00  0.00    +0.000 C 
BRANCH  18  20
ATOM     19  O   UNL     1       5.341   1.675  21.133  0.00  0.00    +0.000 OA
ATOM     20  C   UNL     1       4.324   1.892  20.497  0.00  0.00    +0.000 C 
BRANCH  20  21
ATOM     21  O   UNL     1       4.212   1.590  19.183  0.00  0.00    +0.000 OA
ATOM     22  H   UNL     1       3.422   1.968  18.757  0.00  0.00    +0.000 HD
ENDBRANCH  20  21
ENDBRANCH  18  20
ENDBRANCH  17  18
ENDBRANCH  16  17
ENDBRANCH  15  16
ENDBRANCH  14  15
ENDBRANCH  13  14
ENDBRANCH   1  13
TORSDOF 9
ENDMDL
MODEL 6
REMARK VINA RESULT:      -6.9      0.829      1.073
REMARK  Name = 
REMARK  9 active torsions:
REMARK  status: ('A' for Active; 'I' for Inactive)
REMARK    1  A    between atoms: C_2  and  O_3
REMARK    2  A    between atoms: C_2  and  C_4
REMARK    3  A    between atoms: C_4  and  C_5
REMARK    4  A    between atoms: C_5  and  C_6
REMARK    5  A    between atoms: C_6  and  C_7
REMARK    6  A    between atoms: C_7  and  C_8
REMARK    7  A    between atoms: C_8  and  C_9
REMARK    8  A    between atoms: C_9  and  C_10
REMARK    9  A    between atoms: C_13  and  C_14
REMARK                            x       y       z     vdW  Elec       q    Type
REMARK                         _______ _______ _______ _____ _____    ______ ____
ROOT
ATOM      1  C   UNL     1       4.281   5.789  18.001  0.00  0.00    +0.000 A 
ATOM      2  C   UNL     1       4.559   4.449  17.723  0.00  0.00    +0.000 A 
ATOM      3  C   UNL     1       5.160   4.086  16.519  0.00  0.00    +0.000 A 
ATOM      4  C   UNL     1       5.468   5.037  15.532  0.00  0.00    +0.000 A 
ATOM      5  C   UNL     1       5.211   6.384  15.836  0.00  0.00    +0.000 A 
ATOM      6  C   UNL     1       4.630   6.757  17.055  0.00  0.00    +0.000 A 
ENDROOT
BRANCH   4   7
ATOM      7  C   UNL     1       6.002   4.608  14.220  0.00  0.00    +0.000 A 
ATOM      8  C   UNL     1       5.315   3.643  13.453  0.00  0.00    +0.000 A 
ATOM      9  C   UNL     1       5.806   3.197  12.226  0.00  0.00    +0.000 A 
ATOM     10  C   UNL     1       6.987   3.724  11.721  0.00  0.00    +0.000 A 
ATOM     11  C   UNL     1       7.675   4.696  12.445  0.00  0.00    +0.000 A 
ATOM     12  C   UNL     1       7.190   5.130  13.683  0.00  0.00    +0.000 A 
ENDBRANCH   4   7
BRANCH   1  13
ATOM     13  C   UNL     1       3.591   6.170  19.284  0.00  0.00    +0.000 C 
BRANCH  13  14
ATOM     14  C   UNL     1       2.127   5.727  19.297  0.00  0.00    +0.000 C 
BRANCH  14  15
ATOM     15  C   UNL     1       1.703   5.260  20.686  0.00  0.00    +0.000 C 
BRANCH  15  16
ATOM     16  C   UNL     1       0.833   4.008  20.589  0.00  0.00    +0.000 C 
BRANCH  16  17
ATOM     17  C   UNL     1       1.175   3.198  19.342  0.00  0.00    +0.000 C 
BRANCH  17  18
ATOM     18  C   UNL     1       2.170   2.085  19.660  0.00  0.00    +0.000 C 
BRANCH  18  20
ATOM     19  O   UNL     1       3.910   0.957  18.392  0.00  0.00    +0.000 OA
ATOM     20  C   UNL     1       2.865   1.584  18.413  0.00  0.00    +0.000 C 
BRANCH  20  21
ATOM     21  O   UNL     1       2.191   1.910  17.286  0.00  0.00    +0.000 OA
ATOM     22  H   UNL     1       1.224   1.815  17.363  0.00  0.00    +0.000 HD
ENDBRANCH  20  21
ENDBRANCH  18  20
ENDBRANCH  17  18
ENDBRANCH  16  17
ENDBRANCH  15  16
ENDBRANCH  14  15
ENDBRANCH  13  14
ENDBRANCH   1  13
TORSDOF 9
ENDMDL
MODEL 7
REMARK VINA RESULT:      -6.8      5.777      8.716
REMARK  Name = 
REMARK  9 active torsions:
REMARK  status: ('A' for Active; 'I' for Inactive)
REMARK    1  A    between atoms: C_2  and  O_3
REMARK    2  A    between atoms: C_2  and  C_4
REMARK    3  A    between atoms: C_4  and  C_5
REMARK    4  A    between atoms: C_5  and  C_6
REMARK    5  A    between atoms: C_6  and  C_7
REMARK    6  A    between atoms: C_7  and  C_8
REMARK    7  A    between atoms: C_8  and  C_9
REMARK    8  A    between atoms: C_9  and  C_10
REMARK    9  A    between atoms: C_13  and  C_14
REMARK                            x       y       z     vdW  Elec       q    Type
REMARK                         _______ _______ _______ _____ _____    ______ ____
ROOT
ATOM      1  C   UNL     1       6.363   6.476  17.691  0.00  0.00    +0.000 A 
ATOM      2  C   UNL     1       5.104   6.777  17.169  0.00  0.00    +0.000 A 
ATOM      3  C   UNL     1       3.973   6.089  17.606  0.00  0.00    +0.000 A 
ATOM      4  C   UNL     1       4.061   5.049  18.546  0.00  0.00    +0.000 A 
ATOM      5  C   UNL     1       5.329   4.776  19.086  0.00  0.00    +0.000 A 
ATOM      6  C   UNL     1       6.465   5.482  18.668  0.00  0.00    +0.000 A 
ENDROOT
BRANCH   4   7
ATOM      7  C   UNL     1       2.861   4.262  18.906  0.00  0.00    +0.000 A 
ATOM      8  C   UNL     1       2.057   4.648  20.001  0.00  0.00    +0.000 A 
ATOM      9  C   UNL     1       0.936   3.913  20.383  0.00  0.00    +0.000 A 
ATOM     10  C   UNL     1       0.573   2.782  19.664  0.00  0.00    +0.000 A 
ATOM     11  C   UNL     1       1.332   2.389  18.563  0.00  0.00    +0.000 A 
ATOM     12  C   UNL     1       2.466   3.119  18.192  0.00  0.00    +0.000 A 
ENDBRANCH   4   7
BRANCH   1  13
ATOM     13  C   UNL     1       7.585   7.193  17.181  0.00  0.00    +0.000 C 
BRANCH  13  14
ATOM     14  C   UNL     1       8.301   7.964  18.291  0.00  0.00    +0.000 C 
BRANCH  14  15
ATOM     15  C   UNL     1       8.340   9.458  17.990  0.00  0.00    +0.000 C 
BRANCH  15  16
ATOM     16  C   UNL     1       9.114  10.204  19.075  0.00  0.00    +0.000 C 
BRANCH  16  17
ATOM     17  C   UNL     1      10.045  11.248  18.465  0.00  0.00    +0.000 C 
BRANCH  17  18
ATOM     18  C   UNL     1      11.241  11.523  19.374  0.00  0.00    +0.000 C 
BRANCH  18  20
ATOM     19  O   UNL     1      11.174  13.774  20.288  0.00  0.00    +0.000 OA
ATOM     20  C   UNL     1      10.927  12.586  20.403  0.00  0.00    +0.000 C 
BRANCH  20  21
ATOM     21  O   UNL     1      10.324  12.073  21.500  0.00  0.00    +0.000 OA
ATOM     22  H   UNL     1       9.527  11.548  21.304  0.00  0.00    +0.000 HD
ENDBRANCH  20  21
ENDBRANCH  18  20
ENDBRANCH  17  18
ENDBRANCH  16  17
ENDBRANCH  15  16
ENDBRANCH  14  15
ENDBRANCH  13  14
ENDBRANCH   1  13
TORSDOF 9
ENDMDL
MODEL 8
REMARK VINA RESULT:      -6.7      0.675      1.441
REMARK  Name = 
REMARK  9 active torsions:
REMARK  status: ('A' for Active; 'I' for Inactive)
REMARK    1  A    between atoms: C_2  and  O_3
REMARK    2  A    between atoms: C_2  and  C_4
REMARK    3  A    between atoms: C_4  and  C_5
REMARK    4  A    between atoms: C_5  and  C_6
REMARK    5  A    between atoms: C_6  and  C_7
REMARK    6  A    between atoms: C_7  and  C_8
REMARK    7  A    between atoms: C_8  and  C_9
REMARK    8  A    between atoms: C_9  and  C_10
REMARK    9  A    between atoms: C_13  and  C_14
REMARK                            x       y       z     vdW  Elec       q    Type
REMARK                         _______ _______ _______ _____ _____    ______ ____
ROOT
ATOM      1  C   UNL     1       4.952   5.122  18.409  0.00  0.00    +0.000 A 
ATOM      2  C   UNL     1       6.167   4.484  18.150  0.00  0.00    +0.000 A 
ATOM      3  C   UNL     1       6.641   4.369  16.844  0.00  0.00    +0.000 A 
ATOM      4  C   UNL     1       5.904   4.847  15.748  0.00  0.00    +0.000 A 
ATOM      5  C   UNL     1       4.699   5.514  16.025  0.00  0.00    +0.000 A 
ATOM      6  C   UNL     1       4.230   5.653  17.338  0.00  0.00    +0.000 A 
ENDROOT
BRANCH   4   7
ATOM      7  C   UNL     1       6.379   4.611  14.366  0.00  0.00    +0.000 A 
ATOM      8  C   UNL     1       7.484   5.328  13.860  0.00  0.00    +0.000 A 
ATOM      9  C   UNL     1       7.940   5.149  12.555  0.00  0.00    +0.000 A 
ATOM     10  C   UNL     1       7.315   4.227  11.725  0.00  0.00    +0.000 A 
ATOM     11  C   UNL     1       6.237   3.485  12.204  0.00  0.00    +0.000 A 
ATOM     12  C   UNL     1       5.772   3.679  13.509  0.00  0.00    +0.000 A 
ENDBRANCH   4   7
BRANCH   1  13
ATOM     13  C   UNL     1       4.425   5.203  19.817  0.00  0.00    +0.000 C 
BRANCH  13  14
ATOM     14  C   UNL     1       2.905   5.365  19.850  0.00  0.00    +0.000 C 
BRANCH  14  15
ATOM     15  C   UNL     1       2.305   4.711  21.091  0.00  0.00    +0.000 C 
BRANCH  15  16
ATOM     16  C   UNL     1       1.136   3.806  20.708  0.00  0.00    +0.000 C 
BRANCH  16  17
ATOM     17  C   UNL     1       1.057   3.620  19.196  0.00  0.00    +0.000 C 
BRANCH  17  18
ATOM     18  C   UNL     1       1.466   2.207  18.789  0.00  0.00    +0.000 C 
BRANCH  18  20
ATOM     19  O   UNL     1       3.674   1.638  17.945  0.00  0.00    +0.000 OA
ATOM     20  C   UNL     1       2.612   2.219  17.801  0.00  0.00    +0.000 C 
BRANCH  20  21
ATOM     21  O   UNL     1       2.334   2.962  16.705  0.00  0.00    +0.000 OA
ATOM     22  H   UNL     1       3.021   2.921  16.016  0.00  0.00    +0.000 HD
ENDBRANCH  20  21
ENDBRANCH  18  20
ENDBRANCH  17  18
ENDBRANCH  16  17
ENDBRANCH  15  16
ENDBRANCH  14  15
ENDBRANCH  13  14
ENDBRANCH   1  13
TORSDOF 9
ENDMDL
MODEL 9
REMARK VINA RESULT:      -6.7      3.329      7.587
REMARK  Name = 
REMARK  9 active torsions:
REMARK  status: ('A' for Active; 'I' for Inactive)
REMARK    1  A    between atoms: C_2  and  O_3
REMARK    2  A    between atoms: C_2  and  C_4
REMARK    3  A    between atoms: C_4  and  C_5
REMARK    4  A    between atoms: C_5  and  C_6
REMARK    5  A    between atoms: C_6  and  C_7
REMARK    6  A    between atoms: C_7  and  C_8
REMARK    7  A    between atoms: C_8  and  C_9
REMARK    8  A    between atoms: C_9  and  C_10
REMARK    9  A    between atoms: C_13  and  C_14
REMARK                            x       y       z     vdW  Elec       q    Type
REMARK                         _______ _______ _______ _____ _____    ______ ____
ROOT
ATOM      1  C   UNL     1       3.420   4.954  17.979  0.00  0.00    +0.000 A 
ATOM      2  C   UNL     1       3.551   6.261  17.503  0.00  0.00    +0.000 A 
ATOM      3  C   UNL     1       3.003   7.330  18.210  0.00  0.00    +0.000 A 
ATOM      4  C   UNL     1       2.269   7.133  19.392  0.00  0.00    +0.000 A 
ATOM      5  C   UNL     1       2.171   5.817  19.875  0.00  0.00    +0.000 A 
ATOM      6  C   UNL     1       2.741   4.743  19.181  0.00  0.00    +0.000 A 
ENDROOT
BRANCH   4   7
ATOM      7  C   UNL     1       1.604   8.274  20.059  0.00  0.00    +0.000 A 
ATOM      8  C   UNL     1       1.414   8.271  21.457  0.00  0.00    +0.000 A 
ATOM      9  C   UNL     1       0.767   9.317  22.112  0.00  0.00    +0.000 A 
ATOM     10  C   UNL     1       0.312  10.411  21.388  0.00  0.00    +0.000 A 
ATOM     11  C   UNL     1       0.507  10.455  20.008  0.00  0.00    +0.000 A 
ATOM     12  C   UNL     1       1.142   9.396  19.351  0.00  0.00    +0.000 A 
ENDBRANCH   4   7
BRANCH   1  13
ATOM     13  C   UNL     1       3.976   3.801  17.186  0.00  0.00    +0.000 C 
BRANCH  13  14
ATOM     14  C   UNL     1       4.647   4.267  15.894  0.00  0.00    +0.000 C 
BRANCH  14  15
ATOM     15  C   UNL     1       6.142   3.961  15.905  0.00  0.00    +0.000 C 
BRANCH  15  16
ATOM     16  C   UNL     1       6.951   5.234  15.665  0.00  0.00    +0.000 C 
BRANCH  16  17
ATOM     17  C   UNL     1       7.143   6.015  16.962  0.00  0.00    +0.000 C 
BRANCH  17  18
ATOM     18  C   UNL     1       7.274   5.077  18.159  0.00  0.00    +0.000 C 
BRANCH  18  20
ATOM     19  O   UNL     1       7.907   5.340  20.491  0.00  0.00    +0.000 OA
ATOM     20  C   UNL     1       7.882   5.777  19.354  0.00  0.00    +0.000 C 
BRANCH  20  21
ATOM     21  O   UNL     1       8.414   6.978  19.027  0.00  0.00    +0.000 OA
ATOM     22  H   UNL     1       9.363   6.943  18.811  0.00  0.00    +0.000 HD
ENDBRANCH  20  21
ENDBRANCH  18  20
ENDBRANCH  17  18
ENDBRANCH  16  17
ENDBRANCH  15  16
ENDBRANCH  14  15
ENDBRANCH  13  14
ENDBRANCH   1  13
TORSDOF 9
ENDMDL
