MODEL 1
REMARK VINA RESULT:      -8.9      0.000      0.000
REMARK  Name = 
REMARK  6 active torsions:
REMARK  status: ('A' for Active; 'I' for Inactive)
REMARK    1  A    between atoms: C_1  and  C_2
REMARK    2  A    between atoms: C_8  and  C_9
REMARK    3  A    between atoms: C_13  and  C_14
REMARK    4  A    between atoms: C_18  and  N_19
REMARK    5  A    between atoms: C_20  and  C_22
REMARK    6  A    between atoms: C_22  and  C_23
REMARK                            x       y       z     vdW  Elec       q    Type
REMARK                         _______ _______ _______ _____ _____    ______ ____
ROOT
ATOM      1  C   UNL     1       2.264   7.587  19.218  0.00  0.00    +0.000 A 
ATOM      2  C   UNL     1       1.930   7.114  20.489  0.00  0.00    +0.000 A 
ATOM      3  C   UNL     1       1.087   7.851  21.316  0.00  0.00    +0.000 A 
ATOM      4  C   UNL     1       0.546   9.059  20.867  0.00  0.00    +0.000 A 
ATOM      5  C   UNL     1       0.858   9.577  19.598  0.00  0.00    +0.000 A 
ATOM      6  C   UNL     1       1.742   8.820  18.796  0.00  0.00    +0.000 A 
ENDROOT
BRANCH   1  14
ATOM      7  C   UNL     1       3.803   2.392  17.600  0.00  0.00    +0.000 C 
ATOM      8  C   UNL     1       4.379   3.645  17.015  0.00  0.00    +0.000 A 
ATOM      9  C   UNL     1       5.366   3.595  16.011  0.00  0.00    +0.000 A 
ATOM     10  C   UNL     1       5.926   4.755  15.463  0.00  0.00    +0.000 A 
ATOM     11  C   UNL     1       5.514   6.020  15.891  0.00  0.00    +0.000 A 
ATOM     12  C   UNL     1       4.523   6.101  16.877  0.00  0.00    +0.000 A 
ATOM     13  N   UNL     1       3.944   7.208  17.440  0.00  0.00    +0.000 NA
ATOM     14  C   UNL     1       3.091   6.759  18.340  0.00  0.00    +0.000 A 
ATOM     15  N   UNL     1       3.087   5.383  18.342  0.00  0.00    +0.000 N 
ATOM     16  C   UNL     1       3.994   4.934  17.414  0.00  0.00    +0.000 A 
ATOM     17  H   UNL     1       2.502   4.800  18.920  0.00  0.00    +0.000 HD
ENDBRANCH   1  14
BRANCH   5  18
ATOM     18  C   UNL     1       0.267  10.847  19.103  0.00  0.00    +0.000 A 
ATOM     19  C   UNL     1       1.065  11.990  18.918  0.00  0.00    +0.000 A 
ATOM     20  C   UNL     1       0.521  13.196  18.490  0.00  0.00    +0.000 A 
ATOM     21  C   UNL     1      -0.842  13.289  18.220  0.00  0.00    +0.000 A 
ATOM     22  C   UNL     1      -1.673  12.180  18.365  0.00  0.00    +0.000 A 
ATOM     23  C   UNL     1      -1.109  10.967  18.800  0.00  0.00    +0.000 A 
BRANCH  22  24
ATOM     24  N   UNL     1      -3.061  12.215  18.097  0.00  0.00    +0.000 N 
ATOM     25  C   UNL     1      -3.730  11.521  17.099  0.00  0.00    +0.000 C 
ATOM     26  O   UNL     1      -3.222  10.762  16.269  0.00  0.00    +0.000 OA
ATOM     27  H   UNL     1      -3.633  12.770  18.725  0.00  0.00    +0.000 HD
BRANCH  25  28
ATOM     28  C   UNL     1      -5.226  11.769  17.076  0.00  0.00    +0.000 C 
BRANCH  28  29
ATOM     29  C   UNL     1      -5.785  11.559  18.430  0.00  0.00    +0.000 A 
ATOM     30  C   UNL     1      -6.456  10.463  18.932  0.00  0.00    +0.000 A 
ATOM     31  N   UNL     1      -6.678  10.748  20.248  0.00  0.00    +0.000 N 
ATOM     32  C   UNL     1      -6.164  11.991  20.490  0.00  0.00    +0.000 A 
ATOM     33  N   UNL     1      -5.630  12.513  19.409  0.00  0.00    +0.000 NA
ATOM     34  H   UNL     1      -7.118  10.145  20.928  0.00  0.00    +0.000 HD
ENDBRANCH  28  29
ENDBRANCH  25  28
ENDBRANCH  22  24
ENDBRANCH   5  18
TORSDOF 5
ENDMDL
MODEL 2
REMARK VINA RESULT:      -8.7      0.910      1.056
REMARK  Name = 
REMARK  6 active torsions:
REMARK  status: ('A' for Active; 'I' for Inactive)
REMARK    1  A    between atoms: C_1  and  C_2
REMARK    2  A    between atoms: C_8  and  C_9
REMARK    3  A    between atoms: C_13  and  C_14
REMARK    4  A    between atoms: C_18  and  N_19
REMARK    5  A    between atoms: C_20  and  C_22
REMARK    6  A    between atoms: C_22  and  C_23
REMARK                            x       y       z     vdW  Elec       q    Type
REMARK                         _______ _______ _______ _____ _____    ______ ____
ROOT
ATOM      1  C   UNL     1       2.154   7.622  19.369  0.00  0.00    +0.000 A 
ATOM      2  C   UNL     1       1.807   7.071  20.604  0.00  0.00    +0.000 A 
ATOM      3  C   UNL     1       0.964   7.761  21.471  0.00  0.00    +0.000 A 
ATOM      4  C   UNL     1       0.438   9.001  21.099  0.00  0.00    +0.000 A 
ATOM      5  C   UNL     1       0.765   9.597  19.868  0.00  0.00    +0.000 A 
ATOM      6  C   UNL     1       1.648   8.885  19.025  0.00  0.00    +0.000 A 
ENDROOT
BRANCH   1  14
ATOM      7  C   UNL     1       3.817   2.525  17.572  0.00  0.00    +0.000 C 
ATOM      8  C   UNL     1       4.330   3.811  17.000  0.00  0.00    +0.000 A 
ATOM      9  C   UNL     1       5.284   3.820  15.965  0.00  0.00    +0.000 A 
ATOM     10  C   UNL     1       5.786   5.011  15.428  0.00  0.00    +0.000 A 
ATOM     11  C   UNL     1       5.345   6.250  15.901  0.00  0.00    +0.000 A 
ATOM     12  C   UNL     1       4.385   6.273  16.920  0.00  0.00    +0.000 A 
ATOM     13  N   UNL     1       3.787   7.346  17.529  0.00  0.00    +0.000 NA
ATOM     14  C   UNL     1       2.980   6.845  18.445  0.00  0.00    +0.000 A 
ATOM     15  N   UNL     1       3.023   5.470  18.412  0.00  0.00    +0.000 N 
ATOM     16  C   UNL     1       3.914   5.075  17.444  0.00  0.00    +0.000 A 
ATOM     17  H   UNL     1       2.478   4.854  18.994  0.00  0.00    +0.000 HD
ENDBRANCH   1  14
BRANCH   5  18
ATOM     18  C   UNL     1       0.189  10.902  19.453  0.00  0.00    +0.000 A 
ATOM     19  C   UNL     1       1.000  11.897  18.877  0.00  0.00    +0.000 A 
ATOM     20  C   UNL     1       0.484  13.137  18.516  0.00  0.00    +0.000 A 
ATOM     21  C   UNL     1      -0.867  13.414  18.711  0.00  0.00    +0.000 A 
ATOM     22  C   UNL     1      -1.718  12.455  19.258  0.00  0.00    +0.000 A 
ATOM     23  C   UNL     1      -1.182  11.206  19.618  0.00  0.00    +0.000 A 
BRANCH  22  24
ATOM     24  N   UNL     1      -3.097  12.678  19.469  0.00  0.00    +0.000 N 
ATOM     25  C   UNL     1      -4.149  12.034  18.833  0.00  0.00    +0.000 C 
ATOM     26  O   UNL     1      -4.054  11.161  17.966  0.00  0.00    +0.000 OA
ATOM     27  H   UNL     1      -3.346  13.347  20.190  0.00  0.00    +0.000 HD
BRANCH  25  28
ATOM     28  C   UNL     1      -5.519  12.497  19.287  0.00  0.00    +0.000 C 
BRANCH  28  29
ATOM     29  C   UNL     1      -6.396  11.323  19.497  0.00  0.00    +0.000 A 
ATOM     30  C   UNL     1      -6.851  10.404  18.575  0.00  0.00    +0.000 A 
ATOM     31  N   UNL     1      -7.551   9.483  19.299  0.00  0.00    +0.000 N 
ATOM     32  C   UNL     1      -7.516   9.878  20.607  0.00  0.00    +0.000 A 
ATOM     33  N   UNL     1      -6.837  10.993  20.758  0.00  0.00    +0.000 NA
ATOM     34  H   UNL     1      -7.994   8.648  18.942  0.00  0.00    +0.000 HD
ENDBRANCH  28  29
ENDBRANCH  25  28
ENDBRANCH  22  24
ENDBRANCH   5  18
TORSDOF 5
ENDMDL
MODEL 3
REMARK VINA RESULT:      -8.6      2.113      2.550
REMARK  Name = 
REMARK  6 active torsions:
REMARK  status: ('A' for Active; 'I' for Inactive)
REMARK    1  A    between atoms: C_1  and  C_2
REMARK    2  A    between atoms: C_8  and  C_9
REMARK    3  A    between atoms: C_13  and  C_14
REMARK    4  A    between atoms: C_18  and  N_19
REMARK    5  A    between atoms: C_20  and  C_22
REMARK    6  A    between atoms: C_22  and  C_23
REMARK                            x       y       z     vdW  Elec       q    Type
REMARK                         _______ _______ _______ _____ _____    ______ ____
ROOT
ATOM      1  C   UNL     1       2.005   7.788  19.503  0.00  0.00    +0.000 A 
ATOM      2  C   UNL     1       1.614   7.182  20.698  0.00  0.00    +0.000 A 
ATOM      3  C   UNL     1       0.773   7.849  21.584  0.00  0.00    +0.000 A 
ATOM      4  C   UNL     1       0.293   9.124  21.270  0.00  0.00    +0.000 A 
ATOM      5  C   UNL     1       0.665   9.775  20.081  0.00  0.00    +0.000 A 
ATOM      6  C   UNL     1       1.545   9.084  19.218  0.00  0.00    +0.000 A 
ENDROOT
BRANCH   1  14
ATOM      7  C   UNL     1       3.719   2.744  17.609  0.00  0.00    +0.000 C 
ATOM      8  C   UNL     1       4.202   4.046  17.046  0.00  0.00    +0.000 A 
ATOM      9  C   UNL     1       5.139   4.085  15.995  0.00  0.00    +0.000 A 
ATOM     10  C   UNL     1       5.612   5.291  15.467  0.00  0.00    +0.000 A 
ATOM     11  C   UNL     1       5.159   6.516  15.964  0.00  0.00    +0.000 A 
ATOM     12  C   UNL     1       4.216   6.509  16.998  0.00  0.00    +0.000 A 
ATOM     13  N   UNL     1       3.611   7.564  17.632  0.00  0.00    +0.000 NA
ATOM     14  C   UNL     1       2.827   7.037  18.554  0.00  0.00    +0.000 A 
ATOM     15  N   UNL     1       2.893   5.664  18.502  0.00  0.00    +0.000 N 
ATOM     16  C   UNL     1       3.773   5.297  17.514  0.00  0.00    +0.000 A 
ATOM     17  H   UNL     1       2.367   5.031  19.084  0.00  0.00    +0.000 HD
ENDBRANCH   1  14
BRANCH   5  18
ATOM     18  C   UNL     1       0.138  11.119  19.727  0.00  0.00    +0.000 A 
ATOM     19  C   UNL     1       0.805  11.931  18.792  0.00  0.00    +0.000 A 
ATOM     20  C   UNL     1       0.344  13.205  18.476  0.00  0.00    +0.000 A 
ATOM     21  C   UNL     1      -0.808  13.700  19.080  0.00  0.00    +0.000 A 
ATOM     22  C   UNL     1      -1.518  12.927  19.997  0.00  0.00    +0.000 A 
ATOM     23  C   UNL     1      -1.041  11.641  20.307  0.00  0.00    +0.000 A 
BRANCH  22  24
ATOM     24  N   UNL     1      -2.698  13.375  20.634  0.00  0.00    +0.000 N 
ATOM     25  C   UNL     1      -4.000  13.018  20.313  0.00  0.00    +0.000 C 
ATOM     26  O   UNL     1      -4.347  12.254  19.409  0.00  0.00    +0.000 OA
ATOM     27  H   UNL     1      -2.581  13.987  21.435  0.00  0.00    +0.000 HD
BRANCH  25  28
ATOM     28  C   UNL     1      -5.050  13.669  21.192  0.00  0.00    +0.000 C 
BRANCH  28  29
ATOM     29  C   UNL     1      -4.652  13.549  22.613  0.00  0.00    +0.000 A 
ATOM     30  C   UNL     1      -4.616  14.522  23.588  0.00  0.00    +0.000 A 
ATOM     31  N   UNL     1      -4.262  13.871  24.734  0.00  0.00    +0.000 N 
ATOM     32  C   UNL     1      -4.078  12.554  24.417  0.00  0.00    +0.000 A 
ATOM     33  N   UNL     1      -4.294  12.330  23.140  0.00  0.00    +0.000 NA
ATOM     34  H   UNL     1      -4.174  14.277  25.655  0.00  0.00    +0.000 HD
ENDBRANCH  28  29
ENDBRANCH  25  28
ENDBRANCH  22  24
ENDBRANCH   5  18
TORSDOF 5
ENDMDL
MODEL 4
REMARK VINA RESULT:      -8.5      0.658      1.486
REMARK  Name = 
REMARK  6 active torsions:
REMARK  status: ('A' for Active; 'I' for Inactive)
REMARK    1  A    between atoms: C_1  and  C_2
REMARK    2  A    between atoms: C_8  and  C_9
REMARK    3  A    between atoms: C_13  and  C_14
REMARK    4  A    between atoms: C_18  and  N_19
REMARK    5  A    between atoms: C_20  and  C_22
REMARK    6  A    between atoms: C_22  and  C_23
REMARK                            x       y       z     vdW  Elec       q    Type
REMARK                         _______ _______ _______ _____ _____    ______ ____
ROOT
ATOM      1  C   UNL     1       2.356   7.414  19.305  0.00  0.00    +0.000 A 
ATOM      2  C   UNL     1       1.873   6.895  20.508  0.00  0.00    +0.000 A 
ATOM      3  C   UNL     1       0.938   7.604  21.257  0.00  0.00    +0.000 A 
ATOM      4  C   UNL     1       0.456   8.831  20.794  0.00  0.00    +0.000 A 
ATOM      5  C   UNL     1       0.918   9.395  19.592  0.00  0.00    +0.000 A 
ATOM      6  C   UNL     1       1.890   8.665  18.872  0.00  0.00    +0.000 A 
ENDROOT
BRANCH   1  14
ATOM      7  C   UNL     1       7.522   6.893  17.065  0.00  0.00    +0.000 C 
ATOM      8  C   UNL     1       6.431   5.886  16.869  0.00  0.00    +0.000 A 
ATOM      9  C   UNL     1       6.635   4.731  16.090  0.00  0.00    +0.000 A 
ATOM     10  C   UNL     1       5.623   3.786  15.884  0.00  0.00    +0.000 A 
ATOM     11  C   UNL     1       4.361   3.954  16.459  0.00  0.00    +0.000 A 
ATOM     12  C   UNL     1       4.133   5.085  17.252  0.00  0.00    +0.000 A 
ATOM     13  N   UNL     1       3.002   5.458  17.931  0.00  0.00    +0.000 NA
ATOM     14  C   UNL     1       3.281   6.616  18.500  0.00  0.00    +0.000 A 
ATOM     15  N   UNL     1       4.580   6.976  18.225  0.00  0.00    +0.000 N 
ATOM     16  C   UNL     1       5.150   6.014  17.429  0.00  0.00    +0.000 A 
ATOM     17  H   UNL     1       5.042   7.804  18.567  0.00  0.00    +0.000 HD
ENDBRANCH   1  14
BRANCH   5  18
ATOM     18  C   UNL     1       0.391  10.687  19.080  0.00  0.00    +0.000 A 
ATOM     19  C   UNL     1       1.235  11.803  18.934  0.00  0.00    +0.000 A 
ATOM     20  C   UNL     1       0.749  13.028  18.490  0.00  0.00    +0.000 A 
ATOM     21  C   UNL     1      -0.597  13.170  18.166  0.00  0.00    +0.000 A 
ATOM     22  C   UNL     1      -1.471  12.089  18.272  0.00  0.00    +0.000 A 
ATOM     23  C   UNL     1      -0.967  10.856  18.723  0.00  0.00    +0.000 A 
BRANCH  22  24
ATOM     24  N   UNL     1      -2.845  12.173  17.948  0.00  0.00    +0.000 N 
ATOM     25  C   UNL     1      -3.590  11.236  17.246  0.00  0.00    +0.000 C 
ATOM     26  O   UNL     1      -3.174  10.174  16.777  0.00  0.00    +0.000 OA
ATOM     27  H   UNL     1      -3.348  12.979  18.302  0.00  0.00    +0.000 HD
BRANCH  25  28
ATOM     28  C   UNL     1      -5.046  11.619  17.067  0.00  0.00    +0.000 C 
BRANCH  28  29
ATOM     29  C   UNL     1      -5.765  11.448  18.350  0.00  0.00    +0.000 A 
ATOM     30  C   UNL     1      -6.660  10.465  18.718  0.00  0.00    +0.000 A 
ATOM     31  N   UNL     1      -6.961  10.723  20.025  0.00  0.00    +0.000 N 
ATOM     32  C   UNL     1      -6.269  11.844  20.390  0.00  0.00    +0.000 A 
ATOM     33  N   UNL     1      -5.548  12.314  19.397  0.00  0.00    +0.000 NA
ATOM     34  H   UNL     1      -7.563  10.176  20.623  0.00  0.00    +0.000 HD
ENDBRANCH  28  29
ENDBRANCH  25  28
ENDBRANCH  22  24
ENDBRANCH   5  18
TORSDOF 5
ENDMDL
MODEL 5
REMARK VINA RESULT:      -8.5      2.311      4.043
REMARK  Name = 
REMARK  6 active torsions:
REMARK  status: ('A' for Active; 'I' for Inactive)
REMARK    1  A    between atoms: C_1  and  C_2
REMARK    2  A    between atoms: C_8  and  C_9
REMARK    3  A    between atoms: C_13  and  C_14
REMARK    4  A    between atoms: C_18  and  N_19
REMARK    5  A    between atoms: C_20  and  C_22
REMARK    6  A    between atoms: C_22  and  C_23
REMARK                            x       y       z     vdW  Elec       q    Type
REMARK                         _______ _______ _______ _____ _____    ______ ____
ROOT
ATOM      1  C   UNL     1       1.126  10.290  18.374  0.00  0.00    +0.000 A 
ATOM      2  C   UNL     1       1.833  11.471  18.608  0.00  0.00    +0.000 A 
ATOM      3  C   UNL     1       1.163  12.688  18.697  0.00  0.00    +0.000 A 
ATOM      4  C   UNL     1      -0.229  12.731  18.579  0.00  0.00    +0.000 A 
ATOM      5  C   UNL     1      -0.982  11.569  18.338  0.00  0.00    +0.000 A 
ATOM      6  C   UNL     1      -0.268  10.355  18.221  0.00  0.00    +0.000 A 
ENDROOT
BRANCH   1  14
ATOM      7  C   UNL     1       2.030   5.283  20.841  0.00  0.00    +0.000 C 
ATOM      8  C   UNL     1       2.747   5.738  19.607  0.00  0.00    +0.000 A 
ATOM      9  C   UNL     1       3.716   4.927  18.985  0.00  0.00    +0.000 A 
ATOM     10  C   UNL     1       4.406   5.341  17.840  0.00  0.00    +0.000 A 
ATOM     11  C   UNL     1       4.149   6.588  17.262  0.00  0.00    +0.000 A 
ATOM     12  C   UNL     1       3.180   7.409  17.849  0.00  0.00    +0.000 A 
ATOM     13  N   UNL     1       2.739   8.649  17.463  0.00  0.00    +0.000 NA
ATOM     14  C   UNL     1       1.844   9.016  18.360  0.00  0.00    +0.000 A 
ATOM     15  N   UNL     1       1.677   8.021  19.296  0.00  0.00    +0.000 N 
ATOM     16  C   UNL     1       2.519   6.979  18.994  0.00  0.00    +0.000 A 
ATOM     17  H   UNL     1       1.031   8.047  20.068  0.00  0.00    +0.000 HD
ENDBRANCH   1  14
BRANCH   5  18
ATOM     18  C   UNL     1      -2.464  11.603  18.239  0.00  0.00    +0.000 A 
ATOM     19  C   UNL     1      -3.113  11.271  17.035  0.00  0.00    +0.000 A 
ATOM     20  C   UNL     1      -4.498  11.332  16.916  0.00  0.00    +0.000 A 
ATOM     21  C   UNL     1      -5.276  11.716  18.004  0.00  0.00    +0.000 A 
ATOM     22  C   UNL     1      -4.684  12.033  19.225  0.00  0.00    +0.000 A 
ATOM     23  C   UNL     1      -3.283  11.968  19.332  0.00  0.00    +0.000 A 
BRANCH  22  24
ATOM     24  N   UNL     1      -5.425  12.419  20.365  0.00  0.00    +0.000 N 
ATOM     25  C   UNL     1      -5.786  13.711  20.720  0.00  0.00    +0.000 C 
ATOM     26  O   UNL     1      -5.510  14.744  20.103  0.00  0.00    +0.000 OA
ATOM     27  H   UNL     1      -5.766  11.674  20.962  0.00  0.00    +0.000 HD
BRANCH  25  28
ATOM     28  C   UNL     1      -6.589  13.794  22.004  0.00  0.00    +0.000 C 
BRANCH  28  29
ATOM     29  C   UNL     1      -5.816  13.191  23.113  0.00  0.00    +0.000 A 
ATOM     30  C   UNL     1      -6.277  12.565  24.252  0.00  0.00    +0.000 A 
ATOM     31  N   UNL     1      -5.159  12.120  24.896  0.00  0.00    +0.000 N 
ATOM     32  C   UNL     1      -4.078  12.503  24.153  0.00  0.00    +0.000 A 
ATOM     33  N   UNL     1      -4.441  13.163  23.076  0.00  0.00    +0.000 NA
ATOM     34  H   UNL     1      -5.131  11.585  25.753  0.00  0.00    +0.000 HD
ENDBRANCH  28  29
ENDBRANCH  25  28
ENDBRANCH  22  24
ENDBRANCH   5  18
TORSDOF 5
ENDMDL
MODEL 6
REMARK VINA RESULT:      -8.4      2.267      3.361
REMARK  Name = 
REMARK  6 active torsions:
REMARK  status: ('A' for Active; 'I' for Inactive)
REMARK    1  A    between atoms: C_1  and  C_2
REMARK    2  A    between atoms: C_8  and  C_9
REMARK    3  A    between atoms: C_13  and  C_14
REMARK    4  A    between atoms: C_18  and  N_19
REMARK    5  A    between atoms: C_20  and  C_22
REMARK    6  A    between atoms: C_22  and  C_23
REMARK                            x       y       z     vdW  Elec       q    Type
REMARK                         _______ _______ _______ _____ _____    ______ ____
ROOT
ATOM      1  C   UNL     1       1.062   9.197  18.804  0.00  0.00    +0.000 A 
ATOM      2  C   UNL     1       1.104   9.806  20.060  0.00  0.00    +0.000 A 
ATOM      3  C   UNL     1       0.096  10.684  20.451  0.00  0.00    +0.000 A 
ATOM      4  C   UNL     1      -0.979  10.941  19.597  0.00  0.00    +0.000 A 
ATOM      5  C   UNL     1      -1.060  10.356  18.321  0.00  0.00    +0.000 A 
ATOM      6  C   UNL     1      -0.006   9.495  17.943  0.00  0.00    +0.000 A 
ENDROOT
BRANCH   1  14
ATOM      7  C   UNL     1       3.590   4.273  19.958  0.00  0.00    +0.000 C 
ATOM      8  C   UNL     1       3.998   5.166  18.827  0.00  0.00    +0.000 A 
ATOM      9  C   UNL     1       5.065   4.824  17.975  0.00  0.00    +0.000 A 
ATOM     10  C   UNL     1       5.470   5.653  16.922  0.00  0.00    +0.000 A 
ATOM     11  C   UNL     1       4.815   6.861  16.671  0.00  0.00    +0.000 A 
ATOM     12  C   UNL     1       3.740   7.221  17.492  0.00  0.00    +0.000 A 
ATOM     13  N   UNL     1       2.935   8.330  17.437  0.00  0.00    +0.000 NA
ATOM     14  C   UNL     1       2.092   8.222  18.446  0.00  0.00    +0.000 A 
ATOM     15  N   UNL     1       2.319   7.048  19.128  0.00  0.00    +0.000 N 
ATOM     16  C   UNL     1       3.367   6.386  18.539  0.00  0.00    +0.000 A 
ATOM     17  H   UNL     1       1.790   6.721  19.921  0.00  0.00    +0.000 HD
ENDBRANCH   1  14
BRANCH   5  18
ATOM     18  C   UNL     1      -2.213  10.604  17.418  0.00  0.00    +0.000 A 
ATOM     19  C   UNL     1      -2.244  10.059  16.121  0.00  0.00    +0.000 A 
ATOM     20  C   UNL     1      -3.299  10.311  15.251  0.00  0.00    +0.000 A 
ATOM     21  C   UNL     1      -4.364  11.108  15.659  0.00  0.00    +0.000 A 
ATOM     22  C   UNL     1      -4.394  11.654  16.941  0.00  0.00    +0.000 A 
ATOM     23  C   UNL     1      -3.320  11.392  17.810  0.00  0.00    +0.000 A 
BRANCH  22  24
ATOM     24  N   UNL     1      -5.454  12.463  17.411  0.00  0.00    +0.000 N 
ATOM     25  C   UNL     1      -6.639  12.025  17.986  0.00  0.00    +0.000 C 
ATOM     26  O   UNL     1      -6.970  10.852  18.174  0.00  0.00    +0.000 OA
ATOM     27  H   UNL     1      -5.318  13.467  17.364  0.00  0.00    +0.000 HD
BRANCH  25  28
ATOM     28  C   UNL     1      -7.575  13.146  18.393  0.00  0.00    +0.000 C 
BRANCH  28  29
ATOM     29  C   UNL     1      -7.308  14.342  17.562  0.00  0.00    +0.000 A 
ATOM     30  C   UNL     1      -7.598  14.556  16.231  0.00  0.00    +0.000 A 
ATOM     31  N   UNL     1      -7.222  15.844  15.983  0.00  0.00    +0.000 N 
ATOM     32  C   UNL     1      -6.707  16.351  17.144  0.00  0.00    +0.000 A 
ATOM     33  N   UNL     1      -6.732  15.463  18.113  0.00  0.00    +0.000 NA
ATOM     34  H   UNL     1      -7.325  16.345  15.112  0.00  0.00    +0.000 HD
ENDBRANCH  28  29
ENDBRANCH  25  28
ENDBRANCH  22  24
ENDBRANCH   5  18
TORSDOF 5
ENDMDL
MODEL 7
REMARK VINA RESULT:      -8.3      2.094      2.971
REMARK  Name = 
REMARK  6 active torsions:
REMARK  status: ('A' for Active; 'I' for Inactive)
REMARK    1  A    between atoms: C_1  and  C_2
REMARK    2  A    between atoms: C_8  and  C_9
REMARK    3  A    between atoms: C_13  and  C_14
REMARK    4  A    between atoms: C_18  and  N_19
REMARK    5  A    between atoms: C_20  and  C_22
REMARK    6  A    between atoms: C_22  and  C_23
REMARK                            x       y       z     vdW  Elec       q    Type
REMARK                         _______ _______ _______ _____ _____    ______ ____
ROOT
ATOM      1  C   UNL     1       1.471   8.583  18.742  0.00  0.00    +0.000 A 
ATOM      2  C   UNL     1       1.582   8.950  20.084  0.00  0.00    +0.000 A 
ATOM      3  C   UNL     1       0.616   9.759  20.676  0.00  0.00    +0.000 A 
ATOM      4  C   UNL     1      -0.487  10.188  19.935  0.00  0.00    +0.000 A 
ATOM      5  C   UNL     1      -0.639   9.849  18.579  0.00  0.00    +0.000 A 
ATOM      6  C   UNL     1       0.375   9.053  18.000  0.00  0.00    +0.000 A 
ENDROOT
BRANCH   1  14
ATOM      7  C   UNL     1       3.367   3.279  18.248  0.00  0.00    +0.000 C 
ATOM      8  C   UNL     1       4.019   4.454  17.588  0.00  0.00    +0.000 A 
ATOM      9  C   UNL     1       5.173   4.299  16.796  0.00  0.00    +0.000 A 
ATOM     10  C   UNL     1       5.804   5.387  16.182  0.00  0.00    +0.000 A 
ATOM     11  C   UNL     1       5.299   6.682  16.330  0.00  0.00    +0.000 A 
ATOM     12  C   UNL     1       4.144   6.866  17.098  0.00  0.00    +0.000 A 
ATOM     13  N   UNL     1       3.453   8.018  17.371  0.00  0.00    +0.000 NA
ATOM     14  C   UNL     1       2.458   7.670  18.164  0.00  0.00    +0.000 A 
ATOM     15  N   UNL     1       2.477   6.312  18.378  0.00  0.00    +0.000 N 
ATOM     16  C   UNL     1       3.545   5.770  17.707  0.00  0.00    +0.000 A 
ATOM     17  H   UNL     1       1.806   5.796  18.927  0.00  0.00    +0.000 HD
ENDBRANCH   1  14
BRANCH   5  18
ATOM     18  C   UNL     1      -1.823  10.279  17.791  0.00  0.00    +0.000 A 
ATOM     19  C   UNL     1      -2.016   9.825  16.474  0.00  0.00    +0.000 A 
ATOM     20  C   UNL     1      -3.100  10.246  15.711  0.00  0.00    +0.000 A 
ATOM     21  C   UNL     1      -4.032  11.128  16.251  0.00  0.00    +0.000 A 
ATOM     22  C   UNL     1      -3.899  11.591  17.559  0.00  0.00    +0.000 A 
ATOM     23  C   UNL     1      -2.798  11.157  18.318  0.00  0.00    +0.000 A 
BRANCH  22  24
ATOM     24  N   UNL     1      -4.820  12.479  18.160  0.00  0.00    +0.000 N 
ATOM     25  C   UNL     1      -6.125  12.192  18.533  0.00  0.00    +0.000 C 
ATOM     26  O   UNL     1      -6.706  11.113  18.392  0.00  0.00    +0.000 OA
ATOM     27  H   UNL     1      -4.479  13.408  18.383  0.00  0.00    +0.000 HD
BRANCH  25  28
ATOM     28  C   UNL     1      -6.856  13.363  19.162  0.00  0.00    +0.000 C 
BRANCH  28  29
ATOM     29  C   UNL     1      -6.952  14.471  18.184  0.00  0.00    +0.000 A 
ATOM     30  C   UNL     1      -6.863  15.830  18.402  0.00  0.00    +0.000 A 
ATOM     31  N   UNL     1      -6.933  16.399  17.164  0.00  0.00    +0.000 N 
ATOM     32  C   UNL     1      -7.081  15.387  16.256  0.00  0.00    +0.000 A 
ATOM     33  N   UNL     1      -7.109  14.211  16.843  0.00  0.00    +0.000 NA
ATOM     34  H   UNL     1      -6.864  17.383  16.948  0.00  0.00    +0.000 HD
ENDBRANCH  28  29
ENDBRANCH  25  28
ENDBRANCH  22  24
ENDBRANCH   5  18
TORSDOF 5
ENDMDL
MODEL 8
REMARK VINA RESULT:      -8.3      3.261     10.549
REMARK  Name = 
REMARK  6 active torsions:
REMARK  status: ('A' for Active; 'I' for Inactive)
REMARK    1  A    between atoms: C_1  and  C_2
REMARK    2  A    between atoms: C_8  and  C_9
REMARK    3  A    between atoms: C_13  and  C_14
REMARK    4  A    between atoms: C_18  and  N_19
REMARK    5  A    between atoms: C_20  and  C_22
REMARK    6  A    between atoms: C_22  and  C_23
REMARK                            x       y       z     vdW  Elec       q    Type
REMARK                         _______ _______ _______ _____ _____    ______ ____
ROOT
ATOM      1  C   UNL     1       0.285  10.596  19.903  0.00  0.00    +0.000 A 
ATOM      2  C   UNL     1       0.749  11.312  18.797  0.00  0.00    +0.000 A 
ATOM      3  C   UNL     1       1.697  10.753  17.944  0.00  0.00    +0.000 A 
ATOM      4  C   UNL     1       2.171   9.460  18.175  0.00  0.00    +0.000 A 
ATOM      5  C   UNL     1       1.738   8.704  19.278  0.00  0.00    +0.000 A 
ATOM      6  C   UNL     1       0.799   9.312  20.142  0.00  0.00    +0.000 A 
ENDROOT
BRANCH   1  14
ATOM      7  C   UNL     1      -4.680  13.289  20.169  0.00  0.00    +0.000 C 
ATOM      8  C   UNL     1      -3.886  12.898  21.377  0.00  0.00    +0.000 A 
ATOM      9  C   UNL     1      -4.340  13.195  22.677  0.00  0.00    +0.000 A 
ATOM     10  C   UNL     1      -3.605  12.850  23.817  0.00  0.00    +0.000 A 
ATOM     11  C   UNL     1      -2.383  12.183  23.705  0.00  0.00    +0.000 A 
ATOM     12  C   UNL     1      -1.913  11.860  22.426  0.00  0.00    +0.000 A 
ATOM     13  N   UNL     1      -0.769  11.198  22.060  0.00  0.00    +0.000 NA
ATOM     14  C   UNL     1      -0.765  11.174  20.741  0.00  0.00    +0.000 A 
ATOM     15  N   UNL     1      -1.901  11.778  20.254  0.00  0.00    +0.000 N 
ATOM     16  C   UNL     1      -2.656  12.226  21.310  0.00  0.00    +0.000 A 
ATOM     17  H   UNL     1      -2.147  11.863  19.280  0.00  0.00    +0.000 HD
ENDBRANCH   1  14
BRANCH   5  18
ATOM     18  C   UNL     1       2.217   7.318  19.515  0.00  0.00    +0.000 A 
ATOM     19  C   UNL     1       1.591   6.491  20.466  0.00  0.00    +0.000 A 
ATOM     20  C   UNL     1       2.050   5.204  20.725  0.00  0.00    +0.000 A 
ATOM     21  C   UNL     1       3.146   4.701  20.028  0.00  0.00    +0.000 A 
ATOM     22  C   UNL     1       3.787   5.471  19.060  0.00  0.00    +0.000 A 
ATOM     23  C   UNL     1       3.313   6.770  18.808  0.00  0.00    +0.000 A 
BRANCH  22  24
ATOM     24  N   UNL     1       4.896   5.007  18.316  0.00  0.00    +0.000 N 
ATOM     25  C   UNL     1       6.225   5.013  18.718  0.00  0.00    +0.000 C 
ATOM     26  O   UNL     1       6.662   5.434  19.792  0.00  0.00    +0.000 OA
ATOM     27  H   UNL     1       4.698   4.587  17.415  0.00  0.00    +0.000 HD
BRANCH  25  28
ATOM     28  C   UNL     1       7.180   4.439  17.691  0.00  0.00    +0.000 C 
BRANCH  28  29
ATOM     29  C   UNL     1       6.601   4.588  16.336  0.00  0.00    +0.000 A 
ATOM     30  C   UNL     1       6.294   3.612  15.412  0.00  0.00    +0.000 A 
ATOM     31  N   UNL     1       5.711   4.273  14.370  0.00  0.00    +0.000 N 
ATOM     32  C   UNL     1       5.703   5.603  14.682  0.00  0.00    +0.000 A 
ATOM     33  N   UNL     1       6.246   5.828  15.858  0.00  0.00    +0.000 NA
ATOM     34  H   UNL     1       5.330   3.858  13.531  0.00  0.00    +0.000 HD
ENDBRANCH  28  29
ENDBRANCH  25  28
ENDBRANCH  22  24
ENDBRANCH   5  18
TORSDOF 5
ENDMDL
MODEL 9
REMARK VINA RESULT:      -8.3      3.639     10.172
REMARK  Name = 
REMARK  6 active torsions:
REMARK  status: ('A' for Active; 'I' for Inactive)
REMARK    1  A    between atoms: C_1  and  C_2
REMARK    2  A    between atoms: C_8  and  C_9
REMARK    3  A    between atoms: C_13  and  C_14
REMARK    4  A    between atoms: C_18  and  N_19
REMARK    5  A    between atoms: C_20  and  C_22
REMARK    6  A    between atoms: C_22  and  C_23
REMARK                            x       y       z     vdW  Elec       q    Type
REMARK                         _______ _______ _______ _____ _____    ______ ____
ROOT
ATOM      1  C   UNL     1      -0.841  11.324  21.788  0.00  0.00    +0.000 A 
ATOM      2  C   UNL     1      -0.877  10.746  23.059  0.00  0.00    +0.000 A 
ATOM      3  C   UNL     1      -0.226   9.540  23.304  0.00  0.00    +0.000 A 
ATOM      4  C   UNL     1       0.491   8.912  22.282  0.00  0.00    +0.000 A 
ATOM      5  C   UNL     1       0.551   9.453  20.987  0.00  0.00    +0.000 A 
ATOM      6  C   UNL     1      -0.147  10.662  20.763  0.00  0.00    +0.000 A 
ENDROOT
BRANCH   1  14
ATOM      7  C   UNL     1      -0.574  16.418  19.350  0.00  0.00    +0.000 C 
ATOM      8  C   UNL     1      -1.700  15.985  20.239  0.00  0.00    +0.000 A 
ATOM      9  C   UNL     1      -2.774  16.848  20.529  0.00  0.00    +0.000 A 
ATOM     10  C   UNL     1      -3.827  16.466  21.368  0.00  0.00    +0.000 A 
ATOM     11  C   UNL     1      -3.854  15.195  21.949  0.00  0.00    +0.000 A 
ATOM     12  C   UNL     1      -2.807  14.310  21.666  0.00  0.00    +0.000 A 
ATOM     13  N   UNL     1      -2.619  13.020  22.090  0.00  0.00    +0.000 NA
ATOM     14  C   UNL     1      -1.469  12.628  21.576  0.00  0.00    +0.000 A 
ATOM     15  N   UNL     1      -0.932  13.630  20.802  0.00  0.00    +0.000 N 
ATOM     16  C   UNL     1      -1.767  14.719  20.840  0.00  0.00    +0.000 A 
ATOM     17  H   UNL     1      -0.071  13.569  20.280  0.00  0.00    +0.000 HD
ENDBRANCH   1  14
BRANCH   5  18
ATOM     18  C   UNL     1       1.334   8.805  19.902  0.00  0.00    +0.000 A 
ATOM     19  C   UNL     1       1.525   9.451  18.667  0.00  0.00    +0.000 A 
ATOM     20  C   UNL     1       2.225   8.843  17.630  0.00  0.00    +0.000 A 
ATOM     21  C   UNL     1       2.766   7.572  17.804  0.00  0.00    +0.000 A 
ATOM     22  C   UNL     1       2.625   6.899  19.017  0.00  0.00    +0.000 A 
ATOM     23  C   UNL     1       1.914   7.525  20.056  0.00  0.00    +0.000 A 
BRANCH  22  24
ATOM     24  N   UNL     1       3.161   5.612  19.252  0.00  0.00    +0.000 N 
ATOM     25  C   UNL     1       4.489   5.231  19.122  0.00  0.00    +0.000 C 
ATOM     26  O   UNL     1       5.425   5.952  18.768  0.00  0.00    +0.000 OA
ATOM     27  H   UNL     1       2.518   4.905  19.593  0.00  0.00    +0.000 HD
BRANCH  25  28
ATOM     28  C   UNL     1       4.746   3.775  19.454  0.00  0.00    +0.000 C 
BRANCH  28  29
ATOM     29  C   UNL     1       3.555   2.968  19.101  0.00  0.00    +0.000 A 
ATOM     30  C   UNL     1       3.333   2.195  17.981  0.00  0.00    +0.000 A 
ATOM     31  N   UNL     1       2.122   1.600  18.189  0.00  0.00    +0.000 N 
ATOM     32  C   UNL     1       1.651   2.040  19.394  0.00  0.00    +0.000 A 
ATOM     33  N   UNL     1       2.488   2.878  19.964  0.00  0.00    +0.000 NA
ATOM     34  H   UNL     1       1.665   0.937  17.579  0.00  0.00    +0.000 HD
ENDBRANCH  28  29
ENDBRANCH  25  28
ENDBRANCH  22  24
ENDBRANCH   5  18
TORSDOF 5
ENDMDL
