MODEL 1
REMARK VINA RESULT:      -6.7      0.000      0.000
REMARK  Name = 
REMARK  11 active torsions:
REMARK  status: ('A' for Active; 'I' for Inactive)
REMARK    1  A    between atoms: C_1  and  N_2
REMARK    2  A    between atoms: N_2  and  C_3
REMARK    3  A    between atoms: N_2  and  C_4
REMARK    4  A    between atoms: N_2  and  C_5
REMARK    5  A    between atoms: C_5  and  C_6
REMARK    6  A    between atoms: C_6  and  O_7
REMARK    7  A    between atoms: O_7  and  C_8
REMARK    8  A    between atoms: C_8  and  C_9
REMARK    9  A    between atoms: C_9  and  O_10
REMARK   10  A    between atoms: C_9  and  C_11
REMARK   11  A    between atoms: C_9  and  C_17
REMARK                            x       y       z     vdW  Elec       q    Type
REMARK                         _______ _______ _______ _____ _____    ______ ____
ROOT
ATOM      1  C   UNL     1       3.072   6.395  18.911  0.00  0.00    +0.000 C 
ENDROOT
BRANCH   1   2
ATOM      2  C   UNL     1       2.185   7.638  19.063  0.00  0.00    +0.000 A 
ATOM      3  C   UNL     1       1.696   7.996  20.341  0.00  0.00    +0.000 A 
ATOM      4  C   UNL     1       0.872   9.112  20.504  0.00  0.00    +0.000 A 
ATOM      5  C   UNL     1       0.515   9.885  19.399  0.00  0.00    +0.000 A 
ATOM      6  C   UNL     1       0.985   9.548  18.129  0.00  0.00    +0.000 A 
ATOM      7  C   UNL     1       1.815   8.436  17.960  0.00  0.00    +0.000 A 
ENDBRANCH   1   2
BRANCH   1   8
ATOM      8  C   UNL     1       2.222   5.139  19.113  0.00  0.00    +0.000 A 
ATOM      9  C   UNL     1       1.750   4.712  20.380  0.00  0.00    +0.000 A 
ATOM     10  C   UNL     1       0.983   3.552  20.500  0.00  0.00    +0.000 A 
ATOM     11  C   UNL     1       0.674   2.793  19.371  0.00  0.00    +0.000 A 
ATOM     12  C   UNL     1       1.134   3.196  18.116  0.00  0.00    +0.000 A 
ATOM     13  C   UNL     1       1.898   4.358  17.987  0.00  0.00    +0.000 A 
ENDBRANCH   1   8
BRANCH   1  14
ATOM     14  O   UNL     1       4.085   6.375  19.901  0.00  0.00    +0.000 OA
ATOM     15  H   UNL     1       4.954   6.604  19.483  0.00  0.00    +0.000 HD
ENDBRANCH   1  14
BRANCH   1  16
ATOM     16  C   UNL     1       3.738   6.461  17.519  0.00  0.00    +0.000 C 
BRANCH  16  17
ATOM     17  O   UNL     1       4.867   7.317  17.552  0.00  0.00    +0.000 OA
BRANCH  17  18
ATOM     18  C   UNL     1       5.954   6.737  16.855  0.00  0.00    +0.000 C 
BRANCH  18  19
ATOM     19  C   UNL     1       5.445   5.815  15.720  0.00  0.00    +0.000 C 
BRANCH  19  21
ATOM     20  C   UNL     1       7.260   4.464  16.488  0.00  0.00    +0.000 C 
ATOM     21  N   UNL     1       6.012   4.439  15.683  0.00  0.00    +0.000 N 
ATOM     22  C   UNL     1       6.360   4.041  14.296  0.00  0.00    +0.000 C 
ATOM     23  C   UNL     1       5.084   3.451  16.271  0.00  0.00    +0.000 C 
ENDBRANCH  19  21
ENDBRANCH  18  19
ENDBRANCH  17  18
ENDBRANCH  16  17
ENDBRANCH   1  16
TORSDOF 8
ENDMDL
MODEL 2
REMARK VINA RESULT:      -6.7      0.082      1.712
REMARK  Name = 
REMARK  11 active torsions:
REMARK  status: ('A' for Active; 'I' for Inactive)
REMARK    1  A    between atoms: C_1  and  N_2
REMARK    2  A    between atoms: N_2  and  C_3
REMARK    3  A    between atoms: N_2  and  C_4
REMARK    4  A    between atoms: N_2  and  C_5
REMARK    5  A    between atoms: C_5  and  C_6
REMARK    6  A    between atoms: C_6  and  O_7
REMARK    7  A    between atoms: O_7  and  C_8
REMARK    8  A    between atoms: C_8  and  C_9
REMARK    9  A    between atoms: C_9  and  O_10
REMARK   10  A    between atoms: C_9  and  C_11
REMARK   11  A    between atoms: C_9  and  C_17
REMARK                            x       y       z     vdW  Elec       q    Type
REMARK                         _______ _______ _______ _____ _____    ______ ____
ROOT
ATOM      1  C   UNL     1       3.107   6.382  18.899  0.00  0.00    +0.000 C 
ENDROOT
BRANCH   1   2
ATOM      2  C   UNL     1       2.200   7.608  19.070  0.00  0.00    +0.000 A 
ATOM      3  C   UNL     1       1.854   8.386  17.940  0.00  0.00    +0.000 A 
ATOM      4  C   UNL     1       1.046   9.518  18.073  0.00  0.00    +0.000 A 
ATOM      5  C   UNL     1       0.576   9.898  19.330  0.00  0.00    +0.000 A 
ATOM      6  C   UNL     1       0.907   9.146  20.457  0.00  0.00    +0.000 A 
ATOM      7  C   UNL     1       1.710   8.009  20.331  0.00  0.00    +0.000 A 
ENDBRANCH   1   2
BRANCH   1   8
ATOM      8  C   UNL     1       2.271   5.109  19.053  0.00  0.00    +0.000 A 
ATOM      9  C   UNL     1       1.863   4.307  17.957  0.00  0.00    +0.000 A 
ATOM     10  C   UNL     1       1.094   3.159  18.163  0.00  0.00    +0.000 A 
ATOM     11  C   UNL     1       0.713   2.791  19.453  0.00  0.00    +0.000 A 
ATOM     12  C   UNL     1       1.102   3.571  20.543  0.00  0.00    +0.000 A 
ATOM     13  C   UNL     1       1.875   4.718  20.346  0.00  0.00    +0.000 A 
ENDBRANCH   1   8
BRANCH   1  14
ATOM     14  O   UNL     1       4.104   6.349  19.904  0.00  0.00    +0.000 OA
ATOM     15  H   UNL     1       3.730   6.715  20.746  0.00  0.00    +0.000 HD
ENDBRANCH   1  14
BRANCH   1  16
ATOM     16  C   UNL     1       3.793   6.494  17.520  0.00  0.00    +0.000 C 
BRANCH  16  17
ATOM     17  O   UNL     1       4.963   7.288  17.614  0.00  0.00    +0.000 OA
BRANCH  17  18
ATOM     18  C   UNL     1       5.967   6.802  16.743  0.00  0.00    +0.000 C 
BRANCH  18  19
ATOM     19  C   UNL     1       5.380   5.760  15.760  0.00  0.00    +0.000 C 
BRANCH  19  21
ATOM     20  C   UNL     1       5.089   3.453  16.311  0.00  0.00    +0.000 C 
ATOM     21  N   UNL     1       6.047   4.429  15.731  0.00  0.00    +0.000 N 
ATOM     22  C   UNL     1       7.275   4.429  16.565  0.00  0.00    +0.000 C 
ATOM     23  C   UNL     1       6.376   4.014  14.352  0.00  0.00    +0.000 C 
ENDBRANCH  19  21
ENDBRANCH  18  19
ENDBRANCH  17  18
ENDBRANCH  16  17
ENDBRANCH   1  16
TORSDOF 8
ENDMDL
MODEL 3
REMARK VINA RESULT:      -6.7      2.582      6.356
REMARK  Name = 
REMARK  11 active torsions:
REMARK  status: ('A' for Active; 'I' for Inactive)
REMARK    1  A    between atoms: C_1  and  N_2
REMARK    2  A    between atoms: N_2  and  C_3
REMARK    3  A    between atoms: N_2  and  C_4
REMARK    4  A    between atoms: N_2  and  C_5
REMARK    5  A    between atoms: C_5  and  C_6
REMARK    6  A    between atoms: C_6  and  O_7
REMARK    7  A    between atoms: O_7  and  C_8
REMARK    8  A    between atoms: C_8  and  C_9
REMARK    9  A    between atoms: C_9  and  O_10
REMARK   10  A    between atoms: C_9  and  C_11
REMARK   11  A    between atoms: C_9  and  C_17
REMARK                            x       y       z     vdW  Elec       q    Type
REMARK                         _______ _______ _______ _____ _____    ______ ____
ROOT
ATOM      1  C   UNL     1       3.035   6.120  18.909  0.00  0.00    +0.000 C 
ENDROOT
BRANCH   1   2
ATOM      2  C   UNL     1       2.378   4.735  18.829  0.00  0.00    +0.000 A 
ATOM      3  C   UNL     1       1.488   4.323  19.849  0.00  0.00    +0.000 A 
ATOM      4  C   UNL     1       0.892   3.060  19.809  0.00  0.00    +0.000 A 
ATOM      5  C   UNL     1       1.176   2.185  18.760  0.00  0.00    +0.000 A 
ATOM      6  C   UNL     1       2.052   2.572  17.745  0.00  0.00    +0.000 A 
ATOM      7  C   UNL     1       2.648   3.837  17.776  0.00  0.00    +0.000 A 
ENDBRANCH   1   2
BRANCH   1   8
ATOM      8  C   UNL     1       4.479   6.024  18.411  0.00  0.00    +0.000 A 
ATOM      9  C   UNL     1       4.909   6.543  17.164  0.00  0.00    +0.000 A 
ATOM     10  C   UNL     1       6.240   6.418  16.762  0.00  0.00    +0.000 A 
ATOM     11  C   UNL     1       7.165   5.774  17.585  0.00  0.00    +0.000 A 
ATOM     12  C   UNL     1       6.758   5.254  18.814  0.00  0.00    +0.000 A 
ATOM     13  C   UNL     1       5.429   5.379  19.225  0.00  0.00    +0.000 A 
ENDBRANCH   1   8
BRANCH   1  14
ATOM     14  O   UNL     1       3.086   6.575  20.249  0.00  0.00    +0.000 OA
ATOM     15  H   UNL     1       2.174   6.826  20.544  0.00  0.00    +0.000 HD
ENDBRANCH   1  14
BRANCH   1  16
ATOM     16  C   UNL     1       2.172   7.098  18.083  0.00  0.00    +0.000 C 
BRANCH  16  17
ATOM     17  O   UNL     1       2.082   8.352  18.739  0.00  0.00    +0.000 OA
BRANCH  17  18
ATOM     18  C   UNL     1       1.606   9.346  17.851  0.00  0.00    +0.000 C 
BRANCH  18  19
ATOM     19  C   UNL     1       1.263  10.646  18.620  0.00  0.00    +0.000 C 
BRANCH  19  21
ATOM     20  C   UNL     1      -0.476  10.368  20.235  0.00  0.00    +0.000 C 
ATOM     21  N   UNL     1      -0.181  10.899  18.879  0.00  0.00    +0.000 N 
ATOM     22  C   UNL     1      -1.035  10.179  17.901  0.00  0.00    +0.000 C 
ATOM     23  C   UNL     1      -0.495  12.343  18.853  0.00  0.00    +0.000 C 
ENDBRANCH  19  21
ENDBRANCH  18  19
ENDBRANCH  17  18
ENDBRANCH  16  17
ENDBRANCH   1  16
TORSDOF 8
ENDMDL
MODEL 4
REMARK VINA RESULT:      -6.7      1.218      4.056
REMARK  Name = 
REMARK  11 active torsions:
REMARK  status: ('A' for Active; 'I' for Inactive)
REMARK    1  A    between atoms: C_1  and  N_2
REMARK    2  A    between atoms: N_2  and  C_3
REMARK    3  A    between atoms: N_2  and  C_4
REMARK    4  A    between atoms: N_2  and  C_5
REMARK    5  A    between atoms: C_5  and  C_6
REMARK    6  A    between atoms: C_6  and  O_7
REMARK    7  A    between atoms: O_7  and  C_8
REMARK    8  A    between atoms: C_8  and  C_9
REMARK    9  A    between atoms: C_9  and  O_10
REMARK   10  A    between atoms: C_9  and  C_11
REMARK   11  A    between atoms: C_9  and  C_17
REMARK                            x       y       z     vdW  Elec       q    Type
REMARK                         _______ _______ _______ _____ _____    ______ ____
ROOT
ATOM      1  C   UNL     1       3.168   5.754  18.852  0.00  0.00    +0.000 C 
ENDROOT
BRANCH   1   2
ATOM      2  C   UNL     1       2.421   4.674  19.648  0.00  0.00    +0.000 A 
ATOM      3  C   UNL     1       2.801   4.399  20.983  0.00  0.00    +0.000 A 
ATOM      4  C   UNL     1       2.149   3.409  21.721  0.00  0.00    +0.000 A 
ATOM      5  C   UNL     1       1.115   2.672  21.144  0.00  0.00    +0.000 A 
ATOM      6  C   UNL     1       0.726   2.925  19.828  0.00  0.00    +0.000 A 
ATOM      7  C   UNL     1       1.370   3.919  19.085  0.00  0.00    +0.000 A 
ENDBRANCH   1   2
BRANCH   1   8
ATOM      8  C   UNL     1       2.447   7.093  19.018  0.00  0.00    +0.000 A 
ATOM      9  C   UNL     1       1.886   7.531  20.245  0.00  0.00    +0.000 A 
ATOM     10  C   UNL     1       1.235   8.762  20.330  0.00  0.00    +0.000 A 
ATOM     11  C   UNL     1       1.122   9.578  19.204  0.00  0.00    +0.000 A 
ATOM     12  C   UNL     1       1.665   9.161  17.987  0.00  0.00    +0.000 A 
ATOM     13  C   UNL     1       2.323   7.933  17.894  0.00  0.00    +0.000 A 
ENDBRANCH   1   8
BRANCH   1  14
ATOM     14  O   UNL     1       3.168   5.449  17.469  0.00  0.00    +0.000 OA
ATOM     15  H   UNL     1       3.640   6.168  16.977  0.00  0.00    +0.000 HD
ENDBRANCH   1  14
BRANCH   1  16
ATOM     16  C   UNL     1       4.627   5.783  19.356  0.00  0.00    +0.000 C 
BRANCH  16  17
ATOM     17  O   UNL     1       5.412   4.836  18.651  0.00  0.00    +0.000 OA
BRANCH  17  18
ATOM     18  C   UNL     1       6.569   5.448  18.113  0.00  0.00    +0.000 C 
BRANCH  18  19
ATOM     19  C   UNL     1       7.083   4.660  16.884  0.00  0.00    +0.000 C 
BRANCH  19  21
ATOM     20  C   UNL     1       5.406   3.748  15.447  0.00  0.00    +0.000 C 
ATOM     21  N   UNL     1       6.354   4.881  15.605  0.00  0.00    +0.000 N 
ATOM     22  C   UNL     1       7.285   4.874  14.450  0.00  0.00    +0.000 C 
ATOM     23  C   UNL     1       5.588   6.145  15.625  0.00  0.00    +0.000 C 
ENDBRANCH  19  21
ENDBRANCH  18  19
ENDBRANCH  17  18
ENDBRANCH  16  17
ENDBRANCH   1  16
TORSDOF 8
ENDMDL
MODEL 5
REMARK VINA RESULT:      -6.7      2.633      6.331
REMARK  Name = 
REMARK  11 active torsions:
REMARK  status: ('A' for Active; 'I' for Inactive)
REMARK    1  A    between atoms: C_1  and  N_2
REMARK    2  A    between atoms: N_2  and  C_3
REMARK    3  A    between atoms: N_2  and  C_4
REMARK    4  A    between atoms: N_2  and  C_5
REMARK    5  A    between atoms: C_5  and  C_6
REMARK    6  A    between atoms: C_6  and  O_7
REMARK    7  A    between atoms: O_7  and  C_8
REMARK    8  A    between atoms: C_8  and  C_9
REMARK    9  A    between atoms: C_9  and  O_10
REMARK   10  A    between atoms: C_9  and  C_11
REMARK   11  A    between atoms: C_9  and  C_17
REMARK                            x       y       z     vdW  Elec       q    Type
REMARK                         _______ _______ _______ _____ _____    ______ ____
ROOT
ATOM      1  C   UNL     1       3.019   6.179  18.941  0.00  0.00    +0.000 C 
ENDROOT
BRANCH   1   2
ATOM      2  C   UNL     1       2.368   4.793  18.833  0.00  0.00    +0.000 A 
ATOM      3  C   UNL     1       1.475   4.359  19.841  0.00  0.00    +0.000 A 
ATOM      4  C   UNL     1       0.883   3.095  19.775  0.00  0.00    +0.000 A 
ATOM      5  C   UNL     1       1.177   2.240  18.712  0.00  0.00    +0.000 A 
ATOM      6  C   UNL     1       2.056   2.648  17.709  0.00  0.00    +0.000 A 
ATOM      7  C   UNL     1       2.647   3.914  17.765  0.00  0.00    +0.000 A 
ENDBRANCH   1   2
BRANCH   1   8
ATOM      8  C   UNL     1       4.483   6.085  18.508  0.00  0.00    +0.000 A 
ATOM      9  C   UNL     1       5.471   5.382  19.246  0.00  0.00    +0.000 A 
ATOM     10  C   UNL     1       6.793   5.338  18.801  0.00  0.00    +0.000 A 
ATOM     11  C   UNL     1       7.162   5.992  17.625  0.00  0.00    +0.000 A 
ATOM     12  C   UNL     1       6.204   6.691  16.889  0.00  0.00    +0.000 A 
ATOM     13  C   UNL     1       4.878   6.735  17.324  0.00  0.00    +0.000 A 
ENDBRANCH   1   8
BRANCH   1  14
ATOM     14  O   UNL     1       3.010   6.635  20.282  0.00  0.00    +0.000 OA
ATOM     15  H   UNL     1       3.567   7.452  20.352  0.00  0.00    +0.000 HD
ENDBRANCH   1  14
BRANCH   1  16
ATOM     16  C   UNL     1       2.191   7.155  18.077  0.00  0.00    +0.000 C 
BRANCH  16  17
ATOM     17  O   UNL     1       1.926   8.347  18.796  0.00  0.00    +0.000 OA
BRANCH  17  18
ATOM     18  C   UNL     1       1.615   9.406  17.910  0.00  0.00    +0.000 C 
BRANCH  18  19
ATOM     19  C   UNL     1       0.214   9.986  18.221  0.00  0.00    +0.000 C 
BRANCH  19  21
ATOM     20  C   UNL     1       1.519  11.876  18.878  0.00  0.00    +0.000 C 
ATOM     21  N   UNL     1       0.181  11.246  19.013  0.00  0.00    +0.000 N 
ATOM     22  C   UNL     1      -0.060  10.967  20.451  0.00  0.00    +0.000 C 
ATOM     23  C   UNL     1      -0.842  12.183  18.505  0.00  0.00    +0.000 C 
ENDBRANCH  19  21
ENDBRANCH  18  19
ENDBRANCH  17  18
ENDBRANCH  16  17
ENDBRANCH   1  16
TORSDOF 8
ENDMDL
MODEL 6
REMARK VINA RESULT:      -6.7      0.367      1.095
REMARK  Name = 
REMARK  11 active torsions:
REMARK  status: ('A' for Active; 'I' for Inactive)
REMARK    1  A    between atoms: C_1  and  N_2
REMARK    2  A    between atoms: N_2  and  C_3
REMARK    3  A    between atoms: N_2  and  C_4
REMARK    4  A    between atoms: N_2  and  C_5
REMARK    5  A    between atoms: C_5  and  C_6
REMARK    6  A    between atoms: C_6  and  O_7
REMARK    7  A    between atoms: O_7  and  C_8
REMARK    8  A    between atoms: C_8  and  C_9
REMARK    9  A    between atoms: C_9  and  O_10
REMARK   10  A    between atoms: C_9  and  C_11
REMARK   11  A    between atoms: C_9  and  C_17
REMARK                            x       y       z     vdW  Elec       q    Type
REMARK                         _______ _______ _______ _____ _____    ______ ____
ROOT
ATOM      1  C   UNL     1       3.118   6.327  18.965  0.00  0.00    +0.000 C 
ENDROOT
BRANCH   1   2
ATOM      2  C   UNL     1       2.228   7.570  19.100  0.00  0.00    +0.000 A 
ATOM      3  C   UNL     1       1.905   8.328  17.950  0.00  0.00    +0.000 A 
ATOM      4  C   UNL     1       1.112   9.474  18.049  0.00  0.00    +0.000 A 
ATOM      5  C   UNL     1       0.635   9.889  19.292  0.00  0.00    +0.000 A 
ATOM      6  C   UNL     1       0.943   9.157  20.439  0.00  0.00    +0.000 A 
ATOM      7  C   UNL     1       1.731   8.005  20.346  0.00  0.00    +0.000 A 
ENDBRANCH   1   2
BRANCH   1   8
ATOM      8  C   UNL     1       2.256   5.070  19.103  0.00  0.00    +0.000 A 
ATOM      9  C   UNL     1       1.734   4.615  20.341  0.00  0.00    +0.000 A 
ATOM     10  C   UNL     1       0.958   3.456  20.403  0.00  0.00    +0.000 A 
ATOM     11  C   UNL     1       0.691   2.726  19.244  0.00  0.00    +0.000 A 
ATOM     12  C   UNL     1       1.200   3.157  18.018  0.00  0.00    +0.000 A 
ATOM     13  C   UNL     1       1.973   4.319  17.947  0.00  0.00    +0.000 A 
ENDBRANCH   1   8
BRANCH   1  14
ATOM     14  O   UNL     1       4.083   6.285  20.001  0.00  0.00    +0.000 OA
ATOM     15  H   UNL     1       3.642   6.484  20.866  0.00  0.00    +0.000 HD
ENDBRANCH   1  14
BRANCH   1  16
ATOM     16  C   UNL     1       3.848   6.417  17.607  0.00  0.00    +0.000 C 
BRANCH  16  17
ATOM     17  O   UNL     1       4.958   7.294  17.700  0.00  0.00    +0.000 OA
BRANCH  17  18
ATOM     18  C   UNL     1       6.001   6.871  16.843  0.00  0.00    +0.000 C 
BRANCH  18  19
ATOM     19  C   UNL     1       5.489   5.805  15.843  0.00  0.00    +0.000 C 
BRANCH  19  21
ATOM     20  C   UNL     1       7.329   4.567  16.731  0.00  0.00    +0.000 C 
ATOM     21  N   UNL     1       6.398   4.657  15.577  0.00  0.00    +0.000 N 
ATOM     22  C   UNL     1       7.199   4.883  14.348  0.00  0.00    +0.000 C 
ATOM     23  C   UNL     1       5.653   3.386  15.465  0.00  0.00    +0.000 C 
ENDBRANCH  19  21
ENDBRANCH  18  19
ENDBRANCH  17  18
ENDBRANCH  16  17
ENDBRANCH   1  16
TORSDOF 8
ENDMDL
MODEL 7
REMARK VINA RESULT:      -6.6      2.509      6.301
REMARK  Name = 
REMARK  11 active torsions:
REMARK  status: ('A' for Active; 'I' for Inactive)
REMARK    1  A    between atoms: C_1  and  N_2
REMARK    2  A    between atoms: N_2  and  C_3
REMARK    3  A    between atoms: N_2  and  C_4
REMARK    4  A    between atoms: N_2  and  C_5
REMARK    5  A    between atoms: C_5  and  C_6
REMARK    6  A    between atoms: C_6  and  O_7
REMARK    7  A    between atoms: O_7  and  C_8
REMARK    8  A    between atoms: C_8  and  C_9
REMARK    9  A    between atoms: C_9  and  O_10
REMARK   10  A    between atoms: C_9  and  C_11
REMARK   11  A    between atoms: C_9  and  C_17
REMARK                            x       y       z     vdW  Elec       q    Type
REMARK                         _______ _______ _______ _____ _____    ______ ____
ROOT
ATOM      1  C   UNL     1       3.202   6.012  18.741  0.00  0.00    +0.000 C 
ENDROOT
BRANCH   1   2
ATOM      2  C   UNL     1       2.472   4.661  18.765  0.00  0.00    +0.000 A 
ATOM      3  C   UNL     1       1.517   4.400  19.774  0.00  0.00    +0.000 A 
ATOM      4  C   UNL     1       0.852   3.172  19.829  0.00  0.00    +0.000 A 
ATOM      5  C   UNL     1       1.133   2.183  18.887  0.00  0.00    +0.000 A 
ATOM      6  C   UNL     1       2.074   2.419  17.884  0.00  0.00    +0.000 A 
ATOM      7  C   UNL     1       2.738   3.648  17.820  0.00  0.00    +0.000 A 
ENDBRANCH   1   2
BRANCH   1   8
ATOM      8  C   UNL     1       4.605   5.818  18.161  0.00  0.00    +0.000 A 
ATOM      9  C   UNL     1       5.697   5.316  18.914  0.00  0.00    +0.000 A 
ATOM     10  C   UNL     1       6.956   5.168  18.330  0.00  0.00    +0.000 A 
ATOM     11  C   UNL     1       7.157   5.519  16.994  0.00  0.00    +0.000 A 
ATOM     12  C   UNL     1       6.094   6.018  16.240  0.00  0.00    +0.000 A 
ATOM     13  C   UNL     1       4.830   6.165  16.816  0.00  0.00    +0.000 A 
ENDBRANCH   1   8
BRANCH   1  14
ATOM     14  O   UNL     1       3.360   6.521  20.053  0.00  0.00    +0.000 OA
ATOM     15  H   UNL     1       4.286   6.346  20.361  0.00  0.00    +0.000 HD
ENDBRANCH   1  14
BRANCH   1  16
ATOM     16  C   UNL     1       2.338   6.998  17.925  0.00  0.00    +0.000 C 
BRANCH  16  17
ATOM     17  O   UNL     1       2.186   8.219  18.628  0.00  0.00    +0.000 OA
BRANCH  17  18
ATOM     18  C   UNL     1       1.505   9.171  17.832  0.00  0.00    +0.000 C 
BRANCH  18  19
ATOM     19  C   UNL     1       1.319  10.499  18.608  0.00  0.00    +0.000 C 
BRANCH  19  21
ATOM     20  C   UNL     1      -0.971  10.212  17.993  0.00  0.00    +0.000 C 
ATOM     21  N   UNL     1      -0.075  10.851  18.990  0.00  0.00    +0.000 N 
ATOM     22  C   UNL     1      -0.290  12.319  18.936  0.00  0.00    +0.000 C 
ATOM     23  C   UNL     1      -0.418  10.343  20.334  0.00  0.00    +0.000 C 
ENDBRANCH  19  21
ENDBRANCH  18  19
ENDBRANCH  17  18
ENDBRANCH  16  17
ENDBRANCH   1  16
TORSDOF 8
ENDMDL
MODEL 8
REMARK VINA RESULT:      -6.6      2.554      6.396
REMARK  Name = 
REMARK  11 active torsions:
REMARK  status: ('A' for Active; 'I' for Inactive)
REMARK    1  A    between atoms: C_1  and  N_2
REMARK    2  A    between atoms: N_2  and  C_3
REMARK    3  A    between atoms: N_2  and  C_4
REMARK    4  A    between atoms: N_2  and  C_5
REMARK    5  A    between atoms: C_5  and  C_6
REMARK    6  A    between atoms: C_6  and  O_7
REMARK    7  A    between atoms: O_7  and  C_8
REMARK    8  A    between atoms: C_8  and  C_9
REMARK    9  A    between atoms: C_9  and  O_10
REMARK   10  A    between atoms: C_9  and  C_11
REMARK   11  A    between atoms: C_9  and  C_17
REMARK                            x       y       z     vdW  Elec       q    Type
REMARK                         _______ _______ _______ _____ _____    ______ ____
ROOT
ATOM      1  C   UNL     1       3.073   6.157  18.882  0.00  0.00    +0.000 C 
ENDROOT
BRANCH   1   2
ATOM      2  C   UNL     1       2.381   4.787  18.882  0.00  0.00    +0.000 A 
ATOM      3  C   UNL     1       2.611   3.887  17.815  0.00  0.00    +0.000 A 
ATOM      4  C   UNL     1       1.979   2.642  17.783  0.00  0.00    +0.000 A 
ATOM      5  C   UNL     1       1.103   2.275  18.804  0.00  0.00    +0.000 A 
ATOM      6  C   UNL     1       0.861   3.149  19.865  0.00  0.00    +0.000 A 
ATOM      7  C   UNL     1       1.495   4.395  19.907  0.00  0.00    +0.000 A 
ENDBRANCH   1   2
BRANCH   1   8
ATOM      8  C   UNL     1       4.508   6.000  18.373  0.00  0.00    +0.000 A 
ATOM      9  C   UNL     1       4.929   6.421  17.086  0.00  0.00    +0.000 A 
ATOM     10  C   UNL     1       6.252   6.243  16.677  0.00  0.00    +0.000 A 
ATOM     11  C   UNL     1       7.177   5.642  17.531  0.00  0.00    +0.000 A 
ATOM     12  C   UNL     1       6.779   5.219  18.800  0.00  0.00    +0.000 A 
ATOM     13  C   UNL     1       5.458   5.397  19.219  0.00  0.00    +0.000 A 
ENDBRANCH   1   8
BRANCH   1  14
ATOM     14  O   UNL     1       3.153   6.680  20.196  0.00  0.00    +0.000 OA
ATOM     15  H   UNL     1       3.633   6.035  20.775  0.00  0.00    +0.000 HD
ENDBRANCH   1  14
BRANCH   1  16
ATOM     16  C   UNL     1       2.223   7.113  18.017  0.00  0.00    +0.000 C 
BRANCH  16  17
ATOM     17  O   UNL     1       1.922   8.296  18.737  0.00  0.00    +0.000 OA
BRANCH  17  18
ATOM     18  C   UNL     1       1.755   9.389  17.855  0.00  0.00    +0.000 C 
BRANCH  18  19
ATOM     19  C   UNL     1       1.344  10.663  18.634  0.00  0.00    +0.000 C 
BRANCH  19  21
ATOM     20  C   UNL     1      -0.399  12.277  18.884  0.00  0.00    +0.000 C 
ATOM     21  N   UNL     1      -0.108  10.821  18.923  0.00  0.00    +0.000 N 
ATOM     22  C   UNL     1      -0.442  10.314  20.277  0.00  0.00    +0.000 C 
ATOM     23  C   UNL     1      -0.943  10.140  17.911  0.00  0.00    +0.000 C 
ENDBRANCH  19  21
ENDBRANCH  18  19
ENDBRANCH  17  18
ENDBRANCH  16  17
ENDBRANCH   1  16
TORSDOF 8
ENDMDL
MODEL 9
REMARK VINA RESULT:      -6.6      2.490      6.302
REMARK  Name = 
REMARK  11 active torsions:
REMARK  status: ('A' for Active; 'I' for Inactive)
REMARK    1  A    between atoms: C_1  and  N_2
REMARK    2  A    between atoms: N_2  and  C_3
REMARK    3  A    between atoms: N_2  and  C_4
REMARK    4  A    between atoms: N_2  and  C_5
REMARK    5  A    between atoms: C_5  and  C_6
REMARK    6  A    between atoms: C_6  and  O_7
REMARK    7  A    between atoms: O_7  and  C_8
REMARK    8  A    between atoms: C_8  and  C_9
REMARK    9  A    between atoms: C_9  and  O_10
REMARK   10  A    between atoms: C_9  and  C_11
REMARK   11  A    between atoms: C_9  and  C_17
REMARK                            x       y       z     vdW  Elec       q    Type
REMARK                         _______ _______ _______ _____ _____    ______ ____
ROOT
ATOM      1  C   UNL     1       3.119   6.228  18.785  0.00  0.00    +0.000 C 
ENDROOT
BRANCH   1   2
ATOM      2  C   UNL     1       2.284   4.957  18.994  0.00  0.00    +0.000 A 
ATOM      3  C   UNL     1       1.706   4.700  20.259  0.00  0.00    +0.000 A 
ATOM      4  C   UNL     1       0.957   3.541  20.480  0.00  0.00    +0.000 A 
ATOM      5  C   UNL     1       0.779   2.616  19.451  0.00  0.00    +0.000 A 
ATOM      6  C   UNL     1       1.343   2.849  18.196  0.00  0.00    +0.000 A 
ATOM      7  C   UNL     1       2.088   4.010  17.967  0.00  0.00    +0.000 A 
ENDBRANCH   1   2
BRANCH   1   8
ATOM      8  C   UNL     1       4.441   5.859  18.109  0.00  0.00    +0.000 A 
ATOM      9  C   UNL     1       4.721   6.126  16.745  0.00  0.00    +0.000 A 
ATOM     10  C   UNL     1       5.945   5.759  16.184  0.00  0.00    +0.000 A 
ATOM     11  C   UNL     1       6.910   5.117  16.961  0.00  0.00    +0.000 A 
ATOM     12  C   UNL     1       6.650   4.842  18.304  0.00  0.00    +0.000 A 
ATOM     13  C   UNL     1       5.430   5.211  18.874  0.00  0.00    +0.000 A 
ENDBRANCH   1   8
BRANCH   1  14
ATOM     14  O   UNL     1       3.440   6.828  20.027  0.00  0.00    +0.000 OA
ATOM     15  H   UNL     1       4.400   7.074  20.032  0.00  0.00    +0.000 HD
ENDBRANCH   1  14
BRANCH   1  16
ATOM     16  C   UNL     1       2.269   7.217  17.958  0.00  0.00    +0.000 C 
BRANCH  16  17
ATOM     17  O   UNL     1       2.012   8.393  18.706  0.00  0.00    +0.000 OA
BRANCH  17  18
ATOM     18  C   UNL     1       1.480   9.407  17.875  0.00  0.00    +0.000 C 
BRANCH  18  19
ATOM     19  C   UNL     1       1.206  10.694  18.691  0.00  0.00    +0.000 C 
BRANCH  19  21
ATOM     20  C   UNL     1      -0.387  12.465  18.878  0.00  0.00    +0.000 C 
ATOM     21  N   UNL     1      -0.220  10.994  18.994  0.00  0.00    +0.000 N 
ATOM     22  C   UNL     1      -0.569  10.593  20.380  0.00  0.00    +0.000 C 
ATOM     23  C   UNL     1      -1.132  10.333  18.036  0.00  0.00    +0.000 C 
ENDBRANCH  19  21
ENDBRANCH  18  19
ENDBRANCH  17  18
ENDBRANCH  16  17
ENDBRANCH   1  16
TORSDOF 8
ENDMDL
