MODEL 1
REMARK VINA RESULT:      -7.8      0.000      0.000
REMARK  Name = 
REMARK  7 active torsions:
REMARK  status: ('A' for Active; 'I' for Inactive)
REMARK    1  A    between atoms: C_1  and  N_2
REMARK    2  A    between atoms: N_2  and  C_3
REMARK    3  A    between atoms: N_2  and  C_4
REMARK    4  A    between atoms: C_4  and  C_5
REMARK    5  A    between atoms: C_5  and  N_6
REMARK    6  A    between atoms: N_6  and  C_7
REMARK    7  A    between atoms: C_9  and  C_10
REMARK                            x       y       z     vdW  Elec       q    Type
REMARK                         _______ _______ _______ _____ _____    ______ ____
ROOT
ATOM      1  C   UNL     1       4.739   4.558  18.592  0.00  0.00    +0.000 A 
ATOM      2  C   UNL     1       3.884   5.541  19.096  0.00  0.00    +0.000 A 
ATOM      3  C   UNL     1       3.476   6.601  18.307  0.00  0.00    +0.000 A 
ATOM      4  N   UNL     1       3.935   6.754  17.039  0.00  0.00    +0.000 NA
ATOM      5  C   UNL     1       4.812   5.862  16.558  0.00  0.00    +0.000 A 
ATOM      6  C   UNL     1       5.301   6.075  15.274  0.00  0.00    +0.000 A 
ATOM      7  C   UNL     1       6.210   5.201  14.673  0.00  0.00    +0.000 A 
ATOM      8  C   UNL     1       6.639   4.079  15.366  0.00  0.00    +0.000 A 
ATOM      9  C   UNL     1       6.164   3.843  16.656  0.00  0.00    +0.000 A 
ATOM     10  C   UNL     1       5.255   4.732  17.283  0.00  0.00    +0.000 A 
ENDROOT
BRANCH   3  11
ATOM     11  C   UNL     1       2.520   7.612  18.794  0.00  0.00    +0.000 A 
ATOM     12  C   UNL     1       1.998   7.573  20.102  0.00  0.00    +0.000 A 
ATOM     13  C   UNL     1       1.126   8.558  20.570  0.00  0.00    +0.000 A 
ATOM     14  C   UNL     1       0.760   9.606  19.734  0.00  0.00    +0.000 A 
ATOM     15 BR   UNL     1      -0.355  10.982  20.388  0.00  0.00    +0.000 Br
ATOM     16  C   UNL     1       1.230   9.654  18.424  0.00  0.00    +0.000 A 
ATOM     17  C   UNL     1       2.098   8.663  17.959  0.00  0.00    +0.000 A 
ENDBRANCH   3  11
BRANCH   1  18
ATOM     18  N   UNL     1       5.137   3.499  19.430  0.00  0.00    +0.000 N 
ATOM     19  H   UNL     1       6.105   3.209  19.323  0.00  0.00    +0.000 HD
BRANCH  18  20
ATOM     20  C   UNL     1       4.225   2.355  19.547  0.00  0.00    +0.000 C 
BRANCH  20  21
ATOM     21  C   UNL     1       3.184   2.567  20.665  0.00  0.00    +0.000 C 
BRANCH  21  23
ATOM     22  C   UNL     1       1.076   3.761  20.566  0.00  0.00    +0.000 C 
ATOM     23  N   UNL     1       1.777   2.520  20.224  0.00  0.00    +0.000 NA
ATOM     24  C   UNL     1       1.710   2.302  18.778  0.00  0.00    +0.000 C 
ENDBRANCH  21  23
ENDBRANCH  20  21
ENDBRANCH  18  20
ENDBRANCH   1  18
TORSDOF 5
ENDMDL
MODEL 2
REMARK VINA RESULT:      -7.8      1.111      1.390
REMARK  Name = 
REMARK  7 active torsions:
REMARK  status: ('A' for Active; 'I' for Inactive)
REMARK    1  A    between atoms: C_1  and  N_2
REMARK    2  A    between atoms: N_2  and  C_3
REMARK    3  A    between atoms: N_2  and  C_4
REMARK    4  A    between atoms: C_4  and  C_5
REMARK    5  A    between atoms: C_5  and  N_6
REMARK    6  A    between atoms: N_6  and  C_7
REMARK    7  A    between atoms: C_9  and  C_10
REMARK                            x       y       z     vdW  Elec       q    Type
REMARK                         _______ _______ _______ _____ _____    ______ ____
ROOT
ATOM      1  C   UNL     1       3.241   4.296  17.331  0.00  0.00    +0.000 A 
ATOM      2  C   UNL     1       2.528   5.295  17.999  0.00  0.00    +0.000 A 
ATOM      3  C   UNL     1       3.009   6.591  18.062  0.00  0.00    +0.000 A 
ATOM      4  N   UNL     1       4.212   6.922  17.529  0.00  0.00    +0.000 NA
ATOM      5  C   UNL     1       4.946   5.965  16.945  0.00  0.00    +0.000 A 
ATOM      6  C   UNL     1       6.195   6.328  16.453  0.00  0.00    +0.000 A 
ATOM      7  C   UNL     1       7.035   5.410  15.817  0.00  0.00    +0.000 A 
ATOM      8  C   UNL     1       6.618   4.097  15.659  0.00  0.00    +0.000 A 
ATOM      9  C   UNL     1       5.370   3.708  16.145  0.00  0.00    +0.000 A 
ATOM     10  C   UNL     1       4.516   4.626  16.807  0.00  0.00    +0.000 A 
ENDROOT
BRANCH   3  11
ATOM     11  C   UNL     1       2.244   7.676  18.701  0.00  0.00    +0.000 A 
ATOM     12  C   UNL     1       1.899   7.639  20.067  0.00  0.00    +0.000 A 
ATOM     13  C   UNL     1       1.211   8.690  20.676  0.00  0.00    +0.000 A 
ATOM     14  C   UNL     1       0.853   9.804  19.925  0.00  0.00    +0.000 A 
ATOM     15 BR   UNL     1      -0.007  11.262  20.761  0.00  0.00    +0.000 Br
ATOM     16  C   UNL     1       1.147   9.855  18.564  0.00  0.00    +0.000 A 
ATOM     17  C   UNL     1       1.831   8.798  17.960  0.00  0.00    +0.000 A 
ENDBRANCH   3  11
BRANCH   1  18
ATOM     18  N   UNL     1       2.720   2.989  17.297  0.00  0.00    +0.000 N 
ATOM     19  H   UNL     1       1.789   2.909  16.900  0.00  0.00    +0.000 HD
BRANCH  18  20
ATOM     20  C   UNL     1       2.881   2.170  18.504  0.00  0.00    +0.000 C 
BRANCH  20  21
ATOM     21  C   UNL     1       1.544   1.982  19.250  0.00  0.00    +0.000 C 
BRANCH  21  23
ATOM     22  C   UNL     1       2.827   2.663  21.191  0.00  0.00    +0.000 C 
ATOM     23  N   UNL     1       1.491   2.587  20.595  0.00  0.00    +0.000 NA
ATOM     24  C   UNL     1       0.911   3.929  20.520  0.00  0.00    +0.000 C 
ENDBRANCH  21  23
ENDBRANCH  20  21
ENDBRANCH  18  20
ENDBRANCH   1  18
TORSDOF 5
ENDMDL
MODEL 3
REMARK VINA RESULT:      -7.7      1.169      1.870
REMARK  Name = 
REMARK  7 active torsions:
REMARK  status: ('A' for Active; 'I' for Inactive)
REMARK    1  A    between atoms: C_1  and  N_2
REMARK    2  A    between atoms: N_2  and  C_3
REMARK    3  A    between atoms: N_2  and  C_4
REMARK    4  A    between atoms: C_4  and  C_5
REMARK    5  A    between atoms: C_5  and  N_6
REMARK    6  A    between atoms: N_6  and  C_7
REMARK    7  A    between atoms: C_9  and  C_10
REMARK                            x       y       z     vdW  Elec       q    Type
REMARK                         _______ _______ _______ _____ _____    ______ ____
ROOT
ATOM      1  C   UNL     1       3.065   4.499  17.385  0.00  0.00    +0.000 A 
ATOM      2  C   UNL     1       2.356   5.519  18.025  0.00  0.00    +0.000 A 
ATOM      3  C   UNL     1       2.888   6.790  18.141  0.00  0.00    +0.000 A 
ATOM      4  N   UNL     1       4.136   7.076  17.691  0.00  0.00    +0.000 NA
ATOM      5  C   UNL     1       4.863   6.095  17.137  0.00  0.00    +0.000 A 
ATOM      6  C   UNL     1       6.155   6.410  16.730  0.00  0.00    +0.000 A 
ATOM      7  C   UNL     1       6.993   5.466  16.132  0.00  0.00    +0.000 A 
ATOM      8  C   UNL     1       6.529   4.175  15.924  0.00  0.00    +0.000 A 
ATOM      9  C   UNL     1       5.238   3.834  16.323  0.00  0.00    +0.000 A 
ATOM     10  C   UNL     1       4.384   4.779  16.948  0.00  0.00    +0.000 A 
ENDROOT
BRANCH   3  11
ATOM     11  C   UNL     1       2.132   7.899  18.751  0.00  0.00    +0.000 A 
ATOM     12  C   UNL     1       1.707   9.012  17.999  0.00  0.00    +0.000 A 
ATOM     13  C   UNL     1       0.955  10.038  18.573  0.00  0.00    +0.000 A 
ATOM     14  C   UNL     1       0.614   9.970  19.918  0.00  0.00    +0.000 A 
ATOM     15 BR   UNL     1      -0.469  11.316  20.681  0.00  0.00    +0.000 Br
ATOM     16  C   UNL     1       1.050   8.902  20.699  0.00  0.00    +0.000 A 
ATOM     17  C   UNL     1       1.806   7.880  20.119  0.00  0.00    +0.000 A 
ENDBRANCH   3  11
BRANCH   1  18
ATOM     18  N   UNL     1       2.491   3.217  17.294  0.00  0.00    +0.000 N 
ATOM     19  H   UNL     1       2.223   2.933  16.356  0.00  0.00    +0.000 HD
BRANCH  18  20
ATOM     20  C   UNL     1       1.475   2.864  18.292  0.00  0.00    +0.000 C 
BRANCH  20  21
ATOM     21  C   UNL     1       2.073   2.034  19.447  0.00  0.00    +0.000 C 
BRANCH  21  23
ATOM     22  C   UNL     1       2.376   2.719  21.753  0.00  0.00    +0.000 C 
ATOM     23  N   UNL     1       2.912   2.797  20.391  0.00  0.00    +0.000 NA
ATOM     24  C   UNL     1       4.283   2.283  20.375  0.00  0.00    +0.000 C 
ENDBRANCH  21  23
ENDBRANCH  20  21
ENDBRANCH  18  20
ENDBRANCH   1  18
TORSDOF 5
ENDMDL
MODEL 4
REMARK VINA RESULT:      -7.6      0.389      1.076
REMARK  Name = 
REMARK  7 active torsions:
REMARK  status: ('A' for Active; 'I' for Inactive)
REMARK    1  A    between atoms: C_1  and  N_2
REMARK    2  A    between atoms: N_2  and  C_3
REMARK    3  A    between atoms: N_2  and  C_4
REMARK    4  A    between atoms: C_4  and  C_5
REMARK    5  A    between atoms: C_5  and  N_6
REMARK    6  A    between atoms: N_6  and  C_7
REMARK    7  A    between atoms: C_9  and  C_10
REMARK                            x       y       z     vdW  Elec       q    Type
REMARK                         _______ _______ _______ _____ _____    ______ ____
ROOT
ATOM      1  C   UNL     1       4.383   4.675  18.667  0.00  0.00    +0.000 A 
ATOM      2  C   UNL     1       3.554   5.702  19.125  0.00  0.00    +0.000 A 
ATOM      3  C   UNL     1       3.269   6.795  18.327  0.00  0.00    +0.000 A 
ATOM      4  N   UNL     1       3.828   6.936  17.099  0.00  0.00    +0.000 NA
ATOM      5  C   UNL     1       4.682   5.998  16.667  0.00  0.00    +0.000 A 
ATOM      6  C   UNL     1       5.275   6.197  15.425  0.00  0.00    +0.000 A 
ATOM      7  C   UNL     1       6.171   5.277  14.877  0.00  0.00    +0.000 A 
ATOM      8  C   UNL     1       6.480   4.121  15.579  0.00  0.00    +0.000 A 
ATOM      9  C   UNL     1       5.900   3.899  16.827  0.00  0.00    +0.000 A 
ATOM     10  C   UNL     1       5.002   4.834  17.402  0.00  0.00    +0.000 A 
ENDROOT
BRANCH   3  11
ATOM     11  C   UNL     1       2.343   7.857  18.761  0.00  0.00    +0.000 A 
ATOM     12  C   UNL     1       1.876   8.846  17.872  0.00  0.00    +0.000 A 
ATOM     13  C   UNL     1       0.967   9.824  18.279  0.00  0.00    +0.000 A 
ATOM     14  C   UNL     1       0.507   9.832  19.590  0.00  0.00    +0.000 A 
ATOM     15 BR   UNL     1      -0.783  11.103  20.124  0.00  0.00    +0.000 Br
ATOM     16  C   UNL     1       0.977   8.890  20.503  0.00  0.00    +0.000 A 
ATOM     17  C   UNL     1       1.890   7.917  20.091  0.00  0.00    +0.000 A 
ENDBRANCH   3  11
BRANCH   1  18
ATOM     18  N   UNL     1       4.654   3.583  19.513  0.00  0.00    +0.000 N 
ATOM     19  H   UNL     1       5.617   3.260  19.500  0.00  0.00    +0.000 HD
BRANCH  18  20
ATOM     20  C   UNL     1       3.695   2.472  19.504  0.00  0.00    +0.000 C 
BRANCH  20  21
ATOM     21  C   UNL     1       2.676   2.588  20.656  0.00  0.00    +0.000 C 
BRANCH  21  23
ATOM     22  C   UNL     1       0.843   4.161  20.442  0.00  0.00    +0.000 C 
ATOM     23  N   UNL     1       1.275   2.777  20.230  0.00  0.00    +0.000 NA
ATOM     24  C   UNL     1       1.127   2.428  18.816  0.00  0.00    +0.000 C 
ENDBRANCH  21  23
ENDBRANCH  20  21
ENDBRANCH  18  20
ENDBRANCH   1  18
TORSDOF 5
ENDMDL
MODEL 5
REMARK VINA RESULT:      -7.4      1.478      4.013
REMARK  Name = 
REMARK  7 active torsions:
REMARK  status: ('A' for Active; 'I' for Inactive)
REMARK    1  A    between atoms: C_1  and  N_2
REMARK    2  A    between atoms: N_2  and  C_3
REMARK    3  A    between atoms: N_2  and  C_4
REMARK    4  A    between atoms: C_4  and  C_5
REMARK    5  A    between atoms: C_5  and  N_6
REMARK    6  A    between atoms: N_6  and  C_7
REMARK    7  A    between atoms: C_9  and  C_10
REMARK                            x       y       z     vdW  Elec       q    Type
REMARK                         _______ _______ _______ _____ _____    ______ ____
ROOT
ATOM      1  C   UNL     1       4.712   4.954  19.203  0.00  0.00    +0.000 A 
ATOM      2  C   UNL     1       4.145   6.231  19.197  0.00  0.00    +0.000 A 
ATOM      3  C   UNL     1       2.783   6.403  19.027  0.00  0.00    +0.000 A 
ATOM      4  N   UNL     1       1.961   5.346  18.803  0.00  0.00    +0.000 NA
ATOM      5  C   UNL     1       2.493   4.118  18.735  0.00  0.00    +0.000 A 
ATOM      6  C   UNL     1       1.631   3.063  18.456  0.00  0.00    +0.000 A 
ATOM      7  C   UNL     1       2.079   1.743  18.373  0.00  0.00    +0.000 A 
ATOM      8  C   UNL     1       3.422   1.463  18.581  0.00  0.00    +0.000 A 
ATOM      9  C   UNL     1       4.307   2.503  18.861  0.00  0.00    +0.000 A 
ATOM     10  C   UNL     1       3.867   3.849  18.931  0.00  0.00    +0.000 A 
ENDROOT
BRANCH   3  11
ATOM     11  C   UNL     1       2.152   7.734  19.084  0.00  0.00    +0.000 A 
ATOM     12  C   UNL     1       1.530   8.212  20.254  0.00  0.00    +0.000 A 
ATOM     13  C   UNL     1       0.971   9.490  20.315  0.00  0.00    +0.000 A 
ATOM     14  C   UNL     1       1.025  10.318  19.200  0.00  0.00    +0.000 A 
ATOM     15 BR   UNL     1       0.342  12.075  19.302  0.00  0.00    +0.000 Br
ATOM     16  C   UNL     1       1.601   9.861  18.016  0.00  0.00    +0.000 A 
ATOM     17  C   UNL     1       2.154   8.580  17.960  0.00  0.00    +0.000 A 
ENDBRANCH   3  11
BRANCH   1  18
ATOM     18  N   UNL     1       6.103   4.822  19.372  0.00  0.00    +0.000 N 
ATOM     19  H   UNL     1       6.422   4.848  20.336  0.00  0.00    +0.000 HD
BRANCH  18  20
ATOM     20  C   UNL     1       6.965   5.607  18.480  0.00  0.00    +0.000 C 
BRANCH  20  21
ATOM     21  C   UNL     1       7.297   4.839  17.184  0.00  0.00    +0.000 C 
BRANCH  21  23
ATOM     22  C   UNL     1       7.053   4.693  14.776  0.00  0.00    +0.000 C 
ATOM     23  N   UNL     1       7.052   5.588  15.936  0.00  0.00    +0.000 NA
ATOM     24  C   UNL     1       5.768   6.288  16.014  0.00  0.00    +0.000 C 
ENDBRANCH  21  23
ENDBRANCH  20  21
ENDBRANCH  18  20
ENDBRANCH   1  18
TORSDOF 5
ENDMDL
MODEL 6
REMARK VINA RESULT:      -7.4      1.488      4.126
REMARK  Name = 
REMARK  7 active torsions:
REMARK  status: ('A' for Active; 'I' for Inactive)
REMARK    1  A    between atoms: C_1  and  N_2
REMARK    2  A    between atoms: N_2  and  C_3
REMARK    3  A    between atoms: N_2  and  C_4
REMARK    4  A    between atoms: C_4  and  C_5
REMARK    5  A    between atoms: C_5  and  N_6
REMARK    6  A    between atoms: N_6  and  C_7
REMARK    7  A    between atoms: C_9  and  C_10
REMARK                            x       y       z     vdW  Elec       q    Type
REMARK                         _______ _______ _______ _____ _____    ______ ____
ROOT
ATOM      1  C   UNL     1       4.687   4.876  19.239  0.00  0.00    +0.000 A 
ATOM      2  C   UNL     1       4.140   6.162  19.239  0.00  0.00    +0.000 A 
ATOM      3  C   UNL     1       2.784   6.357  19.052  0.00  0.00    +0.000 A 
ATOM      4  N   UNL     1       1.949   5.316  18.807  0.00  0.00    +0.000 NA
ATOM      5  C   UNL     1       2.462   4.080  18.733  0.00  0.00    +0.000 A 
ATOM      6  C   UNL     1       1.587   3.042  18.432  0.00  0.00    +0.000 A 
ATOM      7  C   UNL     1       2.015   1.716  18.341  0.00  0.00    +0.000 A 
ATOM      8  C   UNL     1       3.350   1.412  18.564  0.00  0.00    +0.000 A 
ATOM      9  C   UNL     1       4.248   2.435  18.866  0.00  0.00    +0.000 A 
ATOM     10  C   UNL     1       3.828   3.788  18.944  0.00  0.00    +0.000 A 
ENDROOT
BRANCH   3  11
ATOM     11  C   UNL     1       2.173   7.697  19.116  0.00  0.00    +0.000 A 
ATOM     12  C   UNL     1       2.178   8.570  18.009  0.00  0.00    +0.000 A 
ATOM     13  C   UNL     1       1.562   9.821  18.062  0.00  0.00    +0.000 A 
ATOM     14  C   UNL     1       0.925  10.225  19.230  0.00  0.00    +0.000 A 
ATOM     15 BR   UNL     1       0.022  11.882  19.281  0.00  0.00    +0.000 Br
ATOM     16  C   UNL     1       0.934   9.401  20.353  0.00  0.00    +0.000 A 
ATOM     17  C   UNL     1       1.557   8.152  20.295  0.00  0.00    +0.000 A 
ENDBRANCH   3  11
BRANCH   1  18
ATOM     18  N   UNL     1       6.074   4.720  19.424  0.00  0.00    +0.000 N 
ATOM     19  H   UNL     1       6.372   4.658  20.394  0.00  0.00    +0.000 HD
BRANCH  18  20
ATOM     20  C   UNL     1       6.959   5.575  18.624  0.00  0.00    +0.000 C 
BRANCH  20  21
ATOM     21  C   UNL     1       7.439   4.861  17.345  0.00  0.00    +0.000 C 
BRANCH  21  23
ATOM     22  C   UNL     1       6.994   4.659  14.970  0.00  0.00    +0.000 C 
ATOM     23  N   UNL     1       7.175   5.589  16.088  0.00  0.00    +0.000 NA
ATOM     24  C   UNL     1       5.980   6.422  16.232  0.00  0.00    +0.000 C 
ENDBRANCH  21  23
ENDBRANCH  20  21
ENDBRANCH  18  20
ENDBRANCH   1  18
TORSDOF 5
ENDMDL
MODEL 7
REMARK VINA RESULT:      -7.4      3.866      7.977
REMARK  Name = 
REMARK  7 active torsions:
REMARK  status: ('A' for Active; 'I' for Inactive)
REMARK    1  A    between atoms: C_1  and  N_2
REMARK    2  A    between atoms: N_2  and  C_3
REMARK    3  A    between atoms: N_2  and  C_4
REMARK    4  A    between atoms: C_4  and  C_5
REMARK    5  A    between atoms: C_5  and  N_6
REMARK    6  A    between atoms: N_6  and  C_7
REMARK    7  A    between atoms: C_9  and  C_10
REMARK                            x       y       z     vdW  Elec       q    Type
REMARK                         _______ _______ _______ _____ _____    ______ ____
ROOT
ATOM      1  C   UNL     1       0.418  10.189  18.819  0.00  0.00    +0.000 A 
ATOM      2  C   UNL     1       1.290   9.288  18.202  0.00  0.00    +0.000 A 
ATOM      3  C   UNL     1       1.869   8.256  18.918  0.00  0.00    +0.000 A 
ATOM      4  N   UNL     1       1.656   8.116  20.251  0.00  0.00    +0.000 NA
ATOM      5  C   UNL     1       0.879   9.011  20.878  0.00  0.00    +0.000 A 
ATOM      6  C   UNL     1       0.721   8.867  22.252  0.00  0.00    +0.000 A 
ATOM      7  C   UNL     1      -0.075   9.738  23.000  0.00  0.00    +0.000 A 
ATOM      8  C   UNL     1      -0.739  10.775  22.363  0.00  0.00    +0.000 A 
ATOM      9  C   UNL     1      -0.597  10.941  20.986  0.00  0.00    +0.000 A 
ATOM     10  C   UNL     1       0.223  10.074  20.218  0.00  0.00    +0.000 A 
ENDROOT
BRANCH   3  11
ATOM     11  C   UNL     1       2.738   7.253  18.276  0.00  0.00    +0.000 A 
ATOM     12  C   UNL     1       2.502   5.870  18.409  0.00  0.00    +0.000 A 
ATOM     13  C   UNL     1       3.303   4.926  17.764  0.00  0.00    +0.000 A 
ATOM     14  C   UNL     1       4.361   5.351  16.970  0.00  0.00    +0.000 A 
ATOM     15 BR   UNL     1       5.399   4.083  16.032  0.00  0.00    +0.000 Br
ATOM     16  C   UNL     1       4.643   6.710  16.846  0.00  0.00    +0.000 A 
ATOM     17  C   UNL     1       3.840   7.649  17.498  0.00  0.00    +0.000 A 
ENDBRANCH   3  11
BRANCH   1  18
ATOM     18  N   UNL     1      -0.144  11.231  18.057  0.00  0.00    +0.000 N 
ATOM     19  H   UNL     1       0.203  12.159  18.279  0.00  0.00    +0.000 HD
BRANCH  18  20
ATOM     20  C   UNL     1      -1.599  11.213  17.865  0.00  0.00    +0.000 C 
BRANCH  20  21
ATOM     21  C   UNL     1      -2.062   9.936  17.135  0.00  0.00    +0.000 C 
BRANCH  21  23
ATOM     22  C   UNL     1      -4.079  11.232  16.770  0.00  0.00    +0.000 C 
ATOM     23  N   UNL     1      -3.276  10.095  16.311  0.00  0.00    +0.000 NA
ATOM     24  C   UNL     1      -2.908  10.290  14.907  0.00  0.00    +0.000 C 
ENDBRANCH  21  23
ENDBRANCH  20  21
ENDBRANCH  18  20
ENDBRANCH   1  18
TORSDOF 5
ENDMDL
MODEL 8
REMARK VINA RESULT:      -7.3      1.832      4.439
REMARK  Name = 
REMARK  7 active torsions:
REMARK  status: ('A' for Active; 'I' for Inactive)
REMARK    1  A    between atoms: C_1  and  N_2
REMARK    2  A    between atoms: N_2  and  C_3
REMARK    3  A    between atoms: N_2  and  C_4
REMARK    4  A    between atoms: C_4  and  C_5
REMARK    5  A    between atoms: C_5  and  N_6
REMARK    6  A    between atoms: N_6  and  C_7
REMARK    7  A    between atoms: C_9  and  C_10
REMARK                            x       y       z     vdW  Elec       q    Type
REMARK                         _______ _______ _______ _____ _____    ______ ____
ROOT
ATOM      1  C   UNL     1       3.661   5.437  17.977  0.00  0.00    +0.000 A 
ATOM      2  C   UNL     1       3.114   6.722  17.981  0.00  0.00    +0.000 A 
ATOM      3  C   UNL     1       2.358   7.170  19.049  0.00  0.00    +0.000 A 
ATOM      4  N   UNL     1       2.075   6.360  20.101  0.00  0.00    +0.000 NA
ATOM      5  C   UNL     1       2.531   5.099  20.086  0.00  0.00    +0.000 A 
ATOM      6  C   UNL     1       2.182   4.281  21.155  0.00  0.00    +0.000 A 
ATOM      7  C   UNL     1       2.612   2.955  21.244  0.00  0.00    +0.000 A 
ATOM      8  C   UNL     1       3.419   2.431  20.245  0.00  0.00    +0.000 A 
ATOM      9  C   UNL     1       3.782   3.230  19.162  0.00  0.00    +0.000 A 
ATOM     10  C   UNL     1       3.337   4.572  19.052  0.00  0.00    +0.000 A 
ENDROOT
BRANCH   3  11
ATOM     11  C   UNL     1       1.827   8.543  19.107  0.00  0.00    +0.000 A 
ATOM     12  C   UNL     1       1.107   9.016  20.223  0.00  0.00    +0.000 A 
ATOM     13  C   UNL     1       0.644  10.331  20.290  0.00  0.00    +0.000 A 
ATOM     14  C   UNL     1       0.893  11.202  19.236  0.00  0.00    +0.000 A 
ATOM     15 BR   UNL     1       0.337  13.003  19.356  0.00  0.00    +0.000 Br
ATOM     16  C   UNL     1       1.570  10.756  18.103  0.00  0.00    +0.000 A 
ATOM     17  C   UNL     1       2.027   9.437  18.040  0.00  0.00    +0.000 A 
ENDBRANCH   3  11
BRANCH   1  18
ATOM     18  N   UNL     1       4.418   5.016  16.867  0.00  0.00    +0.000 N 
ATOM     19  H   UNL     1       4.677   4.034  16.871  0.00  0.00    +0.000 HD
BRANCH  18  20
ATOM     20  C   UNL     1       5.528   5.880  16.445  0.00  0.00    +0.000 C 
BRANCH  20  21
ATOM     21  C   UNL     1       6.897   5.260  16.791  0.00  0.00    +0.000 C 
BRANCH  21  23
ATOM     22  C   UNL     1       7.528   7.484  17.524  0.00  0.00    +0.000 C 
ATOM     23  N   UNL     1       7.715   6.046  17.736  0.00  0.00    +0.000 NA
ATOM     24  C   UNL     1       7.360   5.703  19.114  0.00  0.00    +0.000 C 
ENDBRANCH  21  23
ENDBRANCH  20  21
ENDBRANCH  18  20
ENDBRANCH   1  18
TORSDOF 5
ENDMDL
MODEL 9
REMARK VINA RESULT:      -7.2      1.670      4.691
REMARK  Name = 
REMARK  7 active torsions:
REMARK  status: ('A' for Active; 'I' for Inactive)
REMARK    1  A    between atoms: C_1  and  N_2
REMARK    2  A    between atoms: N_2  and  C_3
REMARK    3  A    between atoms: N_2  and  C_4
REMARK    4  A    between atoms: C_4  and  C_5
REMARK    5  A    between atoms: C_5  and  N_6
REMARK    6  A    between atoms: N_6  and  C_7
REMARK    7  A    between atoms: C_9  and  C_10
REMARK                            x       y       z     vdW  Elec       q    Type
REMARK                         _______ _______ _______ _____ _____    ______ ____
ROOT
ATOM      1  C   UNL     1       3.351   5.585  18.355  0.00  0.00    +0.000 A 
ATOM      2  C   UNL     1       2.766   6.839  18.545  0.00  0.00    +0.000 A 
ATOM      3  C   UNL     1       2.060   7.127  19.699  0.00  0.00    +0.000 A 
ATOM      4  N   UNL     1       1.863   6.186  20.658  0.00  0.00    +0.000 NA
ATOM      5  C   UNL     1       2.354   4.954  20.464  0.00  0.00    +0.000 A 
ATOM      6  C   UNL     1       2.092   4.001  21.443  0.00  0.00    +0.000 A 
ATOM      7  C   UNL     1       2.567   2.691  21.345  0.00  0.00    +0.000 A 
ATOM      8  C   UNL     1       3.331   2.321  20.248  0.00  0.00    +0.000 A 
ATOM      9  C   UNL     1       3.607   3.257  19.253  0.00  0.00    +0.000 A 
ATOM     10  C   UNL     1       3.116   4.586  19.332  0.00  0.00    +0.000 A 
ENDROOT
BRANCH   3  11
ATOM     11  C   UNL     1       1.492   8.463  19.954  0.00  0.00    +0.000 A 
ATOM     12  C   UNL     1       1.308   9.402  18.919  0.00  0.00    +0.000 A 
ATOM     13  C   UNL     1       0.730  10.650  19.160  0.00  0.00    +0.000 A 
ATOM     14  C   UNL     1       0.324  10.983  20.446  0.00  0.00    +0.000 A 
ATOM     15 BR   UNL     1      -0.529  12.638  20.762  0.00  0.00    +0.000 Br
ATOM     16  C   UNL     1       0.525  10.091  21.498  0.00  0.00    +0.000 A 
ATOM     17  C   UNL     1       1.108   8.846  21.251  0.00  0.00    +0.000 A 
ENDBRANCH   3  11
BRANCH   1  18
ATOM     18  N   UNL     1       4.055   5.330  17.163  0.00  0.00    +0.000 N 
ATOM     19  H   UNL     1       4.546   4.441  17.137  0.00  0.00    +0.000 HD
BRANCH  18  20
ATOM     20  C   UNL     1       4.862   6.426  16.612  0.00  0.00    +0.000 C 
BRANCH  20  21
ATOM     21  C   UNL     1       6.086   5.899  15.835  0.00  0.00    +0.000 C 
BRANCH  21  23
ATOM     22  C   UNL     1       7.398   7.080  17.498  0.00  0.00    +0.000 C 
ATOM     23  N   UNL     1       7.360   5.938  16.580  0.00  0.00    +0.000 NA
ATOM     24  C   UNL     1       7.540   4.697  17.334  0.00  0.00    +0.000 C 
ENDBRANCH  21  23
ENDBRANCH  20  21
ENDBRANCH  18  20
ENDBRANCH   1  18
TORSDOF 5
ENDMDL
