MODEL 1
REMARK VINA RESULT:      -8.2      0.000      0.000
REMARK  Name = 
REMARK  3 active torsions:
REMARK  status: ('A' for Active; 'I' for Inactive)
REMARK    1  A    between atoms: C_3  and  O_4
REMARK    2  A    between atoms: C_5  and  N_6
REMARK    3  A    between atoms: C_14  and  C_15
REMARK                            x       y       z     vdW  Elec       q    Type
REMARK                         _______ _______ _______ _____ _____    ______ ____
ROOT
ATOM      1  O   UNL     1       3.677   1.463  17.669  0.00  0.00    +0.000 OA
ATOM      2  C   UNL     1       3.535   2.601  18.102  0.00  0.00    +0.000 C 
ATOM      3  C   UNL     1       2.726   2.802  19.328  0.00  0.00    +0.000 C 
ATOM      4  C   UNL     1       2.597   4.039  19.816  0.00  0.00    +0.000 C 
ATOM      5  C   UNL     1       3.205   5.241  19.240  0.00  0.00    +0.000 C 
ATOM      6  O   UNL     1       3.125   6.351  19.747  0.00  0.00    +0.000 OA
ATOM      7  C   UNL     1       3.947   5.052  17.975  0.00  0.00    +0.000 A 
ATOM      8  C   UNL     1       4.482   6.158  17.314  0.00  0.00    +0.000 A 
ATOM      9  C   UNL     1       5.171   5.985  16.108  0.00  0.00    +0.000 A 
ATOM     10  C   UNL     1       5.364   4.711  15.541  0.00  0.00    +0.000 A 
ATOM     11  C   UNL     1       4.823   3.611  16.232  0.00  0.00    +0.000 A 
ATOM     12  C   UNL     1       4.114   3.780  17.431  0.00  0.00    +0.000 A 
ENDROOT
BRANCH  10  13
ATOM     13  C   UNL     1       6.100   4.540  14.265  0.00  0.00    +0.000 A 
ATOM     14  C   UNL     1       7.252   5.296  13.975  0.00  0.00    +0.000 A 
ATOM     15  C   UNL     1       7.936   5.154  12.763  0.00  0.00    +0.000 A 
ATOM     16  C   UNL     1       7.494   4.237  11.816  0.00  0.00    +0.000 A 
ATOM     17  C   UNL     1       6.367   3.465  12.080  0.00  0.00    +0.000 A 
ATOM     18  C   UNL     1       5.676   3.619  13.287  0.00  0.00    +0.000 A 
ENDBRANCH  10  13
BRANCH   4  19
ATOM     19  N   UNL     1       1.786   4.206  20.979  0.00  0.00    +0.000 N 
ATOM     20  O   UNL     1       2.223   3.741  22.040  0.00  0.00    +0.000 OA
ATOM     21  O   UNL     1       0.712   4.804  20.827  0.00  0.00    +0.000 OA
ENDBRANCH   4  19
BRANCH   3  22
ATOM     22  O   UNL     1       2.147   1.672  19.883  0.00  0.00    +0.000 OA
ATOM     23  H   UNL     1       2.775   1.349  20.567  0.00  0.00    +0.000 HD
ENDBRANCH   3  22
TORSDOF 3
ENDMDL
MODEL 2
REMARK VINA RESULT:      -8.1      0.048      1.223
REMARK  Name = 
REMARK  3 active torsions:
REMARK  status: ('A' for Active; 'I' for Inactive)
REMARK    1  A    between atoms: C_3  and  O_4
REMARK    2  A    between atoms: C_5  and  N_6
REMARK    3  A    between atoms: C_14  and  C_15
REMARK                            x       y       z     vdW  Elec       q    Type
REMARK                         _______ _______ _______ _____ _____    ______ ____
ROOT
ATOM      1  O   UNL     1       3.602   1.494  17.635  0.00  0.00    +0.000 OA
ATOM      2  C   UNL     1       3.480   2.631  18.076  0.00  0.00    +0.000 C 
ATOM      3  C   UNL     1       2.675   2.836  19.305  0.00  0.00    +0.000 C 
ATOM      4  C   UNL     1       2.567   4.071  19.802  0.00  0.00    +0.000 C 
ATOM      5  C   UNL     1       3.196   5.267  19.235  0.00  0.00    +0.000 C 
ATOM      6  O   UNL     1       3.135   6.374  19.750  0.00  0.00    +0.000 OA
ATOM      7  C   UNL     1       3.934   5.074  17.968  0.00  0.00    +0.000 A 
ATOM      8  C   UNL     1       4.488   6.177  17.315  0.00  0.00    +0.000 A 
ATOM      9  C   UNL     1       5.174   6.001  16.108  0.00  0.00    +0.000 A 
ATOM     10  C   UNL     1       5.344   4.728  15.531  0.00  0.00    +0.000 A 
ATOM     11  C   UNL     1       4.785   3.633  16.214  0.00  0.00    +0.000 A 
ATOM     12  C   UNL     1       4.079   3.805  17.415  0.00  0.00    +0.000 A 
ENDROOT
BRANCH  10  13
ATOM     13  C   UNL     1       6.077   4.554  14.253  0.00  0.00    +0.000 A 
ATOM     14  C   UNL     1       5.649   3.628  13.282  0.00  0.00    +0.000 A 
ATOM     15  C   UNL     1       6.348   3.445  12.085  0.00  0.00    +0.000 A 
ATOM     16  C   UNL     1       7.488   4.197  11.821  0.00  0.00    +0.000 A 
ATOM     17  C   UNL     1       7.928   5.129  12.755  0.00  0.00    +0.000 A 
ATOM     18  C   UNL     1       7.234   5.301  13.958  0.00  0.00    +0.000 A 
ENDBRANCH  10  13
BRANCH   4  19
ATOM     19  N   UNL     1       1.760   4.243  20.966  0.00  0.00    +0.000 N 
ATOM     20  O   UNL     1       0.707   4.880  20.831  0.00  0.00    +0.000 OA
ATOM     21  O   UNL     1       2.183   3.741  22.016  0.00  0.00    +0.000 OA
ENDBRANCH   4  19
BRANCH   3  22
ATOM     22  O   UNL     1       2.077   1.712  19.850  0.00  0.00    +0.000 OA
ATOM     23  H   UNL     1       2.809   1.106  20.103  0.00  0.00    +0.000 HD
ENDBRANCH   3  22
TORSDOF 3
ENDMDL
MODEL 3
REMARK VINA RESULT:      -8.1      4.022      7.442
REMARK  Name = 
REMARK  3 active torsions:
REMARK  status: ('A' for Active; 'I' for Inactive)
REMARK    1  A    between atoms: C_3  and  O_4
REMARK    2  A    between atoms: C_5  and  N_6
REMARK    3  A    between atoms: C_14  and  C_15
REMARK                            x       y       z     vdW  Elec       q    Type
REMARK                         _______ _______ _______ _____ _____    ______ ____
ROOT
ATOM      1  O   UNL     1       3.388   4.414  20.449  0.00  0.00    +0.000 OA
ATOM      2  C   UNL     1       3.757   4.959  19.414  0.00  0.00    +0.000 C 
ATOM      3  C   UNL     1       4.762   4.273  18.567  0.00  0.00    +0.000 C 
ATOM      4  C   UNL     1       5.140   4.853  17.425  0.00  0.00    +0.000 C 
ATOM      5  C   UNL     1       4.631   6.130  16.917  0.00  0.00    +0.000 C 
ATOM      6  O   UNL     1       4.946   6.603  15.835  0.00  0.00    +0.000 OA
ATOM      7  C   UNL     1       3.686   6.849  17.798  0.00  0.00    +0.000 A 
ATOM      8  C   UNL     1       3.223   8.113  17.431  0.00  0.00    +0.000 A 
ATOM      9  C   UNL     1       2.341   8.804  18.270  0.00  0.00    +0.000 A 
ATOM     10  C   UNL     1       1.883   8.251  19.481  0.00  0.00    +0.000 A 
ATOM     11  C   UNL     1       2.358   6.972  19.823  0.00  0.00    +0.000 A 
ATOM     12  C   UNL     1       3.258   6.282  18.996  0.00  0.00    +0.000 A 
ENDROOT
BRANCH  10  13
ATOM     13  C   UNL     1       0.945   8.991  20.360  0.00  0.00    +0.000 A 
ATOM     14  C   UNL     1       0.261  10.135  19.904  0.00  0.00    +0.000 A 
ATOM     15  C   UNL     1      -0.608  10.849  20.736  0.00  0.00    +0.000 A 
ATOM     16  C   UNL     1      -0.826  10.426  22.043  0.00  0.00    +0.000 A 
ATOM     17  C   UNL     1      -0.175   9.292  22.517  0.00  0.00    +0.000 A 
ATOM     18  C   UNL     1       0.704   8.588  21.687  0.00  0.00    +0.000 A 
ENDBRANCH  10  13
BRANCH   4  19
ATOM     19  N   UNL     1       6.133   4.186  16.645  0.00  0.00    +0.000 N 
ATOM     20  O   UNL     1       5.732   3.433  15.748  0.00  0.00    +0.000 OA
ATOM     21  O   UNL     1       7.315   4.418  16.933  0.00  0.00    +0.000 OA
ENDBRANCH   4  19
BRANCH   3  22
ATOM     22  O   UNL     1       5.250   3.065  19.036  0.00  0.00    +0.000 OA
ATOM     23  H   UNL     1       5.136   3.082  20.012  0.00  0.00    +0.000 HD
ENDBRANCH   3  22
TORSDOF 3
ENDMDL
MODEL 4
REMARK VINA RESULT:      -8.1      4.003      7.415
REMARK  Name = 
REMARK  3 active torsions:
REMARK  status: ('A' for Active; 'I' for Inactive)
REMARK    1  A    between atoms: C_3  and  O_4
REMARK    2  A    between atoms: C_5  and  N_6
REMARK    3  A    between atoms: C_14  and  C_15
REMARK                            x       y       z     vdW  Elec       q    Type
REMARK                         _______ _______ _______ _____ _____    ______ ____
ROOT
ATOM      1  O   UNL     1       3.379   4.365  20.374  0.00  0.00    +0.000 OA
ATOM      2  C   UNL     1       3.757   4.922  19.350  0.00  0.00    +0.000 C 
ATOM      3  C   UNL     1       4.758   4.240  18.494  0.00  0.00    +0.000 C 
ATOM      4  C   UNL     1       5.146   4.835  17.363  0.00  0.00    +0.000 C 
ATOM      5  C   UNL     1       4.653   6.126  16.875  0.00  0.00    +0.000 C 
ATOM      6  O   UNL     1       4.975   6.614  15.802  0.00  0.00    +0.000 OA
ATOM      7  C   UNL     1       3.712   6.840  17.765  0.00  0.00    +0.000 A 
ATOM      8  C   UNL     1       3.263   8.115  17.417  0.00  0.00    +0.000 A 
ATOM      9  C   UNL     1       2.386   8.802  18.265  0.00  0.00    +0.000 A 
ATOM     10  C   UNL     1       1.919   8.233  19.465  0.00  0.00    +0.000 A 
ATOM     11  C   UNL     1       2.379   6.943  19.788  0.00  0.00    +0.000 A 
ATOM     12  C   UNL     1       3.274   6.258  18.952  0.00  0.00    +0.000 A 
ENDROOT
BRANCH  10  13
ATOM     13  C   UNL     1       0.986   8.969  20.354  0.00  0.00    +0.000 A 
ATOM     14  C   UNL     1       0.849   8.632  21.714  0.00  0.00    +0.000 A 
ATOM     15  C   UNL     1      -0.045   9.308  22.551  0.00  0.00    +0.000 A 
ATOM     16  C   UNL     1      -0.814  10.352  22.049  0.00  0.00    +0.000 A 
ATOM     17  C   UNL     1      -0.692  10.717  20.713  0.00  0.00    +0.000 A 
ATOM     18  C   UNL     1       0.193  10.030  19.875  0.00  0.00    +0.000 A 
ENDBRANCH  10  13
BRANCH   4  19
ATOM     19  N   UNL     1       6.134   4.171  16.575  0.00  0.00    +0.000 N 
ATOM     20  O   UNL     1       7.320   4.409  16.843  0.00  0.00    +0.000 OA
ATOM     21  O   UNL     1       5.721   3.412  15.689  0.00  0.00    +0.000 OA
ENDBRANCH   4  19
BRANCH   3  22
ATOM     22  O   UNL     1       5.231   3.019  18.944  0.00  0.00    +0.000 OA
ATOM     23  H   UNL     1       6.212   3.064  18.880  0.00  0.00    +0.000 HD
ENDBRANCH   3  22
TORSDOF 3
ENDMDL
MODEL 5
REMARK VINA RESULT:      -7.7      4.380      7.870
REMARK  Name = 
REMARK  3 active torsions:
REMARK  status: ('A' for Active; 'I' for Inactive)
REMARK    1  A    between atoms: C_3  and  O_4
REMARK    2  A    between atoms: C_5  and  N_6
REMARK    3  A    between atoms: C_14  and  C_15
REMARK                            x       y       z     vdW  Elec       q    Type
REMARK                         _______ _______ _______ _____ _____    ______ ____
ROOT
ATOM      1  O   UNL     1       2.313   4.806  21.242  0.00  0.00    +0.000 OA
ATOM      2  C   UNL     1       2.752   5.287  20.204  0.00  0.00    +0.000 C 
ATOM      3  C   UNL     1       3.702   4.487  19.393  0.00  0.00    +0.000 C 
ATOM      4  C   UNL     1       4.157   5.001  18.247  0.00  0.00    +0.000 C 
ATOM      5  C   UNL     1       3.786   6.309  17.702  0.00  0.00    +0.000 C 
ATOM      6  O   UNL     1       4.166   6.724  16.616  0.00  0.00    +0.000 OA
ATOM      7  C   UNL     1       2.899   7.137  18.547  0.00  0.00    +0.000 A 
ATOM      8  C   UNL     1       2.568   8.432  18.143  0.00  0.00    +0.000 A 
ATOM      9  C   UNL     1       1.743   9.225  18.948  0.00  0.00    +0.000 A 
ATOM     10  C   UNL     1       1.210   8.747  20.160  0.00  0.00    +0.000 A 
ATOM     11  C   UNL     1       1.551   7.436  20.540  0.00  0.00    +0.000 A 
ATOM     12  C   UNL     1       2.394   6.643  19.747  0.00  0.00    +0.000 A 
ENDROOT
BRANCH  10  13
ATOM     13  C   UNL     1       0.332   9.596  21.003  0.00  0.00    +0.000 A 
ATOM     14  C   UNL     1      -0.293  10.746  20.485  0.00  0.00    +0.000 A 
ATOM     15  C   UNL     1      -1.104  11.561  21.281  0.00  0.00    +0.000 A 
ATOM     16  C   UNL     1      -1.323  11.237  22.615  0.00  0.00    +0.000 A 
ATOM     17  C   UNL     1      -0.729  10.099  23.152  0.00  0.00    +0.000 A 
ATOM     18  C   UNL     1       0.093   9.293  22.357  0.00  0.00    +0.000 A 
ENDBRANCH  10  13
BRANCH   4  19
ATOM     19  N   UNL     1       5.094   4.222  17.504  0.00  0.00    +0.000 N 
ATOM     20  O   UNL     1       4.633   3.428  16.673  0.00  0.00    +0.000 OA
ATOM     21  O   UNL     1       6.293   4.407  17.753  0.00  0.00    +0.000 OA
ENDBRANCH   4  19
BRANCH   3  22
ATOM     22  O   UNL     1       4.060   3.248  19.898  0.00  0.00    +0.000 OA
ATOM     23  H   UNL     1       3.227   2.731  19.973  0.00  0.00    +0.000 HD
ENDBRANCH   3  22
TORSDOF 3
ENDMDL
MODEL 6
REMARK VINA RESULT:      -7.6      4.375      7.873
REMARK  Name = 
REMARK  3 active torsions:
REMARK  status: ('A' for Active; 'I' for Inactive)
REMARK    1  A    between atoms: C_3  and  O_4
REMARK    2  A    between atoms: C_5  and  N_6
REMARK    3  A    between atoms: C_14  and  C_15
REMARK                            x       y       z     vdW  Elec       q    Type
REMARK                         _______ _______ _______ _____ _____    ______ ____
ROOT
ATOM      1  O   UNL     1       2.300   4.804  21.250  0.00  0.00    +0.000 OA
ATOM      2  C   UNL     1       2.740   5.281  20.210  0.00  0.00    +0.000 C 
ATOM      3  C   UNL     1       3.682   4.474  19.397  0.00  0.00    +0.000 C 
ATOM      4  C   UNL     1       4.137   4.983  18.249  0.00  0.00    +0.000 C 
ATOM      5  C   UNL     1       3.772   6.292  17.703  0.00  0.00    +0.000 C 
ATOM      6  O   UNL     1       4.151   6.703  16.616  0.00  0.00    +0.000 OA
ATOM      7  C   UNL     1       2.893   7.127  18.549  0.00  0.00    +0.000 A 
ATOM      8  C   UNL     1       2.570   8.423  18.144  0.00  0.00    +0.000 A 
ATOM      9  C   UNL     1       1.752   9.223  18.951  0.00  0.00    +0.000 A 
ATOM     10  C   UNL     1       1.219   8.751  20.165  0.00  0.00    +0.000 A 
ATOM     11  C   UNL     1       1.553   7.438  20.546  0.00  0.00    +0.000 A 
ATOM     12  C   UNL     1       2.389   6.638  19.752  0.00  0.00    +0.000 A 
ENDROOT
BRANCH  10  13
ATOM     13  C   UNL     1       0.350   9.606  21.009  0.00  0.00    +0.000 A 
ATOM     14  C   UNL     1       0.121   9.307  22.366  0.00  0.00    +0.000 A 
ATOM     15  C   UNL     1      -0.715  10.098  23.160  0.00  0.00    +0.000 A 
ATOM     16  C   UNL     1      -1.332  11.221  22.620  0.00  0.00    +0.000 A 
ATOM     17  C   UNL     1      -1.114  11.550  21.286  0.00  0.00    +0.000 A 
ATOM     18  C   UNL     1      -0.288  10.749  20.490  0.00  0.00    +0.000 A 
ENDBRANCH  10  13
BRANCH   4  19
ATOM     19  N   UNL     1       5.067   4.197  17.504  0.00  0.00    +0.000 N 
ATOM     20  O   UNL     1       4.597   3.394  16.686  0.00  0.00    +0.000 OA
ATOM     21  O   UNL     1       6.268   4.385  17.739  0.00  0.00    +0.000 OA
ENDBRANCH   4  19
BRANCH   3  22
ATOM     22  O   UNL     1       4.034   3.233  19.903  0.00  0.00    +0.000 OA
ATOM     23  H   UNL     1       4.938   3.045  19.566  0.00  0.00    +0.000 HD
ENDBRANCH   3  22
TORSDOF 3
ENDMDL
MODEL 7
REMARK VINA RESULT:      -7.4      3.649      6.646
REMARK  Name = 
REMARK  3 active torsions:
REMARK  status: ('A' for Active; 'I' for Inactive)
REMARK    1  A    between atoms: C_3  and  O_4
REMARK    2  A    between atoms: C_5  and  N_6
REMARK    3  A    between atoms: C_14  and  C_15
REMARK                            x       y       z     vdW  Elec       q    Type
REMARK                         _______ _______ _______ _____ _____    ______ ____
ROOT
ATOM      1  O   UNL     1       4.402   6.025  16.932  0.00  0.00    +0.000 OA
ATOM      2  C   UNL     1       3.951   5.420  17.898  0.00  0.00    +0.000 C 
ATOM      3  C   UNL     1       4.316   3.995  18.081  0.00  0.00    +0.000 C 
ATOM      4  C   UNL     1       3.848   3.346  19.151  0.00  0.00    +0.000 C 
ATOM      5  C   UNL     1       2.995   3.932  20.188  0.00  0.00    +0.000 C 
ATOM      6  O   UNL     1       2.637   3.332  21.191  0.00  0.00    +0.000 OA
ATOM      7  C   UNL     1       2.569   5.330  19.964  0.00  0.00    +0.000 A 
ATOM      8  C   UNL     1       1.684   5.935  20.858  0.00  0.00    +0.000 A 
ATOM      9  C   UNL     1       1.265   7.253  20.642  0.00  0.00    +0.000 A 
ATOM     10  C   UNL     1       1.729   8.008  19.547  0.00  0.00    +0.000 A 
ATOM     11  C   UNL     1       2.627   7.378  18.667  0.00  0.00    +0.000 A 
ATOM     12  C   UNL     1       3.035   6.050  18.867  0.00  0.00    +0.000 A 
ENDROOT
BRANCH  10  13
ATOM     13  C   UNL     1       1.281   9.405  19.331  0.00  0.00    +0.000 A 
ATOM     14  C   UNL     1       1.934  10.251  18.413  0.00  0.00    +0.000 A 
ATOM     15  C   UNL     1       1.529  11.576  18.221  0.00  0.00    +0.000 A 
ATOM     16  C   UNL     1       0.448  12.084  18.932  0.00  0.00    +0.000 A 
ATOM     17  C   UNL     1      -0.226  11.269  19.836  0.00  0.00    +0.000 A 
ATOM     18  C   UNL     1       0.190   9.948  20.036  0.00  0.00    +0.000 A 
ENDBRANCH  10  13
BRANCH   4  19
ATOM     19  N   UNL     1       4.190   1.966  19.285  0.00  0.00    +0.000 N 
ATOM     20  O   UNL     1       3.641   1.173  18.509  0.00  0.00    +0.000 OA
ATOM     21  O   UNL     1       5.008   1.679  20.169  0.00  0.00    +0.000 OA
ENDBRANCH   4  19
BRANCH   3  22
ATOM     22  O   UNL     1       5.124   3.430  17.108  0.00  0.00    +0.000 OA
ATOM     23  H   UNL     1       6.012   3.323  17.516  0.00  0.00    +0.000 HD
ENDBRANCH   3  22
TORSDOF 3
ENDMDL
MODEL 8
REMARK VINA RESULT:      -7.4      3.676      6.691
REMARK  Name = 
REMARK  3 active torsions:
REMARK  status: ('A' for Active; 'I' for Inactive)
REMARK    1  A    between atoms: C_3  and  O_4
REMARK    2  A    between atoms: C_5  and  N_6
REMARK    3  A    between atoms: C_14  and  C_15
REMARK                            x       y       z     vdW  Elec       q    Type
REMARK                         _______ _______ _______ _____ _____    ______ ____
ROOT
ATOM      1  O   UNL     1       4.390   6.079  16.974  0.00  0.00    +0.000 OA
ATOM      2  C   UNL     1       3.936   5.466  17.933  0.00  0.00    +0.000 C 
ATOM      3  C   UNL     1       4.304   4.040  18.107  0.00  0.00    +0.000 C 
ATOM      4  C   UNL     1       3.833   3.382  19.170  0.00  0.00    +0.000 C 
ATOM      5  C   UNL     1       2.974   3.958  20.208  0.00  0.00    +0.000 C 
ATOM      6  O   UNL     1       2.613   3.350  21.205  0.00  0.00    +0.000 OA
ATOM      7  C   UNL     1       2.545   5.357  19.993  0.00  0.00    +0.000 A 
ATOM      8  C   UNL     1       1.655   5.953  20.888  0.00  0.00    +0.000 A 
ATOM      9  C   UNL     1       1.233   7.272  20.679  0.00  0.00    +0.000 A 
ATOM     10  C   UNL     1       1.700   8.036  19.593  0.00  0.00    +0.000 A 
ATOM     11  C   UNL     1       2.604   7.415  18.711  0.00  0.00    +0.000 A 
ATOM     12  C   UNL     1       3.015   6.086  18.904  0.00  0.00    +0.000 A 
ENDROOT
BRANCH  10  13
ATOM     13  C   UNL     1       1.250   9.434  19.385  0.00  0.00    +0.000 A 
ATOM     14  C   UNL     1       0.148   9.961  20.085  0.00  0.00    +0.000 A 
ATOM     15  C   UNL     1      -0.293  11.272  19.876  0.00  0.00    +0.000 A 
ATOM     16  C   UNL     1       0.368  12.094  18.971  0.00  0.00    +0.000 A 
ATOM     17  C   UNL     1       1.468  11.606  18.274  0.00  0.00    +0.000 A 
ATOM     18  C   UNL     1       1.899  10.290  18.475  0.00  0.00    +0.000 A 
ENDBRANCH  10  13
BRANCH   4  19
ATOM     19  N   UNL     1       4.178   2.002  19.295  0.00  0.00    +0.000 N 
ATOM     20  O   UNL     1       4.996   1.705  20.175  0.00  0.00    +0.000 OA
ATOM     21  O   UNL     1       3.628   1.218  18.511  0.00  0.00    +0.000 OA
ENDBRANCH   4  19
BRANCH   3  22
ATOM     22  O   UNL     1       5.117   3.485  17.134  0.00  0.00    +0.000 OA
ATOM     23  H   UNL     1       6.016   3.425  17.527  0.00  0.00    +0.000 HD
ENDBRANCH   3  22
TORSDOF 3
ENDMDL
MODEL 9
REMARK VINA RESULT:      -7.3      4.288      6.228
REMARK  Name = 
REMARK  3 active torsions:
REMARK  status: ('A' for Active; 'I' for Inactive)
REMARK    1  A    between atoms: C_3  and  O_4
REMARK    2  A    between atoms: C_5  and  N_6
REMARK    3  A    between atoms: C_14  and  C_15
REMARK                            x       y       z     vdW  Elec       q    Type
REMARK                         _______ _______ _______ _____ _____    ______ ____
ROOT
ATOM      1  O   UNL     1       1.995  10.665  17.404  0.00  0.00    +0.000 OA
ATOM      2  C   UNL     1       1.606  10.163  18.452  0.00  0.00    +0.000 C 
ATOM      3  C   UNL     1       0.811  10.994  19.388  0.00  0.00    +0.000 C 
ATOM      4  C   UNL     1       0.362  10.437  20.516  0.00  0.00    +0.000 C 
ATOM      5  C   UNL     1       0.581   9.045  20.916  0.00  0.00    +0.000 C 
ATOM      6  O   UNL     1       0.100   8.544  21.922  0.00  0.00    +0.000 OA
ATOM      7  C   UNL     1       1.437   8.239  20.020  0.00  0.00    +0.000 A 
ATOM      8  C   UNL     1       1.769   6.929  20.373  0.00  0.00    +0.000 A 
ATOM      9  C   UNL     1       2.593   6.168  19.535  0.00  0.00    +0.000 A 
ATOM     10  C   UNL     1       3.090   6.679  18.321  0.00  0.00    +0.000 A 
ATOM     11  C   UNL     1       2.734   7.998  17.985  0.00  0.00    +0.000 A 
ATOM     12  C   UNL     1       1.924   8.773  18.830  0.00  0.00    +0.000 A 
ENDROOT
BRANCH  10  13
ATOM     13  C   UNL     1       3.960   5.862  17.440  0.00  0.00    +0.000 A 
ATOM     14  C   UNL     1       3.925   4.455  17.477  0.00  0.00    +0.000 A 
ATOM     15  C   UNL     1       4.758   3.680  16.664  0.00  0.00    +0.000 A 
ATOM     16  C   UNL     1       5.637   4.295  15.779  0.00  0.00    +0.000 A 
ATOM     17  C   UNL     1       5.684   5.683  15.711  0.00  0.00    +0.000 A 
ATOM     18  C   UNL     1       4.860   6.456  16.535  0.00  0.00    +0.000 A 
ENDBRANCH  10  13
BRANCH   4  19
ATOM     19  N   UNL     1      -0.374  11.269  21.413  0.00  0.00    +0.000 N 
ATOM     20  O   UNL     1       0.166  11.547  22.493  0.00  0.00    +0.000 OA
ATOM     21  O   UNL     1      -1.491  11.643  21.035  0.00  0.00    +0.000 OA
ENDBRANCH   4  19
BRANCH   3  22
ATOM     22  O   UNL     1       0.596  12.312  19.021  0.00  0.00    +0.000 OA
ATOM     23  H   UNL     1      -0.367  12.475  19.134  0.00  0.00    +0.000 HD
ENDBRANCH   3  22
TORSDOF 3
ENDMDL
