MODEL 1
REMARK VINA RESULT:      -7.9      0.000      0.000
REMARK  Name = 
REMARK  16 active torsions:
REMARK  status: ('A' for Active; 'I' for Inactive)
REMARK    1  A    between atoms: C_1  and  C_2
REMARK    2  A    between atoms: C_2  and  C_3
REMARK    3  A    between atoms: C_2  and  C_4
REMARK    4  A    between atoms: C_7  and  O_8
REMARK    5  A    between atoms: O_8  and  C_9
REMARK    6  A    between atoms: C_11  and  C_12
REMARK    7  A    between atoms: C_12  and  O_13
REMARK    8  A    between atoms: C_14  and  O_15
REMARK    9  A    between atoms: C_16  and  O_17
REMARK   10  A    between atoms: C_18  and  O_19
REMARK   11  A    between atoms: C_20  and  C_21
REMARK   12  A    between atoms: C_21  and  C_22
REMARK   13  A    between atoms: C_25  and  C_26
REMARK   14  A    between atoms: C_26  and  C_27
REMARK   15  A    between atoms: C_27  and  C_28
REMARK   16  A    between atoms: C_28  and  C_29
REMARK                            x       y       z     vdW  Elec       q    Type
REMARK                         _______ _______ _______ _____ _____    ______ ____
ROOT
ATOM      1  C   UNL     1       0.872   9.078  20.639  0.00  0.00    +0.000 A 
ATOM      2  N   UNL     1       1.422   7.955  21.210  0.00  0.00    +0.000 N 
ATOM      3  N   UNL     1       2.080   7.166  20.354  0.00  0.00    +0.000 NA
ATOM      4  C   UNL     1       1.976   7.819  19.200  0.00  0.00    +0.000 A 
ATOM      5  C   UNL     1       1.194   8.997  19.286  0.00  0.00    +0.000 A 
ATOM      6  H   UNL     1       1.398   7.685  22.187  0.00  0.00    +0.000 HD
ENDROOT
BRANCH   1   8
ATOM      7  C   UNL     1      -0.095   9.578  22.900  0.00  0.00    +0.000 C 
ATOM      8  C   UNL     1       0.143  10.096  21.475  0.00  0.00    +0.000 C 
ATOM      9  C   UNL     1       0.882  11.443  21.488  0.00  0.00    +0.000 C 
ENDBRANCH   1   8
BRANCH   4  10
ATOM     10  O   UNL     1       2.579   7.352  18.084  0.00  0.00    +0.000 OA
BRANCH  10  11
ATOM     11  C   UNL     1       3.695   6.496  18.337  0.00  0.00    +0.000 C 
ATOM     12  O   UNL     1       4.863   6.979  17.655  0.00  0.00    +0.000 OA
ATOM     13  C   UNL     1       6.026   6.204  17.943  0.00  0.00    +0.000 C 
ATOM     14  C   UNL     1       5.840   4.776  17.403  0.00  0.00    +0.000 C 
ATOM     15  C   UNL     1       4.567   4.160  18.009  0.00  0.00    +0.000 C 
ATOM     16  C   UNL     1       3.352   5.083  17.802  0.00  0.00    +0.000 C 
BRANCH  14  17
ATOM     17  O   UNL     1       6.995   3.975  17.678  0.00  0.00    +0.000 OA
ATOM     18  H   UNL     1       7.375   4.264  18.530  0.00  0.00    +0.000 HD
ENDBRANCH  14  17
BRANCH  15  19
ATOM     19  O   UNL     1       4.338   2.856  17.465  0.00  0.00    +0.000 OA
ATOM     20  H   UNL     1       4.950   2.230  17.891  0.00  0.00    +0.000 HD
ENDBRANCH  15  19
BRANCH  16  21
ATOM     21  O   UNL     1       2.191   4.525  18.437  0.00  0.00    +0.000 OA
ATOM     22  H   UNL     1       2.380   3.601  18.676  0.00  0.00    +0.000 HD
ENDBRANCH  16  21
BRANCH  13  23
ATOM     23  C   UNL     1       7.247   6.897  17.321  0.00  0.00    +0.000 C 
BRANCH  23  24
ATOM     24  O   UNL     1       7.601   6.346  16.059  0.00  0.00    +0.000 OA
ATOM     25  H   UNL     1       6.768   6.069  15.622  0.00  0.00    +0.000 HD
ENDBRANCH  23  24
ENDBRANCH  13  23
ENDBRANCH  10  11
ENDBRANCH   4  10
BRANCH   5  26
ATOM     26  C   UNL     1       0.962   9.963  18.183  0.00  0.00    +0.000 C 
BRANCH  26  27
ATOM     27  C   UNL     1      -0.504  10.322  18.124  0.00  0.00    +0.000 A 
ATOM     28  C   UNL     1      -0.947  11.569  18.583  0.00  0.00    +0.000 A 
ATOM     29  C   UNL     1      -2.255  12.001  18.336  0.00  0.00    +0.000 A 
ATOM     30  C   UNL     1      -3.150  11.200  17.612  0.00  0.00    +0.000 A 
ATOM     31  C   UNL     1      -2.738   9.917  17.231  0.00  0.00    +0.000 A 
ATOM     32  C   UNL     1      -1.431   9.483  17.484  0.00  0.00    +0.000 A 
BRANCH  30  33
ATOM     33  C   UNL     1      -4.516  11.714  17.227  0.00  0.00    +0.000 C 
BRANCH  33  34
ATOM     34  C   UNL     1      -5.681  10.899  17.810  0.00  0.00    +0.000 C 
BRANCH  34  35
ATOM     35  C   UNL     1      -6.240  11.476  19.115  0.00  0.00    +0.000 C 
BRANCH  35  36
ATOM     36  C   UNL     1      -7.016  10.439  19.899  0.00  0.00    +0.000 C 
ATOM     37  N   UNL     1      -7.448   9.377  19.147  0.00  0.00    +0.000 N 
ATOM     38  O   UNL     1      -7.260  10.499  21.096  0.00  0.00    +0.000 OA
ATOM     39  H   UNL     1      -7.271   9.285  18.167  0.00  0.00    +0.000 HD
ATOM     40  H   UNL     1      -7.982   8.660  19.628  0.00  0.00    +0.000 HD
ENDBRANCH  35  36
ENDBRANCH  34  35
ENDBRANCH  33  34
ENDBRANCH  30  33
ENDBRANCH  26  27
ENDBRANCH   5  26
TORSDOF 14
ENDMDL
MODEL 2
REMARK VINA RESULT:      -7.8      3.607      9.826
REMARK  Name = 
REMARK  16 active torsions:
REMARK  status: ('A' for Active; 'I' for Inactive)
REMARK    1  A    between atoms: C_1  and  C_2
REMARK    2  A    between atoms: C_2  and  C_3
REMARK    3  A    between atoms: C_2  and  C_4
REMARK    4  A    between atoms: C_7  and  O_8
REMARK    5  A    between atoms: O_8  and  C_9
REMARK    6  A    between atoms: C_11  and  C_12
REMARK    7  A    between atoms: C_12  and  O_13
REMARK    8  A    between atoms: C_14  and  O_15
REMARK    9  A    between atoms: C_16  and  O_17
REMARK   10  A    between atoms: C_18  and  O_19
REMARK   11  A    between atoms: C_20  and  C_21
REMARK   12  A    between atoms: C_21  and  C_22
REMARK   13  A    between atoms: C_25  and  C_26
REMARK   14  A    between atoms: C_26  and  C_27
REMARK   15  A    between atoms: C_27  and  C_28
REMARK   16  A    between atoms: C_28  and  C_29
REMARK                            x       y       z     vdW  Elec       q    Type
REMARK                         _______ _______ _______ _____ _____    ______ ____
ROOT
ATOM      1  C   UNL     1       1.853   5.986  20.546  0.00  0.00    +0.000 A 
ATOM      2  N   UNL     1       1.681   6.876  21.581  0.00  0.00    +0.000 N 
ATOM      3  N   UNL     1       1.584   8.154  21.199  0.00  0.00    +0.000 NA
ATOM      4  C   UNL     1       1.666   8.081  19.873  0.00  0.00    +0.000 A 
ATOM      5  C   UNL     1       1.884   6.767  19.393  0.00  0.00    +0.000 A 
ATOM      6  H   UNL     1       1.601   6.666  22.570  0.00  0.00    +0.000 HD
ENDROOT
BRANCH   1   8
ATOM      7  C   UNL     1       0.871   3.745  19.988  0.00  0.00    +0.000 C 
ATOM      8  C   UNL     1       1.926   4.504  20.803  0.00  0.00    +0.000 C 
ATOM      9  C   UNL     1       3.338   3.960  20.533  0.00  0.00    +0.000 C 
ENDBRANCH   1   8
BRANCH   4  10
ATOM     10  O   UNL     1       1.548   9.191  19.111  0.00  0.00    +0.000 OA
BRANCH  10  11
ATOM     11  C   UNL     1       0.279   9.840  19.216  0.00  0.00    +0.000 C 
ATOM     12  O   UNL     1      -0.367   9.887  17.933  0.00  0.00    +0.000 OA
ATOM     13  C   UNL     1      -1.676  10.453  18.001  0.00  0.00    +0.000 C 
ATOM     14  C   UNL     1      -1.579  11.927  18.427  0.00  0.00    +0.000 C 
ATOM     15  C   UNL     1      -0.835  12.025  19.770  0.00  0.00    +0.000 C 
ATOM     16  C   UNL     1       0.516  11.288  19.711  0.00  0.00    +0.000 C 
BRANCH  14  17
ATOM     17  O   UNL     1      -2.880  12.521  18.501  0.00  0.00    +0.000 OA
ATOM     18  H   UNL     1      -2.942  13.214  17.817  0.00  0.00    +0.000 HD
ENDBRANCH  14  17
BRANCH  15  19
ATOM     19  O   UNL     1      -0.672  13.396  20.150  0.00  0.00    +0.000 OA
ATOM     20  H   UNL     1       0.041  13.452  20.811  0.00  0.00    +0.000 HD
ENDBRANCH  15  19
BRANCH  16  21
ATOM     21  O   UNL     1       1.160  11.329  20.993  0.00  0.00    +0.000 OA
ATOM     22  H   UNL     1       1.722  10.540  21.086  0.00  0.00    +0.000 HD
ENDBRANCH  16  21
BRANCH  13  23
ATOM     23  C   UNL     1      -2.352  10.297  16.631  0.00  0.00    +0.000 C 
BRANCH  23  24
ATOM     24  O   UNL     1      -2.400  11.519  15.905  0.00  0.00    +0.000 OA
ATOM     25  H   UNL     1      -2.570  12.233  16.555  0.00  0.00    +0.000 HD
ENDBRANCH  23  24
ENDBRANCH  13  23
ENDBRANCH  10  11
ENDBRANCH   4  10
BRANCH   5  26
ATOM     26  C   UNL     1       1.946   6.367  17.964  0.00  0.00    +0.000 C 
BRANCH  26  27
ATOM     27  C   UNL     1       3.345   5.909  17.626  0.00  0.00    +0.000 A 
ATOM     28  C   UNL     1       3.592   4.569  17.302  0.00  0.00    +0.000 A 
ATOM     29  C   UNL     1       4.828   4.175  16.776  0.00  0.00    +0.000 A 
ATOM     30  C   UNL     1       5.844   5.114  16.552  0.00  0.00    +0.000 A 
ATOM     31  C   UNL     1       5.632   6.436  16.961  0.00  0.00    +0.000 A 
ATOM     32  C   UNL     1       4.397   6.829  17.491  0.00  0.00    +0.000 A 
BRANCH  30  33
ATOM     33  C   UNL     1       7.129   4.720  15.864  0.00  0.00    +0.000 C 
BRANCH  33  34
ATOM     34  C   UNL     1       7.074   4.812  14.331  0.00  0.00    +0.000 C 
BRANCH  34  35
ATOM     35  C   UNL     1       6.110   3.806  13.692  0.00  0.00    +0.000 C 
BRANCH  35  36
ATOM     36  C   UNL     1       6.520   3.461  12.275  0.00  0.00    +0.000 C 
ATOM     37  N   UNL     1       5.975   2.295  11.804  0.00  0.00    +0.000 N 
ATOM     38  O   UNL     1       7.265   4.132  11.575  0.00  0.00    +0.000 OA
ATOM     39  H   UNL     1       5.360   1.715  12.340  0.00  0.00    +0.000 HD
ATOM     40  H   UNL     1       6.229   2.016  10.861  0.00  0.00    +0.000 HD
ENDBRANCH  35  36
ENDBRANCH  34  35
ENDBRANCH  33  34
ENDBRANCH  30  33
ENDBRANCH  26  27
ENDBRANCH   5  26
TORSDOF 14
ENDMDL
MODEL 3
REMARK VINA RESULT:      -7.7      1.297      1.693
REMARK  Name = 
REMARK  16 active torsions:
REMARK  status: ('A' for Active; 'I' for Inactive)
REMARK    1  A    between atoms: C_1  and  C_2
REMARK    2  A    between atoms: C_2  and  C_3
REMARK    3  A    between atoms: C_2  and  C_4
REMARK    4  A    between atoms: C_7  and  O_8
REMARK    5  A    between atoms: O_8  and  C_9
REMARK    6  A    between atoms: C_11  and  C_12
REMARK    7  A    between atoms: C_12  and  O_13
REMARK    8  A    between atoms: C_14  and  O_15
REMARK    9  A    between atoms: C_16  and  O_17
REMARK   10  A    between atoms: C_18  and  O_19
REMARK   11  A    between atoms: C_20  and  C_21
REMARK   12  A    between atoms: C_21  and  C_22
REMARK   13  A    between atoms: C_25  and  C_26
REMARK   14  A    between atoms: C_26  and  C_27
REMARK   15  A    between atoms: C_27  and  C_28
REMARK   16  A    between atoms: C_28  and  C_29
REMARK                            x       y       z     vdW  Elec       q    Type
REMARK                         _______ _______ _______ _____ _____    ______ ____
ROOT
ATOM      1  C   UNL     1       1.438   8.267  20.419  0.00  0.00    +0.000 A 
ATOM      2  N   UNL     1       1.744   6.984  20.805  0.00  0.00    +0.000 N 
ATOM      3  N   UNL     1       2.372   6.261  19.871  0.00  0.00    +0.000 NA
ATOM      4  C   UNL     1       2.500   7.118  18.861  0.00  0.00    +0.000 A 
ATOM      5  C   UNL     1       1.898   8.376  19.109  0.00  0.00    +0.000 A 
ATOM      6  H   UNL     1       1.568   6.551  21.706  0.00  0.00    +0.000 HD
ENDROOT
BRANCH   1   8
ATOM      7  C   UNL     1      -0.706   8.885  21.569  0.00  0.00    +0.000 C 
ATOM      8  C   UNL     1       0.777   9.227  21.373  0.00  0.00    +0.000 C 
ATOM      9  C   UNL     1       1.520   9.279  22.718  0.00  0.00    +0.000 C 
ENDBRANCH   1   8
BRANCH   4  10
ATOM     10  O   UNL     1       3.151   6.763  17.731  0.00  0.00    +0.000 OA
BRANCH  10  11
ATOM     11  C   UNL     1       4.328   5.985  17.955  0.00  0.00    +0.000 C 
ATOM     12  O   UNL     1       5.504   6.791  17.774  0.00  0.00    +0.000 OA
ATOM     13  C   UNL     1       6.706   6.080  18.068  0.00  0.00    +0.000 C 
ATOM     14  C   UNL     1       6.883   4.930  17.063  0.00  0.00    +0.000 C 
ATOM     15  C   UNL     1       5.644   4.017  17.105  0.00  0.00    +0.000 C 
ATOM     16  C   UNL     1       4.350   4.832  16.921  0.00  0.00    +0.000 C 
BRANCH  14  17
ATOM     17  O   UNL     1       8.084   4.199  17.334  0.00  0.00    +0.000 OA
ATOM     18  H   UNL     1       8.186   4.122  18.302  0.00  0.00    +0.000 HD
ENDBRANCH  14  17
BRANCH  15  19
ATOM     19  O   UNL     1       5.758   2.979  16.126  0.00  0.00    +0.000 OA
ATOM     20  H   UNL     1       5.467   2.141  16.527  0.00  0.00    +0.000 HD
ENDBRANCH  15  19
BRANCH  16  21
ATOM     21  O   UNL     1       3.204   3.974  17.036  0.00  0.00    +0.000 OA
ATOM     22  H   UNL     1       3.121   3.452  16.219  0.00  0.00    +0.000 HD
ENDBRANCH  16  21
BRANCH  13  23
ATOM     23  C   UNL     1       7.884   7.064  18.024  0.00  0.00    +0.000 C 
BRANCH  23  24
ATOM     24  O   UNL     1       7.617   8.196  17.206  0.00  0.00    +0.000 OA
ATOM     25  H   UNL     1       8.438   8.733  17.181  0.00  0.00    +0.000 HD
ENDBRANCH  23  24
ENDBRANCH  13  23
ENDBRANCH  10  11
ENDBRANCH   4  10
BRANCH   5  26
ATOM     26  C   UNL     1       1.941   9.549  18.200  0.00  0.00    +0.000 C 
BRANCH  26  27
ATOM     27  C   UNL     1       0.638  10.308  18.289  0.00  0.00    +0.000 A 
ATOM     28  C   UNL     1      -0.554   9.723  17.845  0.00  0.00    +0.000 A 
ATOM     29  C   UNL     1      -1.792  10.317  18.119  0.00  0.00    +0.000 A 
ATOM     30  C   UNL     1      -1.867  11.507  18.857  0.00  0.00    +0.000 A 
ATOM     31  C   UNL     1      -0.673  12.141  19.223  0.00  0.00    +0.000 A 
ATOM     32  C   UNL     1       0.564  11.548  18.942  0.00  0.00    +0.000 A 
BRANCH  30  33
ATOM     33  C   UNL     1      -3.200  12.082  19.270  0.00  0.00    +0.000 C 
BRANCH  33  34
ATOM     34  C   UNL     1      -4.395  11.534  18.474  0.00  0.00    +0.000 C 
BRANCH  34  35
ATOM     35  C   UNL     1      -5.752  12.015  18.997  0.00  0.00    +0.000 C 
BRANCH  35  36
ATOM     36  C   UNL     1      -6.547  10.884  19.616  0.00  0.00    +0.000 C 
ATOM     37  N   UNL     1      -6.993  11.143  20.886  0.00  0.00    +0.000 N 
ATOM     38  O   UNL     1      -6.795   9.818  19.070  0.00  0.00    +0.000 OA
ATOM     39  H   UNL     1      -6.815  12.000  21.371  0.00  0.00    +0.000 HD
ATOM     40  H   UNL     1      -7.523  10.409  21.347  0.00  0.00    +0.000 HD
ENDBRANCH  35  36
ENDBRANCH  34  35
ENDBRANCH  33  34
ENDBRANCH  30  33
ENDBRANCH  26  27
ENDBRANCH   5  26
TORSDOF 14
ENDMDL
MODEL 4
REMARK VINA RESULT:      -7.6      2.395      2.758
REMARK  Name = 
REMARK  16 active torsions:
REMARK  status: ('A' for Active; 'I' for Inactive)
REMARK    1  A    between atoms: C_1  and  C_2
REMARK    2  A    between atoms: C_2  and  C_3
REMARK    3  A    between atoms: C_2  and  C_4
REMARK    4  A    between atoms: C_7  and  O_8
REMARK    5  A    between atoms: O_8  and  C_9
REMARK    6  A    between atoms: C_11  and  C_12
REMARK    7  A    between atoms: C_12  and  O_13
REMARK    8  A    between atoms: C_14  and  O_15
REMARK    9  A    between atoms: C_16  and  O_17
REMARK   10  A    between atoms: C_18  and  O_19
REMARK   11  A    between atoms: C_20  and  C_21
REMARK   12  A    between atoms: C_21  and  C_22
REMARK   13  A    between atoms: C_25  and  C_26
REMARK   14  A    between atoms: C_26  and  C_27
REMARK   15  A    between atoms: C_27  and  C_28
REMARK   16  A    between atoms: C_28  and  C_29
REMARK                            x       y       z     vdW  Elec       q    Type
REMARK                         _______ _______ _______ _____ _____    ______ ____
ROOT
ATOM      1  C   UNL     1       1.491   8.144  20.433  0.00  0.00    +0.000 A 
ATOM      2  N   UNL     1       1.776   6.857  20.824  0.00  0.00    +0.000 N 
ATOM      3  N   UNL     1       2.355   6.107  19.880  0.00  0.00    +0.000 NA
ATOM      4  C   UNL     1       2.474   6.949  18.857  0.00  0.00    +0.000 A 
ATOM      5  C   UNL     1       1.914   8.225  19.107  0.00  0.00    +0.000 A 
ATOM      6  H   UNL     1       1.617   6.439  21.735  0.00  0.00    +0.000 HD
ENDROOT
BRANCH   1   8
ATOM      7  C   UNL     1      -0.550   8.737  21.767  0.00  0.00    +0.000 C 
ATOM      8  C   UNL     1       0.886   9.131  21.395  0.00  0.00    +0.000 C 
ATOM      9  C   UNL     1       1.761   9.300  22.647  0.00  0.00    +0.000 C 
ENDBRANCH   1   8
BRANCH   4  10
ATOM     10  O   UNL     1       3.081   6.565  17.712  0.00  0.00    +0.000 OA
BRANCH  10  11
ATOM     11  C   UNL     1       4.288   5.827  17.909  0.00  0.00    +0.000 C 
ATOM     12  O   UNL     1       5.431   6.676  17.715  0.00  0.00    +0.000 OA
ATOM     13  C   UNL     1       6.663   6.005  17.982  0.00  0.00    +0.000 C 
ATOM     14  C   UNL     1       6.863   4.870  16.965  0.00  0.00    +0.000 C 
ATOM     15  C   UNL     1       5.658   3.914  17.021  0.00  0.00    +0.000 C 
ATOM     16  C   UNL     1       4.332   4.683  16.866  0.00  0.00    +0.000 C 
BRANCH  14  17
ATOM     17  O   UNL     1       8.094   4.180  17.210  0.00  0.00    +0.000 OA
ATOM     18  H   UNL     1       8.832   4.782  16.999  0.00  0.00    +0.000 HD
ENDBRANCH  14  17
BRANCH  15  19
ATOM     19  O   UNL     1       5.791   2.887  16.032  0.00  0.00    +0.000 OA
ATOM     20  H   UNL     1       4.903   2.563  15.800  0.00  0.00    +0.000 HD
ENDBRANCH  15  19
BRANCH  16  21
ATOM     21  O   UNL     1       3.220   3.784  16.993  0.00  0.00    +0.000 OA
ATOM     22  H   UNL     1       3.408   2.979  16.481  0.00  0.00    +0.000 HD
ENDBRANCH  16  21
BRANCH  13  23
ATOM     23  C   UNL     1       7.805   7.031  17.926  0.00  0.00    +0.000 C 
BRANCH  23  24
ATOM     24  O   UNL     1       8.561   7.070  19.130  0.00  0.00    +0.000 OA
ATOM     25  H   UNL     1       8.829   8.002  19.271  0.00  0.00    +0.000 HD
ENDBRANCH  23  24
ENDBRANCH  13  23
ENDBRANCH  10  11
ENDBRANCH   4  10
BRANCH   5  26
ATOM     26  C   UNL     1       1.959   9.387  18.184  0.00  0.00    +0.000 C 
BRANCH  26  27
ATOM     27  C   UNL     1       0.785  10.298  18.457  0.00  0.00    +0.000 A 
ATOM     28  C   UNL     1      -0.521   9.867  18.196  0.00  0.00    +0.000 A 
ATOM     29  C   UNL     1      -1.623  10.605  18.644  0.00  0.00    +0.000 A 
ATOM     30  C   UNL     1      -1.444  11.788  19.374  0.00  0.00    +0.000 A 
ATOM     31  C   UNL     1      -0.141  12.269  19.556  0.00  0.00    +0.000 A 
ATOM     32  C   UNL     1       0.960  11.532  19.103  0.00  0.00    +0.000 A 
BRANCH  30  33
ATOM     33  C   UNL     1      -2.622  12.518  19.973  0.00  0.00    +0.000 C 
BRANCH  33  34
ATOM     34  C   UNL     1      -2.757  12.350  21.495  0.00  0.00    +0.000 C 
BRANCH  34  35
ATOM     35  C   UNL     1      -3.982  13.057  22.083  0.00  0.00    +0.000 C 
BRANCH  35  36
ATOM     36  C   UNL     1      -4.079  12.857  23.581  0.00  0.00    +0.000 C 
ATOM     37  N   UNL     1      -4.482  13.972  24.270  0.00  0.00    +0.000 N 
ATOM     38  O   UNL     1      -3.834  11.812  24.168  0.00  0.00    +0.000 OA
ATOM     39  H   UNL     1      -4.694  14.846  23.831  0.00  0.00    +0.000 HD
ATOM     40  H   UNL     1      -4.551  13.889  25.279  0.00  0.00    +0.000 HD
ENDBRANCH  35  36
ENDBRANCH  34  35
ENDBRANCH  33  34
ENDBRANCH  30  33
ENDBRANCH  26  27
ENDBRANCH   5  26
TORSDOF 14
ENDMDL
MODEL 5
REMARK VINA RESULT:      -7.4      3.699      9.740
REMARK  Name = 
REMARK  16 active torsions:
REMARK  status: ('A' for Active; 'I' for Inactive)
REMARK    1  A    between atoms: C_1  and  C_2
REMARK    2  A    between atoms: C_2  and  C_3
REMARK    3  A    between atoms: C_2  and  C_4
REMARK    4  A    between atoms: C_7  and  O_8
REMARK    5  A    between atoms: O_8  and  C_9
REMARK    6  A    between atoms: C_11  and  C_12
REMARK    7  A    between atoms: C_12  and  O_13
REMARK    8  A    between atoms: C_14  and  O_15
REMARK    9  A    between atoms: C_16  and  O_17
REMARK   10  A    between atoms: C_18  and  O_19
REMARK   11  A    between atoms: C_20  and  C_21
REMARK   12  A    between atoms: C_21  and  C_22
REMARK   13  A    between atoms: C_25  and  C_26
REMARK   14  A    between atoms: C_26  and  C_27
REMARK   15  A    between atoms: C_27  and  C_28
REMARK   16  A    between atoms: C_28  and  C_29
REMARK                            x       y       z     vdW  Elec       q    Type
REMARK                         _______ _______ _______ _____ _____    ______ ____
ROOT
ATOM      1  C   UNL     1       1.935   5.559  20.288  0.00  0.00    +0.000 A 
ATOM      2  N   UNL     1       1.733   6.235  21.468  0.00  0.00    +0.000 N 
ATOM      3  N   UNL     1       1.625   7.561  21.332  0.00  0.00    +0.000 NA
ATOM      4  C   UNL     1       1.730   7.741  20.018  0.00  0.00    +0.000 A 
ATOM      5  C   UNL     1       1.974   6.543  19.303  0.00  0.00    +0.000 A 
ATOM      6  H   UNL     1       1.639   5.841  22.397  0.00  0.00    +0.000 HD
ENDROOT
BRANCH   1   8
ATOM      7  C   UNL     1       2.184   3.483  21.677  0.00  0.00    +0.000 C 
ATOM      8  C   UNL     1       2.026   4.056  20.262  0.00  0.00    +0.000 C 
ATOM      9  C   UNL     1       0.819   3.435  19.541  0.00  0.00    +0.000 C 
ENDBRANCH   1   8
BRANCH   4  10
ATOM     10  O   UNL     1       1.608   8.973  19.476  0.00  0.00    +0.000 OA
BRANCH  10  11
ATOM     11  C   UNL     1       0.423   9.669  19.866  0.00  0.00    +0.000 C 
ATOM     12  O   UNL     1      -0.216  10.252  18.719  0.00  0.00    +0.000 OA
ATOM     13  C   UNL     1      -1.451  10.889  19.045  0.00  0.00    +0.000 C 
ATOM     14  C   UNL     1      -1.185  12.085  19.974  0.00  0.00    +0.000 C 
ATOM     15  C   UNL     1      -0.432  11.603  21.227  0.00  0.00    +0.000 C 
ATOM     16  C   UNL     1       0.825  10.800  20.843  0.00  0.00    +0.000 C 
BRANCH  14  17
ATOM     17  O   UNL     1      -2.409  12.744  20.316  0.00  0.00    +0.000 OA
ATOM     18  H   UNL     1      -2.223  13.394  21.021  0.00  0.00    +0.000 HD
ENDBRANCH  14  17
BRANCH  15  19
ATOM     19  O   UNL     1      -0.113  12.712  22.073  0.00  0.00    +0.000 OA
ATOM     20  H   UNL     1       0.855  12.818  22.093  0.00  0.00    +0.000 HD
ENDBRANCH  15  19
BRANCH  16  21
ATOM     21  O   UNL     1       1.472  10.298  22.023  0.00  0.00    +0.000 OA
ATOM     22  H   UNL     1       1.228  10.863  22.777  0.00  0.00    +0.000 HD
ENDBRANCH  16  21
BRANCH  13  23
ATOM     23  C   UNL     1      -2.143  11.320  17.743  0.00  0.00    +0.000 C 
BRANCH  23  24
ATOM     24  O   UNL     1      -1.426  12.338  17.057  0.00  0.00    +0.000 OA
ATOM     25  H   UNL     1      -1.692  13.194  17.454  0.00  0.00    +0.000 HD
ENDBRANCH  23  24
ENDBRANCH  13  23
ENDBRANCH  10  11
ENDBRANCH   4  10
BRANCH   5  26
ATOM     26  C   UNL     1       2.066   6.421  17.826  0.00  0.00    +0.000 C 
BRANCH  26  27
ATOM     27  C   UNL     1       3.450   5.953  17.441  0.00  0.00    +0.000 A 
ATOM     28  C   UNL     1       3.744   4.585  17.380  0.00  0.00    +0.000 A 
ATOM     29  C   UNL     1       4.943   4.133  16.817  0.00  0.00    +0.000 A 
ATOM     30  C   UNL     1       5.874   5.040  16.292  0.00  0.00    +0.000 A 
ATOM     31  C   UNL     1       5.625   6.410  16.435  0.00  0.00    +0.000 A 
ATOM     32  C   UNL     1       4.427   6.861  17.003  0.00  0.00    +0.000 A 
BRANCH  30  33
ATOM     33  C   UNL     1       7.106   4.555  15.566  0.00  0.00    +0.000 C 
BRANCH  33  34
ATOM     34  C   UNL     1       6.948   4.485  14.039  0.00  0.00    +0.000 C 
BRANCH  34  35
ATOM     35  C   UNL     1       5.569   3.993  13.588  0.00  0.00    +0.000 C 
BRANCH  35  36
ATOM     36  C   UNL     1       5.646   3.229  12.283  0.00  0.00    +0.000 C 
ATOM     37  N   UNL     1       6.860   2.635  12.053  0.00  0.00    +0.000 N 
ATOM     38  O   UNL     1       4.733   3.121  11.475  0.00  0.00    +0.000 OA
ATOM     39  H   UNL     1       7.633   2.695  12.685  0.00  0.00    +0.000 HD
ATOM     40  H   UNL     1       6.963   2.119  11.184  0.00  0.00    +0.000 HD
ENDBRANCH  35  36
ENDBRANCH  34  35
ENDBRANCH  33  34
ENDBRANCH  30  33
ENDBRANCH  26  27
ENDBRANCH   5  26
TORSDOF 14
ENDMDL
MODEL 6
REMARK VINA RESULT:      -7.4      2.084      2.468
REMARK  Name = 
REMARK  16 active torsions:
REMARK  status: ('A' for Active; 'I' for Inactive)
REMARK    1  A    between atoms: C_1  and  C_2
REMARK    2  A    between atoms: C_2  and  C_3
REMARK    3  A    between atoms: C_2  and  C_4
REMARK    4  A    between atoms: C_7  and  O_8
REMARK    5  A    between atoms: O_8  and  C_9
REMARK    6  A    between atoms: C_11  and  C_12
REMARK    7  A    between atoms: C_12  and  O_13
REMARK    8  A    between atoms: C_14  and  O_15
REMARK    9  A    between atoms: C_16  and  O_17
REMARK   10  A    between atoms: C_18  and  O_19
REMARK   11  A    between atoms: C_20  and  C_21
REMARK   12  A    between atoms: C_21  and  C_22
REMARK   13  A    between atoms: C_25  and  C_26
REMARK   14  A    between atoms: C_26  and  C_27
REMARK   15  A    between atoms: C_27  and  C_28
REMARK   16  A    between atoms: C_28  and  C_29
REMARK                            x       y       z     vdW  Elec       q    Type
REMARK                         _______ _______ _______ _____ _____    ______ ____
ROOT
ATOM      1  C   UNL     1       1.521   8.144  20.378  0.00  0.00    +0.000 A 
ATOM      2  N   UNL     1       1.786   6.854  20.774  0.00  0.00    +0.000 N 
ATOM      3  N   UNL     1       2.352   6.092  19.831  0.00  0.00    +0.000 NA
ATOM      4  C   UNL     1       2.483   6.929  18.805  0.00  0.00    +0.000 A 
ATOM      5  C   UNL     1       1.942   8.214  19.052  0.00  0.00    +0.000 A 
ATOM      6  H   UNL     1       1.622   6.442  21.686  0.00  0.00    +0.000 HD
ENDROOT
BRANCH   1   8
ATOM      7  C   UNL     1      -0.553   8.859  21.597  0.00  0.00    +0.000 C 
ATOM      8  C   UNL     1       0.932   9.144  21.338  0.00  0.00    +0.000 C 
ATOM      9  C   UNL     1       1.729   9.194  22.651  0.00  0.00    +0.000 C 
ENDBRANCH   1   8
BRANCH   4  10
ATOM     10  O   UNL     1       3.081   6.531  17.660  0.00  0.00    +0.000 OA
BRANCH  10  11
ATOM     11  C   UNL     1       4.297   5.806  17.857  0.00  0.00    +0.000 C 
ATOM     12  O   UNL     1       5.430   6.668  17.669  0.00  0.00    +0.000 OA
ATOM     13  C   UNL     1       6.669   6.010  17.936  0.00  0.00    +0.000 C 
ATOM     14  C   UNL     1       6.883   4.880  16.916  0.00  0.00    +0.000 C 
ATOM     15  C   UNL     1       5.689   3.911  16.966  0.00  0.00    +0.000 C 
ATOM     16  C   UNL     1       4.356   4.666  16.811  0.00  0.00    +0.000 C 
BRANCH  14  17
ATOM     17  O   UNL     1       8.121   4.203  17.161  0.00  0.00    +0.000 OA
ATOM     18  H   UNL     1       8.456   3.857  16.312  0.00  0.00    +0.000 HD
ENDBRANCH  14  17
BRANCH  15  19
ATOM     19  O   UNL     1       5.836   2.889  15.974  0.00  0.00    +0.000 OA
ATOM     20  H   UNL     1       6.747   2.917  15.633  0.00  0.00    +0.000 HD
ENDBRANCH  15  19
BRANCH  16  21
ATOM     21  O   UNL     1       3.253   3.754  16.933  0.00  0.00    +0.000 OA
ATOM     22  H   UNL     1       2.540   4.046  16.338  0.00  0.00    +0.000 HD
ENDBRANCH  16  21
BRANCH  13  23
ATOM     23  C   UNL     1       7.800   7.048  17.886  0.00  0.00    +0.000 C 
BRANCH  23  24
ATOM     24  O   UNL     1       8.535   7.112  19.101  0.00  0.00    +0.000 OA
ATOM     25  H   UNL     1       8.393   8.006  19.477  0.00  0.00    +0.000 HD
ENDBRANCH  23  24
ENDBRANCH  13  23
ENDBRANCH  10  11
ENDBRANCH   4  10
BRANCH   5  26
ATOM     26  C   UNL     1       2.004   9.371  18.124  0.00  0.00    +0.000 C 
BRANCH  26  27
ATOM     27  C   UNL     1       0.708  10.145  18.190  0.00  0.00    +0.000 A 
ATOM     28  C   UNL     1      -0.490   9.556  17.766  0.00  0.00    +0.000 A 
ATOM     29  C   UNL     1      -1.721  10.170  18.023  0.00  0.00    +0.000 A 
ATOM     30  C   UNL     1      -1.784  11.385  18.721  0.00  0.00    +0.000 A 
ATOM     31  C   UNL     1      -0.585  12.019  19.065  0.00  0.00    +0.000 A 
ATOM     32  C   UNL     1       0.647  11.406  18.803  0.00  0.00    +0.000 A 
BRANCH  30  33
ATOM     33  C   UNL     1      -3.112  11.985  19.118  0.00  0.00    +0.000 C 
BRANCH  33  34
ATOM     34  C   UNL     1      -3.084  12.746  20.452  0.00  0.00    +0.000 C 
BRANCH  34  35
ATOM     35  C   UNL     1      -4.459  12.866  21.118  0.00  0.00    +0.000 C 
BRANCH  35  36
ATOM     36  C   UNL     1      -4.905  14.310  21.224  0.00  0.00    +0.000 C 
ATOM     37  N   UNL     1      -5.057  14.939  20.016  0.00  0.00    +0.000 N 
ATOM     38  O   UNL     1      -5.123  14.903  22.272  0.00  0.00    +0.000 OA
ATOM     39  H   UNL     1      -4.892  14.494  19.136  0.00  0.00    +0.000 HD
ATOM     40  H   UNL     1      -5.345  15.913  20.037  0.00  0.00    +0.000 HD
ENDBRANCH  35  36
ENDBRANCH  34  35
ENDBRANCH  33  34
ENDBRANCH  30  33
ENDBRANCH  26  27
ENDBRANCH   5  26
TORSDOF 14
ENDMDL
MODEL 7
REMARK VINA RESULT:      -7.2      2.125      2.803
REMARK  Name = 
REMARK  16 active torsions:
REMARK  status: ('A' for Active; 'I' for Inactive)
REMARK    1  A    between atoms: C_1  and  C_2
REMARK    2  A    between atoms: C_2  and  C_3
REMARK    3  A    between atoms: C_2  and  C_4
REMARK    4  A    between atoms: C_7  and  O_8
REMARK    5  A    between atoms: O_8  and  C_9
REMARK    6  A    between atoms: C_11  and  C_12
REMARK    7  A    between atoms: C_12  and  O_13
REMARK    8  A    between atoms: C_14  and  O_15
REMARK    9  A    between atoms: C_16  and  O_17
REMARK   10  A    between atoms: C_18  and  O_19
REMARK   11  A    between atoms: C_20  and  C_21
REMARK   12  A    between atoms: C_21  and  C_22
REMARK   13  A    between atoms: C_25  and  C_26
REMARK   14  A    between atoms: C_26  and  C_27
REMARK   15  A    between atoms: C_27  and  C_28
REMARK   16  A    between atoms: C_28  and  C_29
REMARK                            x       y       z     vdW  Elec       q    Type
REMARK                         _______ _______ _______ _____ _____    ______ ____
ROOT
ATOM      1  C   UNL     1       1.484  12.048  18.662  0.00  0.00    +0.000 A 
ATOM      2  N   UNL     1       2.511  11.849  17.769  0.00  0.00    +0.000 N 
ATOM      3  N   UNL     1       2.701  10.572  17.421  0.00  0.00    +0.000 NA
ATOM      4  C   UNL     1       1.745   9.931  18.088  0.00  0.00    +0.000 A 
ATOM      5  C   UNL     1       0.975  10.778  18.923  0.00  0.00    +0.000 A 
ATOM      6  H   UNL     1       3.105  12.554  17.345  0.00  0.00    +0.000 HD
ENDROOT
BRANCH   1   8
ATOM      7  C   UNL     1       1.116  13.541  20.645  0.00  0.00    +0.000 C 
ATOM      8  C   UNL     1       1.107  13.434  19.114  0.00  0.00    +0.000 C 
ATOM      9  C   UNL     1       2.014  14.497  18.475  0.00  0.00    +0.000 C 
ENDBRANCH   1   8
BRANCH   4  10
ATOM     10  O   UNL     1       1.575   8.598  17.944  0.00  0.00    +0.000 OA
BRANCH  10  11
ATOM     11  C   UNL     1       2.705   7.819  18.340  0.00  0.00    +0.000 C 
ATOM     12  O   UNL     1       3.232   7.094  17.217  0.00  0.00    +0.000 OA
ATOM     13  C   UNL     1       4.415   6.363  17.543  0.00  0.00    +0.000 C 
ATOM     14  C   UNL     1       4.078   5.270  18.570  0.00  0.00    +0.000 C 
ATOM     15  C   UNL     1       3.433   5.913  19.811  0.00  0.00    +0.000 C 
ATOM     16  C   UNL     1       2.241   6.806  19.416  0.00  0.00    +0.000 C 
BRANCH  14  17
ATOM     17  O   UNL     1       5.248   4.520  18.915  0.00  0.00    +0.000 OA
ATOM     18  H   UNL     1       4.978   3.605  19.121  0.00  0.00    +0.000 HD
ENDBRANCH  14  17
BRANCH  15  19
ATOM     19  O   UNL     1       3.047   4.904  20.751  0.00  0.00    +0.000 OA
ATOM     20  H   UNL     1       2.090   4.749  20.664  0.00  0.00    +0.000 HD
ENDBRANCH  15  19
BRANCH  16  21
ATOM     21  O   UNL     1       1.700   7.453  20.578  0.00  0.00    +0.000 OA
ATOM     22  H   UNL     1       2.413   7.939  21.026  0.00  0.00    +0.000 HD
ENDBRANCH  16  21
BRANCH  13  23
ATOM     23  C   UNL     1       5.002   5.774  16.252  0.00  0.00    +0.000 C 
BRANCH  23  24
ATOM     24  O   UNL     1       5.689   6.746  15.475  0.00  0.00    +0.000 OA
ATOM     25  H   UNL     1       5.501   7.621  15.876  0.00  0.00    +0.000 HD
ENDBRANCH  23  24
ENDBRANCH  13  23
ENDBRANCH  10  11
ENDBRANCH   4  10
BRANCH   5  26
ATOM     26  C   UNL     1      -0.200  10.361  19.730  0.00  0.00    +0.000 C 
BRANCH  26  27
ATOM     27  C   UNL     1      -1.470  10.808  19.044  0.00  0.00    +0.000 A 
ATOM     28  C   UNL     1      -1.976  10.090  17.954  0.00  0.00    +0.000 A 
ATOM     29  C   UNL     1      -3.255  10.356  17.451  0.00  0.00    +0.000 A 
ATOM     30  C   UNL     1      -4.063  11.341  18.034  0.00  0.00    +0.000 A 
ATOM     31  C   UNL     1      -3.525  12.122  19.064  0.00  0.00    +0.000 A 
ATOM     32  C   UNL     1      -2.243  11.858  19.563  0.00  0.00    +0.000 A 
BRANCH  30  33
ATOM     33  C   UNL     1      -5.490  11.543  17.584  0.00  0.00    +0.000 C 
BRANCH  33  34
ATOM     34  C   UNL     1      -6.523  10.744  18.393  0.00  0.00    +0.000 C 
BRANCH  34  35
ATOM     35  C   UNL     1      -7.203  11.562  19.496  0.00  0.00    +0.000 C 
BRANCH  35  36
ATOM     36  C   UNL     1      -7.372  10.756  20.767  0.00  0.00    +0.000 C 
ATOM     37  N   UNL     1      -7.470  11.517  21.903  0.00  0.00    +0.000 N 
ATOM     38  O   UNL     1      -7.424   9.535  20.825  0.00  0.00    +0.000 OA
ATOM     39  H   UNL     1      -7.434  12.517  21.903  0.00  0.00    +0.000 HD
ATOM     40  H   UNL     1      -7.574  11.020  22.782  0.00  0.00    +0.000 HD
ENDBRANCH  35  36
ENDBRANCH  34  35
ENDBRANCH  33  34
ENDBRANCH  30  33
ENDBRANCH  26  27
ENDBRANCH   5  26
TORSDOF 14
ENDMDL
MODEL 8
REMARK VINA RESULT:      -7.2      2.807      4.584
REMARK  Name = 
REMARK  16 active torsions:
REMARK  status: ('A' for Active; 'I' for Inactive)
REMARK    1  A    between atoms: C_1  and  C_2
REMARK    2  A    between atoms: C_2  and  C_3
REMARK    3  A    between atoms: C_2  and  C_4
REMARK    4  A    between atoms: C_7  and  O_8
REMARK    5  A    between atoms: O_8  and  C_9
REMARK    6  A    between atoms: C_11  and  C_12
REMARK    7  A    between atoms: C_12  and  O_13
REMARK    8  A    between atoms: C_14  and  O_15
REMARK    9  A    between atoms: C_16  and  O_17
REMARK   10  A    between atoms: C_18  and  O_19
REMARK   11  A    between atoms: C_20  and  C_21
REMARK   12  A    between atoms: C_21  and  C_22
REMARK   13  A    between atoms: C_25  and  C_26
REMARK   14  A    between atoms: C_26  and  C_27
REMARK   15  A    between atoms: C_27  and  C_28
REMARK   16  A    between atoms: C_28  and  C_29
REMARK                            x       y       z     vdW  Elec       q    Type
REMARK                         _______ _______ _______ _____ _____    ______ ____
ROOT
ATOM      1  C   UNL     1       0.081   9.851  18.628  0.00  0.00    +0.000 A 
ATOM      2  N   UNL     1       0.813   9.653  17.481  0.00  0.00    +0.000 N 
ATOM      3  N   UNL     1       1.881   8.863  17.636  0.00  0.00    +0.000 NA
ATOM      4  C   UNL     1       1.816   8.516  18.919  0.00  0.00    +0.000 A 
ATOM      5  C   UNL     1       0.748   9.132  19.617  0.00  0.00    +0.000 A 
ATOM      6  H   UNL     1       0.619  10.016  16.554  0.00  0.00    +0.000 HD
ENDROOT
BRANCH   1   8
ATOM      7  C   UNL     1      -0.890  12.130  18.225  0.00  0.00    +0.000 C 
ATOM      8  C   UNL     1      -1.180  10.673  18.610  0.00  0.00    +0.000 C 
ATOM      9  C   UNL     1      -2.240  10.052  17.687  0.00  0.00    +0.000 C 
ENDBRANCH   1   8
BRANCH   4  10
ATOM     10  O   UNL     1       2.714   7.656  19.450  0.00  0.00    +0.000 OA
BRANCH  10  11
ATOM     11  C   UNL     1       2.541   6.300  19.033  0.00  0.00    +0.000 C 
ATOM     12  O   UNL     1       2.150   5.480  20.146  0.00  0.00    +0.000 OA
ATOM     13  C   UNL     1       1.884   4.130  19.765  0.00  0.00    +0.000 C 
ATOM     14  C   UNL     1       3.177   3.475  19.253  0.00  0.00    +0.000 C 
ATOM     15  C   UNL     1       3.746   4.305  18.088  0.00  0.00    +0.000 C 
ATOM     16  C   UNL     1       3.895   5.786  18.484  0.00  0.00    +0.000 C 
BRANCH  14  17
ATOM     17  O   UNL     1       2.938   2.118  18.864  0.00  0.00    +0.000 OA
ATOM     18  H   UNL     1       3.457   1.932  18.058  0.00  0.00    +0.000 HD
ENDBRANCH  14  17
BRANCH  15  19
ATOM     19  O   UNL     1       4.988   3.751  17.642  0.00  0.00    +0.000 OA
ATOM     20  H   UNL     1       5.484   4.442  17.169  0.00  0.00    +0.000 HD
ENDBRANCH  15  19
BRANCH  16  21
ATOM     21  O   UNL     1       4.357   6.555  17.363  0.00  0.00    +0.000 OA
ATOM     22  H   UNL     1       3.726   7.277  17.198  0.00  0.00    +0.000 HD
ENDBRANCH  16  21
BRANCH  13  23
ATOM     23  C   UNL     1       1.304   3.382  20.974  0.00  0.00    +0.000 C 
BRANCH  23  24
ATOM     24  O   UNL     1       2.220   3.306  22.058  0.00  0.00    +0.000 OA
ATOM     25  H   UNL     1       2.947   3.935  21.865  0.00  0.00    +0.000 HD
ENDBRANCH  23  24
ENDBRANCH  13  23
ENDBRANCH  10  11
ENDBRANCH   4  10
BRANCH   5  26
ATOM     26  C   UNL     1       0.384   8.884  21.035  0.00  0.00    +0.000 C 
BRANCH  26  27
ATOM     27  C   UNL     1       0.077  10.196  21.717  0.00  0.00    +0.000 A 
ATOM     28  C   UNL     1       0.681  11.381  21.278  0.00  0.00    +0.000 A 
ATOM     29  C   UNL     1       0.247  12.625  21.748  0.00  0.00    +0.000 A 
ATOM     30  C   UNL     1      -0.812  12.715  22.663  0.00  0.00    +0.000 A 
ATOM     31  C   UNL     1      -1.356  11.530  23.173  0.00  0.00    +0.000 A 
ATOM     32  C   UNL     1      -0.916  10.285  22.705  0.00  0.00    +0.000 A 
BRANCH  30  33
ATOM     33  C   UNL     1      -1.373  14.056  23.073  0.00  0.00    +0.000 C 
BRANCH  33  34
ATOM     34  C   UNL     1      -2.880  14.211  22.814  0.00  0.00    +0.000 C 
BRANCH  34  35
ATOM     35  C   UNL     1      -3.744  13.951  24.053  0.00  0.00    +0.000 C 
BRANCH  35  36
ATOM     36  C   UNL     1      -4.663  12.764  23.855  0.00  0.00    +0.000 C 
ATOM     37  N   UNL     1      -5.021  12.133  25.018  0.00  0.00    +0.000 N 
ATOM     38  O   UNL     1      -5.078  12.368  22.774  0.00  0.00    +0.000 OA
ATOM     39  H   UNL     1      -4.708  12.422  25.923  0.00  0.00    +0.000 HD
ATOM     40  H   UNL     1      -5.629  11.324  24.934  0.00  0.00    +0.000 HD
ENDBRANCH  35  36
ENDBRANCH  34  35
ENDBRANCH  33  34
ENDBRANCH  30  33
ENDBRANCH  26  27
ENDBRANCH   5  26
TORSDOF 14
ENDMDL
MODEL 9
REMARK VINA RESULT:      -7.2      2.687      3.173
REMARK  Name = 
REMARK  16 active torsions:
REMARK  status: ('A' for Active; 'I' for Inactive)
REMARK    1  A    between atoms: C_1  and  C_2
REMARK    2  A    between atoms: C_2  and  C_3
REMARK    3  A    between atoms: C_2  and  C_4
REMARK    4  A    between atoms: C_7  and  O_8
REMARK    5  A    between atoms: O_8  and  C_9
REMARK    6  A    between atoms: C_11  and  C_12
REMARK    7  A    between atoms: C_12  and  O_13
REMARK    8  A    between atoms: C_14  and  O_15
REMARK    9  A    between atoms: C_16  and  O_17
REMARK   10  A    between atoms: C_18  and  O_19
REMARK   11  A    between atoms: C_20  and  C_21
REMARK   12  A    between atoms: C_21  and  C_22
REMARK   13  A    between atoms: C_25  and  C_26
REMARK   14  A    between atoms: C_26  and  C_27
REMARK   15  A    between atoms: C_27  and  C_28
REMARK   16  A    between atoms: C_28  and  C_29
REMARK                            x       y       z     vdW  Elec       q    Type
REMARK                         _______ _______ _______ _____ _____    ______ ____
ROOT
ATOM      1  C   UNL     1       1.533   8.115  20.380  0.00  0.00    +0.000 A 
ATOM      2  N   UNL     1       1.789   6.829  20.792  0.00  0.00    +0.000 N 
ATOM      3  N   UNL     1       2.321   6.043  19.850  0.00  0.00    +0.000 NA
ATOM      4  C   UNL     1       2.438   6.859  18.806  0.00  0.00    +0.000 A 
ATOM      5  C   UNL     1       1.923   8.156  19.043  0.00  0.00    +0.000 A 
ATOM      6  H   UNL     1       1.641   6.436  21.715  0.00  0.00    +0.000 HD
ENDROOT
BRANCH   1   8
ATOM      7  C   UNL     1      -0.499   8.882  21.638  0.00  0.00    +0.000 C 
ATOM      8  C   UNL     1       0.983   9.141  21.335  0.00  0.00    +0.000 C 
ATOM      9  C   UNL     1       1.813   9.204  22.627  0.00  0.00    +0.000 C 
ENDBRANCH   1   8
BRANCH   4  10
ATOM     10  O   UNL     1       3.002   6.432  17.654  0.00  0.00    +0.000 OA
BRANCH  10  11
ATOM     11  C   UNL     1       4.261   5.778  17.827  0.00  0.00    +0.000 C 
ATOM     12  O   UNL     1       5.339   6.710  17.644  0.00  0.00    +0.000 OA
ATOM     13  C   UNL     1       6.617   6.123  17.888  0.00  0.00    +0.000 C 
ATOM     14  C   UNL     1       6.888   5.027  16.845  0.00  0.00    +0.000 C 
ATOM     15  C   UNL     1       5.755   3.986  16.888  0.00  0.00    +0.000 C 
ATOM     16  C   UNL     1       4.377   4.662  16.759  0.00  0.00    +0.000 C 
BRANCH  14  17
ATOM     17  O   UNL     1       8.167   4.421  17.067  0.00  0.00    +0.000 OA
ATOM     18  H   UNL     1       8.835   5.130  17.144  0.00  0.00    +0.000 HD
ENDBRANCH  14  17
BRANCH  15  19
ATOM     19  O   UNL     1       5.953   2.993  15.877  0.00  0.00    +0.000 OA
ATOM     20  H   UNL     1       5.244   2.329  15.951  0.00  0.00    +0.000 HD
ENDBRANCH  15  19
BRANCH  16  21
ATOM     21  O   UNL     1       3.332   3.684  16.875  0.00  0.00    +0.000 OA
ATOM     22  H   UNL     1       2.584   3.960  16.318  0.00  0.00    +0.000 HD
ENDBRANCH  16  21
BRANCH  13  23
ATOM     23  C   UNL     1       7.683   7.229  17.846  0.00  0.00    +0.000 C 
BRANCH  23  24
ATOM     24  O   UNL     1       8.558   7.183  18.966  0.00  0.00    +0.000 OA
ATOM     25  H   UNL     1       8.011   6.962  19.749  0.00  0.00    +0.000 HD
ENDBRANCH  23  24
ENDBRANCH  13  23
ENDBRANCH  10  11
ENDBRANCH   4  10
BRANCH   5  26
ATOM     26  C   UNL     1       1.978   9.296  18.093  0.00  0.00    +0.000 C 
BRANCH  26  27
ATOM     27  C   UNL     1       0.740  10.147  18.249  0.00  0.00    +0.000 A 
ATOM     28  C   UNL     1      -0.516   9.643  17.889  0.00  0.00    +0.000 A 
ATOM     29  C   UNL     1      -1.688  10.327  18.228  0.00  0.00    +0.000 A 
ATOM     30  C   UNL     1      -1.633  11.530  18.947  0.00  0.00    +0.000 A 
ATOM     31  C   UNL     1      -0.377  12.082  19.227  0.00  0.00    +0.000 A 
ATOM     32  C   UNL     1       0.795  11.399  18.882  0.00  0.00    +0.000 A 
BRANCH  30  33
ATOM     33  C   UNL     1      -2.894  12.205  19.431  0.00  0.00    +0.000 C 
BRANCH  33  34
ATOM     34  C   UNL     1      -2.815  12.722  20.875  0.00  0.00    +0.000 C 
BRANCH  34  35
ATOM     35  C   UNL     1      -3.061  14.229  21.001  0.00  0.00    +0.000 C 
BRANCH  35  36
ATOM     36  C   UNL     1      -1.768  15.015  20.938  0.00  0.00    +0.000 C 
ATOM     37  N   UNL     1      -0.991  14.905  22.062  0.00  0.00    +0.000 N 
ATOM     38  O   UNL     1      -1.406  15.699  19.991  0.00  0.00    +0.000 OA
ATOM     39  H   UNL     1      -1.247  14.357  22.859  0.00  0.00    +0.000 HD
ATOM     40  H   UNL     1      -0.118  15.424  22.071  0.00  0.00    +0.000 HD
ENDBRANCH  35  36
ENDBRANCH  34  35
ENDBRANCH  33  34
ENDBRANCH  30  33
ENDBRANCH  26  27
ENDBRANCH   5  26
TORSDOF 14
ENDMDL
