MODEL 1
REMARK VINA RESULT:      -4.3      0.000      0.000
REMARK  Name = 
REMARK  4 active torsions:
REMARK  status: ('A' for Active; 'I' for Inactive)
REMARK    1  A    between atoms: C_1  and  C_2
REMARK    2  A    between atoms: C_2  and  O_3
REMARK    3  A    between atoms: O_3  and  C_4
REMARK    4  A    between atoms: C_4  and  N_6
REMARK                            x       y       z     vdW  Elec       q    Type
REMARK                         _______ _______ _______ _____ _____    ______ ____
ROOT
ATOM      1  C   UNL     1       5.160   4.293  17.887  0.00  0.00    +0.000 C 
ATOM      2  S   UNL     1       5.388   5.088  19.077  0.00  0.00    +0.000 S 
ENDROOT
BRANCH   1   3
ATOM      3  N   UNL     1       5.927   4.527  16.690  0.00  0.00    +0.000 N 
ATOM      4  C   UNL     1       5.782   3.971  15.469  0.00  0.00    +0.000 A 
ATOM      5  C   UNL     1       6.722   4.532  14.634  0.00  0.00    +0.000 A 
ATOM      6  N   UNL     1       7.453   5.430  15.323  0.00  0.00    +0.000 NA
ATOM      7  C   UNL     1       6.944   5.404  16.571  0.00  0.00    +0.000 A 
ENDBRANCH   1   3
BRANCH   1   8
ATOM      8  O   UNL     1       4.238   3.286  17.870  0.00  0.00    +0.000 OA
BRANCH   8  10
ATOM      9  C   UNL     1       1.997   4.073  17.645  0.00  0.00    +0.000 C 
ATOM     10  C   UNL     1       2.995   3.273  18.481  0.00  0.00    +0.000 C 
ENDBRANCH   8  10
ENDBRANCH   1   8
TORSDOF 3
ENDMDL
MODEL 2
REMARK VINA RESULT:      -4.3      1.353      1.364
REMARK  Name = 
REMARK  4 active torsions:
REMARK  status: ('A' for Active; 'I' for Inactive)
REMARK    1  A    between atoms: C_1  and  C_2
REMARK    2  A    between atoms: C_2  and  O_3
REMARK    3  A    between atoms: O_3  and  C_4
REMARK    4  A    between atoms: C_4  and  N_6
REMARK                            x       y       z     vdW  Elec       q    Type
REMARK                         _______ _______ _______ _____ _____    ______ ____
ROOT
ATOM      1  C   UNL     1       4.706   4.153  18.647  0.00  0.00    +0.000 C 
ATOM      2  S   UNL     1       4.137   5.316  19.299  0.00  0.00    +0.000 S 
ENDROOT
BRANCH   1   3
ATOM      3  N   UNL     1       5.678   4.303  17.594  0.00  0.00    +0.000 N 
ATOM      4  C   UNL     1       5.503   4.206  16.260  0.00  0.00    +0.000 A 
ATOM      5  C   UNL     1       6.713   4.463  15.654  0.00  0.00    +0.000 A 
ATOM      6  N   UNL     1       7.641   4.715  16.599  0.00  0.00    +0.000 NA
ATOM      7  C   UNL     1       6.979   4.609  17.768  0.00  0.00    +0.000 A 
ENDBRANCH   1   3
BRANCH   1   8
ATOM      8  O   UNL     1       4.363   2.886  19.027  0.00  0.00    +0.000 OA
BRANCH   8  10
ATOM      9  C   UNL     1       2.115   2.088  19.002  0.00  0.00    +0.000 C 
ATOM     10  C   UNL     1       3.506   2.017  18.373  0.00  0.00    +0.000 C 
ENDBRANCH   8  10
ENDBRANCH   1   8
TORSDOF 3
ENDMDL
MODEL 3
REMARK VINA RESULT:      -4.2      1.459      2.071
REMARK  Name = 
REMARK  4 active torsions:
REMARK  status: ('A' for Active; 'I' for Inactive)
REMARK    1  A    between atoms: C_1  and  C_2
REMARK    2  A    between atoms: C_2  and  O_3
REMARK    3  A    between atoms: O_3  and  C_4
REMARK    4  A    between atoms: C_4  and  N_6
REMARK                            x       y       z     vdW  Elec       q    Type
REMARK                         _______ _______ _______ _____ _____    ______ ____
ROOT
ATOM      1  C   UNL     1       3.969   4.644  17.424  0.00  0.00    +0.000 C 
ATOM      2  S   UNL     1       3.267   5.735  18.069  0.00  0.00    +0.000 S 
ENDROOT
BRANCH   1   3
ATOM      3  N   UNL     1       5.407   4.655  17.321  0.00  0.00    +0.000 N 
ATOM      4  C   UNL     1       6.325   4.754  18.304  0.00  0.00    +0.000 A 
ATOM      5  C   UNL     1       7.573   4.683  17.727  0.00  0.00    +0.000 A 
ATOM      6  N   UNL     1       7.441   4.544  16.393  0.00  0.00    +0.000 NA
ATOM      7  C   UNL     1       6.110   4.530  16.178  0.00  0.00    +0.000 A 
ENDBRANCH   1   3
BRANCH   1   8
ATOM      8  O   UNL     1       3.299   3.565  16.921  0.00  0.00    +0.000 OA
BRANCH   8  10
ATOM      9  C   UNL     1       3.481   1.652  18.335  0.00  0.00    +0.000 C 
ATOM     10  C   UNL     1       2.552   2.636  17.626  0.00  0.00    +0.000 C 
ENDBRANCH   8  10
ENDBRANCH   1   8
TORSDOF 3
ENDMDL
MODEL 4
REMARK VINA RESULT:      -4.1      3.109      3.699
REMARK  Name = 
REMARK  4 active torsions:
REMARK  status: ('A' for Active; 'I' for Inactive)
REMARK    1  A    between atoms: C_1  and  C_2
REMARK    2  A    between atoms: C_2  and  O_3
REMARK    3  A    between atoms: O_3  and  C_4
REMARK    4  A    between atoms: C_4  and  N_6
REMARK                            x       y       z     vdW  Elec       q    Type
REMARK                         _______ _______ _______ _____ _____    ______ ____
ROOT
ATOM      1  C   UNL     1       2.495   3.402  18.664  0.00  0.00    +0.000 C 
ATOM      2  S   UNL     1       2.352   2.216  17.844  0.00  0.00    +0.000 S 
ENDROOT
BRANCH   1   3
ATOM      3  N   UNL     1       3.751   4.105  18.727  0.00  0.00    +0.000 N 
ATOM      4  C   UNL     1       4.048   5.348  18.296  0.00  0.00    +0.000 A 
ATOM      5  C   UNL     1       5.367   5.600  18.604  0.00  0.00    +0.000 A 
ATOM      6  N   UNL     1       5.894   4.524  19.220  0.00  0.00    +0.000 NA
ATOM      7  C   UNL     1       4.886   3.632  19.279  0.00  0.00    +0.000 A 
ENDBRANCH   1   3
BRANCH   1   8
ATOM      8  O   UNL     1       1.444   3.904  19.377  0.00  0.00    +0.000 OA
BRANCH   8  10
ATOM      9  C   UNL     1       1.667   2.928  21.542  0.00  0.00    +0.000 C 
ATOM     10  C   UNL     1       1.409   4.197  20.730  0.00  0.00    +0.000 C 
ENDBRANCH   8  10
ENDBRANCH   1   8
TORSDOF 3
ENDMDL
MODEL 5
REMARK VINA RESULT:      -4.1      2.093      2.865
REMARK  Name = 
REMARK  4 active torsions:
REMARK  status: ('A' for Active; 'I' for Inactive)
REMARK    1  A    between atoms: C_1  and  C_2
REMARK    2  A    between atoms: C_2  and  O_3
REMARK    3  A    between atoms: O_3  and  C_4
REMARK    4  A    between atoms: C_4  and  N_6
REMARK                            x       y       z     vdW  Elec       q    Type
REMARK                         _______ _______ _______ _____ _____    ______ ____
ROOT
ATOM      1  C   UNL     1       5.316   4.490  16.695  0.00  0.00    +0.000 C 
ATOM      2  S   UNL     1       5.870   3.919  15.484  0.00  0.00    +0.000 S 
ENDROOT
BRANCH   1   3
ATOM      3  N   UNL     1       6.181   4.938  17.758  0.00  0.00    +0.000 N 
ATOM      4  C   UNL     1       7.390   5.531  17.673  0.00  0.00    +0.000 A 
ATOM      5  C   UNL     1       7.817   5.810  18.952  0.00  0.00    +0.000 A 
ATOM      6  N   UNL     1       6.885   5.393  19.834  0.00  0.00    +0.000 NA
ATOM      7  C   UNL     1       5.903   4.868  19.075  0.00  0.00    +0.000 A 
ENDBRANCH   1   3
BRANCH   1   8
ATOM      8  O   UNL     1       3.969   4.648  16.857  0.00  0.00    +0.000 OA
BRANCH   8  10
ATOM      9  C   UNL     1       1.856   4.264  17.893  0.00  0.00    +0.000 C 
ATOM     10  C   UNL     1       3.035   3.663  17.130  0.00  0.00    +0.000 C 
ENDBRANCH   8  10
ENDBRANCH   1   8
TORSDOF 3
ENDMDL
MODEL 6
REMARK VINA RESULT:      -4.1      2.385      3.830
REMARK  Name = 
REMARK  4 active torsions:
REMARK  status: ('A' for Active; 'I' for Inactive)
REMARK    1  A    between atoms: C_1  and  C_2
REMARK    2  A    between atoms: C_2  and  O_3
REMARK    3  A    between atoms: O_3  and  C_4
REMARK    4  A    between atoms: C_4  and  N_6
REMARK                            x       y       z     vdW  Elec       q    Type
REMARK                         _______ _______ _______ _____ _____    ______ ____
ROOT
ATOM      1  C   UNL     1       5.377   4.702  16.668  0.00  0.00    +0.000 C 
ATOM      2  S   UNL     1       4.184   3.919  16.921  0.00  0.00    +0.000 S 
ENDROOT
BRANCH   1   3
ATOM      3  N   UNL     1       6.233   5.108  17.754  0.00  0.00    +0.000 N 
ATOM      4  C   UNL     1       7.387   5.805  17.707  0.00  0.00    +0.000 A 
ATOM      5  C   UNL     1       7.826   5.984  19.000  0.00  0.00    +0.000 A 
ATOM      6  N   UNL     1       6.959   5.402  19.851  0.00  0.00    +0.000 NA
ATOM      7  C   UNL     1       6.000   4.878  19.062  0.00  0.00    +0.000 A 
ENDBRANCH   1   3
BRANCH   1   8
ATOM      8  O   UNL     1       5.741   5.053  15.400  0.00  0.00    +0.000 OA
BRANCH   8  10
ATOM      9  C   UNL     1       5.880   3.769  13.394  0.00  0.00    +0.000 C 
ATOM     10  C   UNL     1       6.632   4.395  14.569  0.00  0.00    +0.000 C 
ENDBRANCH   8  10
ENDBRANCH   1   8
TORSDOF 3
ENDMDL
MODEL 7
REMARK VINA RESULT:      -4.1      1.947      2.003
REMARK  Name = 
REMARK  4 active torsions:
REMARK  status: ('A' for Active; 'I' for Inactive)
REMARK    1  A    between atoms: C_1  and  C_2
REMARK    2  A    between atoms: C_2  and  O_3
REMARK    3  A    between atoms: O_3  and  C_4
REMARK    4  A    between atoms: C_4  and  N_6
REMARK                            x       y       z     vdW  Elec       q    Type
REMARK                         _______ _______ _______ _____ _____    ______ ____
ROOT
ATOM      1  C   UNL     1       4.746   4.391  18.708  0.00  0.00    +0.000 C 
ATOM      2  S   UNL     1       4.413   3.167  19.407  0.00  0.00    +0.000 S 
ENDROOT
BRANCH   1   3
ATOM      3  N   UNL     1       5.741   4.394  17.665  0.00  0.00    +0.000 N 
ATOM      4  C   UNL     1       5.578   4.205  16.339  0.00  0.00    +0.000 A 
ATOM      5  C   UNL     1       6.811   4.334  15.738  0.00  0.00    +0.000 A 
ATOM      6  N   UNL     1       7.740   4.598  16.678  0.00  0.00    +0.000 NA
ATOM      7  C   UNL     1       7.056   4.629  17.840  0.00  0.00    +0.000 A 
ENDBRANCH   1   3
BRANCH   1   8
ATOM      8  O   UNL     1       4.112   5.568  18.992  0.00  0.00    +0.000 OA
BRANCH   8  10
ATOM      9  C   UNL     1       3.066   7.438  17.945  0.00  0.00    +0.000 C 
ATOM     10  C   UNL     1       2.906   6.017  18.482  0.00  0.00    +0.000 C 
ENDBRANCH   8  10
ENDBRANCH   1   8
TORSDOF 3
ENDMDL
MODEL 8
REMARK VINA RESULT:      -4.1      0.959      1.098
REMARK  Name = 
REMARK  4 active torsions:
REMARK  status: ('A' for Active; 'I' for Inactive)
REMARK    1  A    between atoms: C_1  and  C_2
REMARK    2  A    between atoms: C_2  and  O_3
REMARK    3  A    between atoms: O_3  and  C_4
REMARK    4  A    between atoms: C_4  and  N_6
REMARK                            x       y       z     vdW  Elec       q    Type
REMARK                         _______ _______ _______ _____ _____    ______ ____
ROOT
ATOM      1  C   UNL     1       4.358   4.953  17.841  0.00  0.00    +0.000 C 
ATOM      2  S   UNL     1       4.551   5.277  19.240  0.00  0.00    +0.000 S 
ENDROOT
BRANCH   1   3
ATOM      3  N   UNL     1       5.471   4.958  16.925  0.00  0.00    +0.000 N 
ATOM      4  C   UNL     1       5.781   4.064  15.964  0.00  0.00    +0.000 A 
ATOM      5  C   UNL     1       6.915   4.509  15.321  0.00  0.00    +0.000 A 
ATOM      6  N   UNL     1       7.316   5.670  15.876  0.00  0.00    +0.000 NA
ATOM      7  C   UNL     1       6.417   5.916  16.849  0.00  0.00    +0.000 A 
ENDBRANCH   1   3
BRANCH   1   8
ATOM      8  O   UNL     1       3.130   4.606  17.354  0.00  0.00    +0.000 OA
BRANCH   8  10
ATOM      9  C   UNL     1       2.678   2.291  17.708  0.00  0.00    +0.000 C 
ATOM     10  C   UNL     1       2.217   3.732  17.920  0.00  0.00    +0.000 C 
ENDBRANCH   8  10
ENDBRANCH   1   8
TORSDOF 3
ENDMDL
MODEL 9
REMARK VINA RESULT:      -4.1      1.995      4.206
REMARK  Name = 
REMARK  4 active torsions:
REMARK  status: ('A' for Active; 'I' for Inactive)
REMARK    1  A    between atoms: C_1  and  C_2
REMARK    2  A    between atoms: C_2  and  O_3
REMARK    3  A    between atoms: O_3  and  C_4
REMARK    4  A    between atoms: C_4  and  N_6
REMARK                            x       y       z     vdW  Elec       q    Type
REMARK                         _______ _______ _______ _____ _____    ______ ____
ROOT
ATOM      1  C   UNL     1       4.979   4.596  17.783  0.00  0.00    +0.000 C 
ATOM      2  S   UNL     1       5.611   5.002  19.023  0.00  0.00    +0.000 S 
ENDROOT
BRANCH   1   3
ATOM      3  N   UNL     1       3.756   3.834  17.797  0.00  0.00    +0.000 N 
ATOM      4  C   UNL     1       3.589   2.505  17.958  0.00  0.00    +0.000 A 
ATOM      5  C   UNL     1       2.237   2.242  17.935  0.00  0.00    +0.000 A 
ATOM      6  N   UNL     1       1.562   3.395  17.758  0.00  0.00    +0.000 NA
ATOM      7  C   UNL     1       2.515   4.344  17.677  0.00  0.00    +0.000 A 
ENDBRANCH   1   3
BRANCH   1   8
ATOM      8  O   UNL     1       5.503   4.945  16.571  0.00  0.00    +0.000 OA
BRANCH   8  10
ATOM      9  C   UNL     1       6.186   3.985  14.497  0.00  0.00    +0.000 C 
ATOM     10  C   UNL     1       6.581   4.365  15.923  0.00  0.00    +0.000 C 
ENDBRANCH   8  10
ENDBRANCH   1   8
TORSDOF 3
ENDMDL
