MODEL 1
REMARK VINA RESULT:      -7.0      0.000      0.000
REMARK  Name = 
REMARK  4 active torsions:
REMARK  status: ('A' for Active; 'I' for Inactive)
REMARK    1  A    between atoms: C_1  and  N_2
REMARK    2  A    between atoms: C_4  and  C_5
REMARK    3  A    between atoms: C_5  and  N_6
REMARK    4  A    between atoms: N_9  and  C_10
REMARK                            x       y       z     vdW  Elec       q    Type
REMARK                         _______ _______ _______ _____ _____    ______ ____
ROOT
ATOM      1  N   UNL     1       6.103   6.171  18.173  0.00  0.00    +0.000 NA
ATOM      2  C   UNL     1       7.329   5.626  17.546  0.00  0.00    +0.000 C 
ATOM      3  C   UNL     1       7.064   4.313  16.796  0.00  0.00    +0.000 C 
ATOM      4  N   UNL     1       6.150   4.578  15.682  0.00  0.00    +0.000 N 
ATOM      5  C   UNL     1       4.896   5.271  16.027  0.00  0.00    +0.000 C 
ATOM      6  C   UNL     1       5.116   6.411  17.078  0.00  0.00    +0.000 C 
ENDROOT
BRANCH   4   7
ATOM      7  C   UNL     1       6.625   4.486  14.384  0.00  0.00    +0.000 A 
ATOM      8  C   UNL     1       7.623   5.345  13.909  0.00  0.00    +0.000 A 
ATOM      9  C   UNL     1       7.972   5.371  12.552  0.00  0.00    +0.000 A 
ATOM     10  C   UNL     1       7.344   4.517  11.648  0.00  0.00    +0.000 A 
ATOM     11  C   UNL     1       6.399   3.612  12.105  0.00  0.00    +0.000 A 
ATOM     12  C   UNL     1       6.059   3.593  13.457  0.00  0.00    +0.000 A 
ENDBRANCH   4   7
BRANCH   1  13
ATOM     13  C   UNL     1       5.551   5.292  19.221  0.00  0.00    +0.000 C 
BRANCH  13  17
ATOM     14  C   UNL     1       1.073   3.829  20.759  0.00  0.00    +0.000 C 
ATOM     15  N   UNL     1       2.192   3.950  19.857  0.00  0.00    +0.000 N 
ATOM     16  C   UNL     1       3.142   5.021  19.981  0.00  0.00    +0.000 C 
ATOM     17  C   UNL     1       4.158   4.733  18.889  0.00  0.00    +0.000 C 
ATOM     18  C   UNL     1       4.120   3.205  18.743  0.00  0.00    +0.000 C 
ATOM     19  C   UNL     1       2.748   2.829  19.246  0.00  0.00    +0.000 C 
ATOM     20  O   UNL     1       2.253   1.712  19.188  0.00  0.00    +0.000 OA
ENDBRANCH  13  17
ENDBRANCH   1  13
TORSDOF 3
ENDMDL
MODEL 2
REMARK VINA RESULT:      -6.9      1.228      1.551
REMARK  Name = 
REMARK  4 active torsions:
REMARK  status: ('A' for Active; 'I' for Inactive)
REMARK    1  A    between atoms: C_1  and  N_2
REMARK    2  A    between atoms: C_4  and  C_5
REMARK    3  A    between atoms: C_5  and  N_6
REMARK    4  A    between atoms: N_9  and  C_10
REMARK                            x       y       z     vdW  Elec       q    Type
REMARK                         _______ _______ _______ _____ _____    ______ ____
ROOT
ATOM      1  N   UNL     1       5.434   5.601  18.406  0.00  0.00    +0.000 NA
ATOM      2  C   UNL     1       5.824   4.312  17.790  0.00  0.00    +0.000 C 
ATOM      3  C   UNL     1       5.024   4.010  16.515  0.00  0.00    +0.000 C 
ATOM      4  N   UNL     1       5.337   5.026  15.506  0.00  0.00    +0.000 N 
ATOM      5  C   UNL     1       5.177   6.429  15.931  0.00  0.00    +0.000 C 
ATOM      6  C   UNL     1       5.687   6.669  17.393  0.00  0.00    +0.000 C 
ENDROOT
BRANCH   4   7
ATOM      7  C   UNL     1       6.057   4.660  14.381  0.00  0.00    +0.000 A 
ATOM      8  C   UNL     1       7.251   5.305  14.038  0.00  0.00    +0.000 A 
ATOM      9  C   UNL     1       7.881   5.058  12.811  0.00  0.00    +0.000 A 
ATOM     10  C   UNL     1       7.339   4.141  11.913  0.00  0.00    +0.000 A 
ATOM     11  C   UNL     1       6.193   3.443  12.259  0.00  0.00    +0.000 A 
ATOM     12  C   UNL     1       5.573   3.693  13.482  0.00  0.00    +0.000 A 
ENDBRANCH   4   7
BRANCH   1  13
ATOM     13  C   UNL     1       4.035   5.616  18.875  0.00  0.00    +0.000 C 
BRANCH  13  17
ATOM     14  C   UNL     1       0.528   2.115  18.931  0.00  0.00    +0.000 C 
ATOM     15  N   UNL     1       1.695   2.831  19.384  0.00  0.00    +0.000 N 
ATOM     16  C   UNL     1       2.458   3.662  18.493  0.00  0.00    +0.000 C 
ATOM     17  C   UNL     1       3.538   4.253  19.382  0.00  0.00    +0.000 C 
ATOM     18  C   UNL     1       2.884   4.308  20.770  0.00  0.00    +0.000 C 
ATOM     19  C   UNL     1       1.820   3.240  20.709  0.00  0.00    +0.000 C 
ATOM     20  O   UNL     1       1.140   2.860  21.654  0.00  0.00    +0.000 OA
ENDBRANCH  13  17
ENDBRANCH   1  13
TORSDOF 3
ENDMDL
MODEL 3
REMARK VINA RESULT:      -6.9      0.206      1.090
REMARK  Name = 
REMARK  4 active torsions:
REMARK  status: ('A' for Active; 'I' for Inactive)
REMARK    1  A    between atoms: C_1  and  N_2
REMARK    2  A    between atoms: C_4  and  C_5
REMARK    3  A    between atoms: C_5  and  N_6
REMARK    4  A    between atoms: N_9  and  C_10
REMARK                            x       y       z     vdW  Elec       q    Type
REMARK                         _______ _______ _______ _____ _____    ______ ____
ROOT
ATOM      1  N   UNL     1       6.249   6.087  18.271  0.00  0.00    +0.000 NA
ATOM      2  C   UNL     1       7.361   5.439  17.539  0.00  0.00    +0.000 C 
ATOM      3  C   UNL     1       6.896   4.214  16.739  0.00  0.00    +0.000 C 
ATOM      4  N   UNL     1       5.958   4.651  15.702  0.00  0.00    +0.000 N 
ATOM      5  C   UNL     1       4.819   5.466  16.163  0.00  0.00    +0.000 C 
ATOM      6  C   UNL     1       5.238   6.507  17.256  0.00  0.00    +0.000 C 
ENDROOT
BRANCH   4   7
ATOM      7  C   UNL     1       6.343   4.582  14.373  0.00  0.00    +0.000 A 
ATOM      8  C   UNL     1       5.745   3.679  13.486  0.00  0.00    +0.000 A 
ATOM      9  C   UNL     1       6.255   3.485  12.195  0.00  0.00    +0.000 A 
ATOM     10  C   UNL     1       7.360   4.212  11.759  0.00  0.00    +0.000 A 
ATOM     11  C   UNL     1       7.929   5.159  12.596  0.00  0.00    +0.000 A 
ATOM     12  C   UNL     1       7.415   5.346  13.878  0.00  0.00    +0.000 A 
ENDBRANCH   4   7
BRANCH   1  13
ATOM     13  C   UNL     1       5.655   5.217  19.304  0.00  0.00    +0.000 C 
BRANCH  13  17
ATOM     14  C   UNL     1       1.061   3.994  20.706  0.00  0.00    +0.000 C 
ATOM     15  N   UNL     1       2.224   4.025  19.854  0.00  0.00    +0.000 N 
ATOM     16  C   UNL     1       3.205   5.070  19.962  0.00  0.00    +0.000 C 
ATOM     17  C   UNL     1       4.260   4.686  18.938  0.00  0.00    +0.000 C 
ATOM     18  C   UNL     1       4.174   3.154  18.878  0.00  0.00    +0.000 C 
ATOM     19  C   UNL     1       2.768   2.853  19.336  0.00  0.00    +0.000 C 
ATOM     20  O   UNL     1       2.237   1.751  19.317  0.00  0.00    +0.000 OA
ENDBRANCH  13  17
ENDBRANCH   1  13
TORSDOF 3
ENDMDL
MODEL 4
REMARK VINA RESULT:      -6.8      2.601      7.106
REMARK  Name = 
REMARK  4 active torsions:
REMARK  status: ('A' for Active; 'I' for Inactive)
REMARK    1  A    between atoms: C_1  and  N_2
REMARK    2  A    between atoms: C_4  and  C_5
REMARK    3  A    between atoms: C_5  and  N_6
REMARK    4  A    between atoms: N_9  and  C_10
REMARK                            x       y       z     vdW  Elec       q    Type
REMARK                         _______ _______ _______ _____ _____    ______ ____
ROOT
ATOM      1  N   UNL     1       5.793   5.667  17.101  0.00  0.00    +0.000 NA
ATOM      2  C   UNL     1       4.363   5.336  16.901  0.00  0.00    +0.000 C 
ATOM      3  C   UNL     1       4.052   3.871  17.238  0.00  0.00    +0.000 C 
ATOM      4  N   UNL     1       4.300   3.648  18.665  0.00  0.00    +0.000 N 
ATOM      5  C   UNL     1       5.629   4.051  19.159  0.00  0.00    +0.000 C 
ATOM      6  C   UNL     1       6.110   5.406  18.537  0.00  0.00    +0.000 C 
ENDROOT
BRANCH   4   7
ATOM      7  C   UNL     1       3.227   3.409  19.507  0.00  0.00    +0.000 A 
ATOM      8  C   UNL     1       1.976   3.996  19.281  0.00  0.00    +0.000 A 
ATOM      9  C   UNL     1       0.948   3.898  20.228  0.00  0.00    +0.000 A 
ATOM     10  C   UNL     1       1.144   3.187  21.410  0.00  0.00    +0.000 A 
ATOM     11  C   UNL     1       2.352   2.542  21.626  0.00  0.00    +0.000 A 
ATOM     12  C   UNL     1       3.370   2.644  20.679  0.00  0.00    +0.000 A 
ENDBRANCH   4   7
BRANCH   1  13
ATOM     13  C   UNL     1       6.689   4.918  16.201  0.00  0.00    +0.000 C 
BRANCH  13  17
ATOM     14  C   UNL     1       5.662   2.617  11.933  0.00  0.00    +0.000 C 
ATOM     15  N   UNL     1       6.009   3.719  12.796  0.00  0.00    +0.000 N 
ATOM     16  C   UNL     1       5.709   3.694  14.201  0.00  0.00    +0.000 C 
ATOM     17  C   UNL     1       6.288   5.000  14.720  0.00  0.00    +0.000 C 
ATOM     18  C   UNL     1       7.462   5.284  13.772  0.00  0.00    +0.000 C 
ATOM     19  C   UNL     1       7.096   4.541  12.511  0.00  0.00    +0.000 C 
ATOM     20  O   UNL     1       7.702   4.603  11.450  0.00  0.00    +0.000 OA
ENDBRANCH  13  17
ENDBRANCH   1  13
TORSDOF 3
ENDMDL
MODEL 5
REMARK VINA RESULT:      -6.8      2.623      7.114
REMARK  Name = 
REMARK  4 active torsions:
REMARK  status: ('A' for Active; 'I' for Inactive)
REMARK    1  A    between atoms: C_1  and  N_2
REMARK    2  A    between atoms: C_4  and  C_5
REMARK    3  A    between atoms: C_5  and  N_6
REMARK    4  A    between atoms: N_9  and  C_10
REMARK                            x       y       z     vdW  Elec       q    Type
REMARK                         _______ _______ _______ _____ _____    ______ ____
ROOT
ATOM      1  N   UNL     1       5.906   5.740  16.941  0.00  0.00    +0.000 NA
ATOM      2  C   UNL     1       4.461   5.430  16.852  0.00  0.00    +0.000 C 
ATOM      3  C   UNL     1       4.140   4.006  17.328  0.00  0.00    +0.000 C 
ATOM      4  N   UNL     1       4.467   3.897  18.752  0.00  0.00    +0.000 N 
ATOM      5  C   UNL     1       5.832   4.305  19.134  0.00  0.00    +0.000 C 
ATOM      6  C   UNL     1       6.302   5.591  18.373  0.00  0.00    +0.000 C 
ENDROOT
BRANCH   4   7
ATOM      7  C   UNL     1       3.441   3.755  19.671  0.00  0.00    +0.000 A 
ATOM      8  C   UNL     1       3.460   2.741  20.635  0.00  0.00    +0.000 A 
ATOM      9  C   UNL     1       2.343   2.489  21.444  0.00  0.00    +0.000 A 
ATOM     10  C   UNL     1       1.193   3.266  21.319  0.00  0.00    +0.000 A 
ATOM     11  C   UNL     1       1.175   4.318  20.416  0.00  0.00    +0.000 A 
ATOM     12  C   UNL     1       2.291   4.562  19.617  0.00  0.00    +0.000 A 
ENDBRANCH   4   7
BRANCH   1  13
ATOM     13  C   UNL     1       6.732   4.896  16.057  0.00  0.00    +0.000 C 
BRANCH  13  17
ATOM     14  C   UNL     1       5.621   2.512  11.857  0.00  0.00    +0.000 C 
ATOM     15  N   UNL     1       5.993   3.629  12.690  0.00  0.00    +0.000 N 
ATOM     16  C   UNL     1       5.711   3.639  14.099  0.00  0.00    +0.000 C 
ATOM     17  C   UNL     1       6.312   4.950  14.580  0.00  0.00    +0.000 C 
ATOM     18  C   UNL     1       7.476   5.199  13.611  0.00  0.00    +0.000 C 
ATOM     19  C   UNL     1       7.085   4.432  12.372  0.00  0.00    +0.000 C 
ATOM     20  O   UNL     1       7.677   4.463  11.301  0.00  0.00    +0.000 OA
ENDBRANCH  13  17
ENDBRANCH   1  13
TORSDOF 3
ENDMDL
MODEL 6
REMARK VINA RESULT:      -6.7      1.203      1.708
REMARK  Name = 
REMARK  4 active torsions:
REMARK  status: ('A' for Active; 'I' for Inactive)
REMARK    1  A    between atoms: C_1  and  N_2
REMARK    2  A    between atoms: C_4  and  C_5
REMARK    3  A    between atoms: C_5  and  N_6
REMARK    4  A    between atoms: N_9  and  C_10
REMARK                            x       y       z     vdW  Elec       q    Type
REMARK                         _______ _______ _______ _____ _____    ______ ____
ROOT
ATOM      1  N   UNL     1       4.950   4.331  18.345  0.00  0.00    +0.000 NA
ATOM      2  C   UNL     1       4.386   3.869  17.056  0.00  0.00    +0.000 C 
ATOM      3  C   UNL     1       4.499   4.934  15.956  0.00  0.00    +0.000 C 
ATOM      4  N   UNL     1       5.916   5.188  15.684  0.00  0.00    +0.000 N 
ATOM      5  C   UNL     1       6.748   5.522  16.855  0.00  0.00    +0.000 C 
ATOM      6  C   UNL     1       6.389   4.653  18.107  0.00  0.00    +0.000 C 
ENDROOT
BRANCH   4   7
ATOM      7  C   UNL     1       6.453   4.788  14.472  0.00  0.00    +0.000 A 
ATOM      8  C   UNL     1       7.573   5.424  13.924  0.00  0.00    +0.000 A 
ATOM      9  C   UNL     1       8.003   5.139  12.621  0.00  0.00    +0.000 A 
ATOM     10  C   UNL     1       7.334   4.192  11.850  0.00  0.00    +0.000 A 
ATOM     11  C   UNL     1       6.262   3.502  12.394  0.00  0.00    +0.000 A 
ATOM     12  C   UNL     1       5.841   3.791  13.691  0.00  0.00    +0.000 A 
ENDBRANCH   4   7
BRANCH   1  13
ATOM     13  C   UNL     1       4.221   5.481  18.914  0.00  0.00    +0.000 C 
BRANCH  13  17
ATOM     14  C   UNL     1       1.440   2.509  21.742  0.00  0.00    +0.000 C 
ATOM     15  N   UNL     1       1.718   3.501  20.732  0.00  0.00    +0.000 N 
ATOM     16  C   UNL     1       2.946   4.247  20.733  0.00  0.00    +0.000 C 
ATOM     17  C   UNL     1       2.844   5.116  19.491  0.00  0.00    +0.000 C 
ATOM     18  C   UNL     1       1.969   4.293  18.536  0.00  0.00    +0.000 C 
ATOM     19  C   UNL     1       1.171   3.401  19.455  0.00  0.00    +0.000 C 
ATOM     20  O   UNL     1       0.253   2.668  19.113  0.00  0.00    +0.000 OA
ENDBRANCH  13  17
ENDBRANCH   1  13
TORSDOF 3
ENDMDL
MODEL 7
REMARK VINA RESULT:      -6.6      3.645      7.699
REMARK  Name = 
REMARK  4 active torsions:
REMARK  status: ('A' for Active; 'I' for Inactive)
REMARK    1  A    between atoms: C_1  and  N_2
REMARK    2  A    between atoms: C_4  and  C_5
REMARK    3  A    between atoms: C_5  and  N_6
REMARK    4  A    between atoms: N_9  and  C_10
REMARK                            x       y       z     vdW  Elec       q    Type
REMARK                         _______ _______ _______ _____ _____    ______ ____
ROOT
ATOM      1  N   UNL     1       2.275   4.805  18.685  0.00  0.00    +0.000 NA
ATOM      2  C   UNL     1       1.548   5.024  19.956  0.00  0.00    +0.000 C 
ATOM      3  C   UNL     1       2.190   6.125  20.812  0.00  0.00    +0.000 C 
ATOM      4  N   UNL     1       2.097   7.399  20.094  0.00  0.00    +0.000 N 
ATOM      5  C   UNL     1       2.622   7.404  18.716  0.00  0.00    +0.000 C 
ATOM      6  C   UNL     1       2.252   6.097  17.936  0.00  0.00    +0.000 C 
ENDROOT
BRANCH   4   7
ATOM      7  C   UNL     1       1.260   8.389  20.582  0.00  0.00    +0.000 A 
ATOM      8  C   UNL     1       0.868   9.471  19.785  0.00  0.00    +0.000 A 
ATOM      9  C   UNL     1       0.171  10.558  20.331  0.00  0.00    +0.000 A 
ATOM     10  C   UNL     1      -0.169  10.570  21.682  0.00  0.00    +0.000 A 
ATOM     11  C   UNL     1       0.152   9.480  22.476  0.00  0.00    +0.000 A 
ATOM     12  C   UNL     1       0.844   8.402  21.925  0.00  0.00    +0.000 A 
ENDBRANCH   4   7
BRANCH   1  13
ATOM     13  C   UNL     1       3.652   4.315  18.885  0.00  0.00    +0.000 C 
BRANCH  13  17
ATOM     14  C   UNL     1       6.272   3.792  14.711  0.00  0.00    +0.000 C 
ATOM     15  N   UNL     1       5.911   4.354  15.989  0.00  0.00    +0.000 N 
ATOM     16  C   UNL     1       4.585   4.209  16.524  0.00  0.00    +0.000 C 
ATOM     17  C   UNL     1       4.664   4.888  17.881  0.00  0.00    +0.000 C 
ATOM     18  C   UNL     1       6.129   4.702  18.301  0.00  0.00    +0.000 C 
ATOM     19  C   UNL     1       6.860   4.528  16.993  0.00  0.00    +0.000 C 
ATOM     20  O   UNL     1       8.076   4.476  16.861  0.00  0.00    +0.000 OA
ENDBRANCH  13  17
ENDBRANCH   1  13
TORSDOF 3
ENDMDL
MODEL 8
REMARK VINA RESULT:      -6.6      3.469      7.521
REMARK  Name = 
REMARK  4 active torsions:
REMARK  status: ('A' for Active; 'I' for Inactive)
REMARK    1  A    between atoms: C_1  and  N_2
REMARK    2  A    between atoms: C_4  and  C_5
REMARK    3  A    between atoms: C_5  and  N_6
REMARK    4  A    between atoms: N_9  and  C_10
REMARK                            x       y       z     vdW  Elec       q    Type
REMARK                         _______ _______ _______ _____ _____    ______ ____
ROOT
ATOM      1  N   UNL     1       2.176   4.413  18.696  0.00  0.00    +0.000 NA
ATOM      2  C   UNL     1       1.606   4.766  20.016  0.00  0.00    +0.000 C 
ATOM      3  C   UNL     1       2.369   5.916  20.690  0.00  0.00    +0.000 C 
ATOM      4  N   UNL     1       2.224   7.125  19.875  0.00  0.00    +0.000 N 
ATOM      5  C   UNL     1       2.586   6.991  18.452  0.00  0.00    +0.000 C 
ATOM      6  C   UNL     1       2.098   5.634  17.840  0.00  0.00    +0.000 C 
ENDROOT
BRANCH   4   7
ATOM      7  C   UNL     1       1.472   8.181  20.362  0.00  0.00    +0.000 A 
ATOM      8  C   UNL     1       0.918   8.150  21.647  0.00  0.00    +0.000 A 
ATOM      9  C   UNL     1       0.013   9.134  22.070  0.00  0.00    +0.000 A 
ATOM     10  C   UNL     1      -0.335  10.182  21.220  0.00  0.00    +0.000 A 
ATOM     11  C   UNL     1       0.250  10.268  19.967  0.00  0.00    +0.000 A 
ATOM     12  C   UNL     1       1.150   9.286  19.555  0.00  0.00    +0.000 A 
ENDBRANCH   4   7
BRANCH   1  13
ATOM     13  C   UNL     1       3.555   3.896  18.783  0.00  0.00    +0.000 C 
BRANCH  13  17
ATOM     14  C   UNL     1       6.325   3.816  14.674  0.00  0.00    +0.000 C 
ATOM     15  N   UNL     1       5.882   4.277  15.966  0.00  0.00    +0.000 N 
ATOM     16  C   UNL     1       4.559   3.993  16.451  0.00  0.00    +0.000 C 
ATOM     17  C   UNL     1       4.541   4.604  17.842  0.00  0.00    +0.000 C 
ATOM     18  C   UNL     1       6.005   4.521  18.298  0.00  0.00    +0.000 C 
ATOM     19  C   UNL     1       6.784   4.478  17.007  0.00  0.00    +0.000 C 
ATOM     20  O   UNL     1       8.003   4.536  16.912  0.00  0.00    +0.000 OA
ENDBRANCH  13  17
ENDBRANCH   1  13
TORSDOF 3
ENDMDL
MODEL 9
REMARK VINA RESULT:      -6.5      2.598      6.937
REMARK  Name = 
REMARK  4 active torsions:
REMARK  status: ('A' for Active; 'I' for Inactive)
REMARK    1  A    between atoms: C_1  and  N_2
REMARK    2  A    between atoms: C_4  and  C_5
REMARK    3  A    between atoms: C_5  and  N_6
REMARK    4  A    between atoms: N_9  and  C_10
REMARK                            x       y       z     vdW  Elec       q    Type
REMARK                         _______ _______ _______ _____ _____    ______ ____
ROOT
ATOM      1  N   UNL     1       6.337   5.758  16.967  0.00  0.00    +0.000 NA
ATOM      2  C   UNL     1       4.898   5.904  16.647  0.00  0.00    +0.000 C 
ATOM      3  C   UNL     1       4.136   4.577  16.773  0.00  0.00    +0.000 C 
ATOM      4  N   UNL     1       4.175   4.138  18.170  0.00  0.00    +0.000 N 
ATOM      5  C   UNL     1       5.512   4.059  18.786  0.00  0.00    +0.000 C 
ATOM      6  C   UNL     1       6.428   5.261  18.372  0.00  0.00    +0.000 C 
ENDROOT
BRANCH   4   7
ATOM      7  C   UNL     1       3.006   4.150  18.914  0.00  0.00    +0.000 A 
ATOM      8  C   UNL     1       2.784   5.108  19.909  0.00  0.00    +0.000 A 
ATOM      9  C   UNL     1       1.688   5.011  20.778  0.00  0.00    +0.000 A 
ATOM     10  C   UNL     1       0.779   3.963  20.649  0.00  0.00    +0.000 A 
ATOM     11  C   UNL     1       0.942   3.039  19.629  0.00  0.00    +0.000 A 
ATOM     12  C   UNL     1       2.034   3.143  18.769  0.00  0.00    +0.000 A 
ENDBRANCH   4   7
BRANCH   1  13
ATOM     13  C   UNL     1       7.049   4.872  16.027  0.00  0.00    +0.000 C 
BRANCH  13  17
ATOM     14  C   UNL     1       5.760   2.505  11.869  0.00  0.00    +0.000 C 
ATOM     15  N   UNL     1       6.122   3.627  12.698  0.00  0.00    +0.000 N 
ATOM     16  C   UNL     1       5.958   3.588  14.126  0.00  0.00    +0.000 C 
ATOM     17  C   UNL     1       6.505   4.927  14.591  0.00  0.00    +0.000 C 
ATOM     18  C   UNL     1       7.565   5.278  13.538  0.00  0.00    +0.000 C 
ATOM     19  C   UNL     1       7.126   4.512  12.315  0.00  0.00    +0.000 C 
ATOM     20  O   UNL     1       7.624   4.607  11.201  0.00  0.00    +0.000 OA
ENDBRANCH  13  17
ENDBRANCH   1  13
TORSDOF 3
ENDMDL
