MODEL 1
REMARK VINA RESULT:      -6.5      0.000      0.000
REMARK  Name = 
REMARK  3 active torsions:
REMARK  status: ('A' for Active; 'I' for Inactive)
REMARK    1  A    between atoms: C_2  and  C_3
REMARK    2  A    between atoms: C_6  and  C_7
REMARK    3  A    between atoms: C_10  and  O_11
REMARK                            x       y       z     vdW  Elec       q    Type
REMARK                         _______ _______ _______ _____ _____    ______ ____
ROOT
ATOM      1  C   UNL     1       6.160   4.674  16.174  0.00  0.00    +0.000 A 
ATOM      2  C   UNL     1       4.899   4.162  15.875  0.00  0.00    +0.000 A 
ATOM      3  C   UNL     1       4.032   3.794  16.906  0.00  0.00    +0.000 A 
ATOM      4  C   UNL     1       4.401   3.918  18.259  0.00  0.00    +0.000 A 
ATOM      5  C   UNL     1       5.690   4.411  18.531  0.00  0.00    +0.000 A 
ATOM      6  C   UNL     1       6.559   4.793  17.505  0.00  0.00    +0.000 A 
ENDROOT
BRANCH   4   7
ATOM      7  C   UNL     1       3.464   3.560  19.350  0.00  0.00    +0.000 A 
ATOM      8  C   UNL     1       2.205   4.178  19.471  0.00  0.00    +0.000 A 
ATOM      9  C   UNL     1       1.329   3.859  20.513  0.00  0.00    +0.000 A 
ATOM     10  C   UNL     1       1.701   2.903  21.447  0.00  0.00    +0.000 A 
ATOM     11  C   UNL     1       2.927   2.265  21.356  0.00  0.00    +0.000 A 
ATOM     12  C   UNL     1       3.803   2.596  20.320  0.00  0.00    +0.000 A 
BRANCH  10  13
ATOM     13  O   UNL     1       0.881   2.559  22.480  0.00  0.00    +0.000 OA
ATOM     14  H   UNL     1       1.350   1.928  23.049  0.00  0.00    +0.000 HD
ENDBRANCH  10  13
ENDBRANCH   4   7
BRANCH   1  16
ATOM     15  N   UNL     1       7.754   5.410  14.269  0.00  0.00    +0.000 NA
ATOM     16  C   UNL     1       7.037   5.085  15.122  0.00  0.00    +0.000 C 
ENDBRANCH   1  16
TORSDOF 3
ENDMDL
MODEL 2
REMARK VINA RESULT:      -6.4      0.117      1.245
REMARK  Name = 
REMARK  3 active torsions:
REMARK  status: ('A' for Active; 'I' for Inactive)
REMARK    1  A    between atoms: C_2  and  C_3
REMARK    2  A    between atoms: C_6  and  C_7
REMARK    3  A    between atoms: C_10  and  O_11
REMARK                            x       y       z     vdW  Elec       q    Type
REMARK                         _______ _______ _______ _____ _____    ______ ____
ROOT
ATOM      1  C   UNL     1       6.178   4.659  16.086  0.00  0.00    +0.000 A 
ATOM      2  C   UNL     1       4.885   4.222  15.803  0.00  0.00    +0.000 A 
ATOM      3  C   UNL     1       4.026   3.861  16.844  0.00  0.00    +0.000 A 
ATOM      4  C   UNL     1       4.435   3.917  18.190  0.00  0.00    +0.000 A 
ATOM      5  C   UNL     1       5.755   4.334  18.444  0.00  0.00    +0.000 A 
ATOM      6  C   UNL     1       6.616   4.708  17.409  0.00  0.00    +0.000 A 
ENDROOT
BRANCH   4   7
ATOM      7  C   UNL     1       3.509   3.568  19.293  0.00  0.00    +0.000 A 
ATOM      8  C   UNL     1       3.891   2.689  20.324  0.00  0.00    +0.000 A 
ATOM      9  C   UNL     1       3.011   2.340  21.353  0.00  0.00    +0.000 A 
ATOM     10  C   UNL     1       1.732   2.878  21.368  0.00  0.00    +0.000 A 
ATOM     11  C   UNL     1       1.322   3.754  20.376  0.00  0.00    +0.000 A 
ATOM     12  C   UNL     1       2.202   4.090  19.344  0.00  0.00    +0.000 A 
BRANCH  10  13
ATOM     13  O   UNL     1       0.840   2.567  22.349  0.00  0.00    +0.000 OA
ATOM     14  H   UNL     1       1.246   1.911  22.939  0.00  0.00    +0.000 HD
ENDBRANCH  10  13
ENDBRANCH   4   7
BRANCH   1  16
ATOM     15  N   UNL     1       7.751   5.381  14.159  0.00  0.00    +0.000 NA
ATOM     16  C   UNL     1       7.047   5.062  15.025  0.00  0.00    +0.000 C 
ENDBRANCH   1  16
TORSDOF 3
ENDMDL
MODEL 3
REMARK VINA RESULT:      -6.4      1.323      2.012
REMARK  Name = 
REMARK  3 active torsions:
REMARK  status: ('A' for Active; 'I' for Inactive)
REMARK    1  A    between atoms: C_2  and  C_3
REMARK    2  A    between atoms: C_6  and  C_7
REMARK    3  A    between atoms: C_10  and  O_11
REMARK                            x       y       z     vdW  Elec       q    Type
REMARK                         _______ _______ _______ _____ _____    ______ ____
ROOT
ATOM      1  C   UNL     1       6.337   5.037  15.049  0.00  0.00    +0.000 A 
ATOM      2  C   UNL     1       5.606   6.041  15.681  0.00  0.00    +0.000 A 
ATOM      3  C   UNL     1       4.649   5.709  16.644  0.00  0.00    +0.000 A 
ATOM      4  C   UNL     1       4.391   4.370  16.994  0.00  0.00    +0.000 A 
ATOM      5  C   UNL     1       5.123   3.375  16.319  0.00  0.00    +0.000 A 
ATOM      6  C   UNL     1       6.090   3.701  15.364  0.00  0.00    +0.000 A 
ENDROOT
BRANCH   4   7
ATOM      7  C   UNL     1       3.401   4.023  18.041  0.00  0.00    +0.000 A 
ATOM      8  C   UNL     1       3.772   3.906  19.394  0.00  0.00    +0.000 A 
ATOM      9  C   UNL     1       2.844   3.556  20.381  0.00  0.00    +0.000 A 
ATOM     10  C   UNL     1       1.523   3.329  20.024  0.00  0.00    +0.000 A 
ATOM     11  C   UNL     1       1.117   3.445  18.705  0.00  0.00    +0.000 A 
ATOM     12  C   UNL     1       2.050   3.782  17.721  0.00  0.00    +0.000 A 
BRANCH  10  13
ATOM     13  O   UNL     1       0.585   2.986  20.950  0.00  0.00    +0.000 OA
ATOM     14  H   UNL     1      -0.085   2.429  20.519  0.00  0.00    +0.000 HD
ENDBRANCH  10  13
ENDBRANCH   4   7
BRANCH   1  16
ATOM     15  N   UNL     1       8.160   5.643  13.312  0.00  0.00    +0.000 NA
ATOM     16  C   UNL     1       7.340   5.376  14.090  0.00  0.00    +0.000 C 
ENDBRANCH   1  16
TORSDOF 3
ENDMDL
MODEL 4
REMARK VINA RESULT:      -6.3      1.736      1.970
REMARK  Name = 
REMARK  3 active torsions:
REMARK  status: ('A' for Active; 'I' for Inactive)
REMARK    1  A    between atoms: C_2  and  C_3
REMARK    2  A    between atoms: C_6  and  C_7
REMARK    3  A    between atoms: C_10  and  O_11
REMARK                            x       y       z     vdW  Elec       q    Type
REMARK                         _______ _______ _______ _____ _____    ______ ____
ROOT
ATOM      1  C   UNL     1       6.464   5.086  14.912  0.00  0.00    +0.000 A 
ATOM      2  C   UNL     1       6.110   3.757  15.139  0.00  0.00    +0.000 A 
ATOM      3  C   UNL     1       5.100   3.450  16.054  0.00  0.00    +0.000 A 
ATOM      4  C   UNL     1       4.424   4.455  16.771  0.00  0.00    +0.000 A 
ATOM      5  C   UNL     1       4.822   5.786  16.543  0.00  0.00    +0.000 A 
ATOM      6  C   UNL     1       5.823   6.102  15.621  0.00  0.00    +0.000 A 
ENDROOT
BRANCH   4   7
ATOM      7  C   UNL     1       3.329   4.126  17.713  0.00  0.00    +0.000 A 
ATOM      8  C   UNL     1       2.920   5.032  18.712  0.00  0.00    +0.000 A 
ATOM      9  C   UNL     1       1.902   4.714  19.616  0.00  0.00    +0.000 A 
ATOM     10  C   UNL     1       1.269   3.483  19.526  0.00  0.00    +0.000 A 
ATOM     11  C   UNL     1       1.635   2.570  18.550  0.00  0.00    +0.000 A 
ATOM     12  C   UNL     1       2.661   2.887  17.657  0.00  0.00    +0.000 A 
BRANCH  10  13
ATOM     13  O   UNL     1       0.273   3.130  20.385  0.00  0.00    +0.000 OA
ATOM     14  H   UNL     1       0.627   3.144  21.290  0.00  0.00    +0.000 HD
ENDBRANCH  10  13
ENDBRANCH   4   7
BRANCH   1  16
ATOM     15  N   UNL     1       8.296   5.656  13.172  0.00  0.00    +0.000 NA
ATOM     16  C   UNL     1       7.473   5.406  13.952  0.00  0.00    +0.000 C 
ENDBRANCH   1  16
TORSDOF 3
ENDMDL
MODEL 5
REMARK VINA RESULT:      -6.3      0.259      1.774
REMARK  Name = 
REMARK  3 active torsions:
REMARK  status: ('A' for Active; 'I' for Inactive)
REMARK    1  A    between atoms: C_2  and  C_3
REMARK    2  A    between atoms: C_6  and  C_7
REMARK    3  A    between atoms: C_10  and  O_11
REMARK                            x       y       z     vdW  Elec       q    Type
REMARK                         _______ _______ _______ _____ _____    ______ ____
ROOT
ATOM      1  C   UNL     1       6.236   4.740  15.987  0.00  0.00    +0.000 A 
ATOM      2  C   UNL     1       6.697   4.849  17.298  0.00  0.00    +0.000 A 
ATOM      3  C   UNL     1       5.859   4.513  18.364  0.00  0.00    +0.000 A 
ATOM      4  C   UNL     1       4.540   4.069  18.153  0.00  0.00    +0.000 A 
ATOM      5  C   UNL     1       4.091   3.996  16.821  0.00  0.00    +0.000 A 
ATOM      6  C   UNL     1       4.927   4.319  15.749  0.00  0.00    +0.000 A 
ENDROOT
BRANCH   4   7
ATOM      7  C   UNL     1       3.667   3.679  19.285  0.00  0.00    +0.000 A 
ATOM      8  C   UNL     1       4.022   2.637  20.163  0.00  0.00    +0.000 A 
ATOM      9  C   UNL     1       3.188   2.252  21.217  0.00  0.00    +0.000 A 
ATOM     10  C   UNL     1       1.986   2.917  21.414  0.00  0.00    +0.000 A 
ATOM     11  C   UNL     1       1.607   3.954  20.578  0.00  0.00    +0.000 A 
ATOM     12  C   UNL     1       2.438   4.327  19.519  0.00  0.00    +0.000 A 
BRANCH  10  13
ATOM     13  O   UNL     1       1.142   2.576  22.428  0.00  0.00    +0.000 OA
ATOM     14  H   UNL     1       0.893   1.644  22.321  0.00  0.00    +0.000 HD
ENDBRANCH  10  13
ENDBRANCH   4   7
BRANCH   1  16
ATOM     15  N   UNL     1       7.803   5.311  14.006  0.00  0.00    +0.000 NA
ATOM     16  C   UNL     1       7.102   5.050  14.893  0.00  0.00    +0.000 C 
ENDBRANCH   1  16
TORSDOF 3
ENDMDL
MODEL 6
REMARK VINA RESULT:      -6.3      1.736      2.108
REMARK  Name = 
REMARK  3 active torsions:
REMARK  status: ('A' for Active; 'I' for Inactive)
REMARK    1  A    between atoms: C_2  and  C_3
REMARK    2  A    between atoms: C_6  and  C_7
REMARK    3  A    between atoms: C_10  and  O_11
REMARK                            x       y       z     vdW  Elec       q    Type
REMARK                         _______ _______ _______ _____ _____    ______ ____
ROOT
ATOM      1  C   UNL     1       6.469   5.053  14.887  0.00  0.00    +0.000 A 
ATOM      2  C   UNL     1       6.155   3.719  15.141  0.00  0.00    +0.000 A 
ATOM      3  C   UNL     1       5.152   3.400  16.061  0.00  0.00    +0.000 A 
ATOM      4  C   UNL     1       4.445   4.399  16.755  0.00  0.00    +0.000 A 
ATOM      5  C   UNL     1       4.802   5.736  16.500  0.00  0.00    +0.000 A 
ATOM      6  C   UNL     1       5.795   6.064  15.573  0.00  0.00    +0.000 A 
ENDROOT
BRANCH   4   7
ATOM      7  C   UNL     1       3.357   4.057  17.703  0.00  0.00    +0.000 A 
ATOM      8  C   UNL     1       2.627   2.860  17.584  0.00  0.00    +0.000 A 
ATOM      9  C   UNL     1       1.585   2.546  18.462  0.00  0.00    +0.000 A 
ATOM     10  C   UNL     1       1.267   3.429  19.484  0.00  0.00    +0.000 A 
ATOM     11  C   UNL     1       1.969   4.612  19.641  0.00  0.00    +0.000 A 
ATOM     12  C   UNL     1       3.001   4.926  18.753  0.00  0.00    +0.000 A 
BRANCH  10  13
ATOM     13  O   UNL     1       0.260   3.167  20.364  0.00  0.00    +0.000 OA
ATOM     14  H   UNL     1      -0.163   2.331  20.108  0.00  0.00    +0.000 HD
ENDBRANCH  10  13
ENDBRANCH   4   7
BRANCH   1  16
ATOM     15  N   UNL     1       8.287   5.657  13.144  0.00  0.00    +0.000 NA
ATOM     16  C   UNL     1       7.469   5.383  13.921  0.00  0.00    +0.000 C 
ENDBRANCH   1  16
TORSDOF 3
ENDMDL
MODEL 7
REMARK VINA RESULT:      -6.3      1.512      1.959
REMARK  Name = 
REMARK  3 active torsions:
REMARK  status: ('A' for Active; 'I' for Inactive)
REMARK    1  A    between atoms: C_2  and  C_3
REMARK    2  A    between atoms: C_6  and  C_7
REMARK    3  A    between atoms: C_10  and  O_11
REMARK                            x       y       z     vdW  Elec       q    Type
REMARK                         _______ _______ _______ _____ _____    ______ ____
ROOT
ATOM      1  C   UNL     1       6.374   5.058  14.993  0.00  0.00    +0.000 A 
ATOM      2  C   UNL     1       5.680   6.060  15.669  0.00  0.00    +0.000 A 
ATOM      3  C   UNL     1       4.702   5.722  16.607  0.00  0.00    +0.000 A 
ATOM      4  C   UNL     1       4.383   4.380  16.888  0.00  0.00    +0.000 A 
ATOM      5  C   UNL     1       5.079   3.389  16.170  0.00  0.00    +0.000 A 
ATOM      6  C   UNL     1       6.067   3.720  15.238  0.00  0.00    +0.000 A 
ENDROOT
BRANCH   4   7
ATOM      7  C   UNL     1       3.370   4.025  17.910  0.00  0.00    +0.000 A 
ATOM      8  C   UNL     1       2.351   3.090  17.643  0.00  0.00    +0.000 A 
ATOM      9  C   UNL     1       1.381   2.772  18.598  0.00  0.00    +0.000 A 
ATOM     10  C   UNL     1       1.425   3.380  19.844  0.00  0.00    +0.000 A 
ATOM     11  C   UNL     1       2.418   4.296  20.148  0.00  0.00    +0.000 A 
ATOM     12  C   UNL     1       3.378   4.620  19.186  0.00  0.00    +0.000 A 
BRANCH  10  13
ATOM     13  O   UNL     1       0.501   3.101  20.805  0.00  0.00    +0.000 OA
ATOM     14  H   UNL     1       0.492   2.142  20.955  0.00  0.00    +0.000 HD
ENDBRANCH  10  13
ENDBRANCH   4   7
BRANCH   1  16
ATOM     15  N   UNL     1       8.231   5.671  13.294  0.00  0.00    +0.000 NA
ATOM     16  C   UNL     1       7.399   5.401  14.058  0.00  0.00    +0.000 C 
ENDBRANCH   1  16
TORSDOF 3
ENDMDL
MODEL 8
REMARK VINA RESULT:      -6.3      4.165      6.514
REMARK  Name = 
REMARK  3 active torsions:
REMARK  status: ('A' for Active; 'I' for Inactive)
REMARK    1  A    between atoms: C_2  and  C_3
REMARK    2  A    between atoms: C_6  and  C_7
REMARK    3  A    between atoms: C_10  and  O_11
REMARK                            x       y       z     vdW  Elec       q    Type
REMARK                         _______ _______ _______ _____ _____    ______ ____
ROOT
ATOM      1  C   UNL     1       2.590   3.200  20.424  0.00  0.00    +0.000 A 
ATOM      2  C   UNL     1       2.985   2.266  19.468  0.00  0.00    +0.000 A 
ATOM      3  C   UNL     1       3.830   2.649  18.423  0.00  0.00    +0.000 A 
ATOM      4  C   UNL     1       4.294   3.972  18.299  0.00  0.00    +0.000 A 
ATOM      5  C   UNL     1       3.857   4.901  19.262  0.00  0.00    +0.000 A 
ATOM      6  C   UNL     1       3.022   4.522  20.316  0.00  0.00    +0.000 A 
ENDROOT
BRANCH   4   7
ATOM      7  C   UNL     1       5.219   4.366  17.210  0.00  0.00    +0.000 A 
ATOM      8  C   UNL     1       6.346   5.174  17.458  0.00  0.00    +0.000 A 
ATOM      9  C   UNL     1       7.206   5.566  16.427  0.00  0.00    +0.000 A 
ATOM     10  C   UNL     1       6.955   5.142  15.131  0.00  0.00    +0.000 A 
ATOM     11  C   UNL     1       5.863   4.338  14.849  0.00  0.00    +0.000 A 
ATOM     12  C   UNL     1       4.999   3.959  15.880  0.00  0.00    +0.000 A 
BRANCH  10  13
ATOM     13  O   UNL     1       7.765   5.499  14.095  0.00  0.00    +0.000 OA
ATOM     14  H   UNL     1       8.635   5.087  14.228  0.00  0.00    +0.000 HD
ENDBRANCH  10  13
ENDBRANCH   4   7
BRANCH   1  16
ATOM     15  N   UNL     1       1.079   2.471  22.397  0.00  0.00    +0.000 NA
ATOM     16  C   UNL     1       1.754   2.803  21.513  0.00  0.00    +0.000 C 
ENDBRANCH   1  16
TORSDOF 3
ENDMDL
MODEL 9
REMARK VINA RESULT:      -6.3      4.164      6.487
REMARK  Name = 
REMARK  3 active torsions:
REMARK  status: ('A' for Active; 'I' for Inactive)
REMARK    1  A    between atoms: C_2  and  C_3
REMARK    2  A    between atoms: C_6  and  C_7
REMARK    3  A    between atoms: C_10  and  O_11
REMARK                            x       y       z     vdW  Elec       q    Type
REMARK                         _______ _______ _______ _____ _____    ______ ____
ROOT
ATOM      1  C   UNL     1       2.633   3.207  20.361  0.00  0.00    +0.000 A 
ATOM      2  C   UNL     1       3.017   2.274  19.400  0.00  0.00    +0.000 A 
ATOM      3  C   UNL     1       3.844   2.660  18.343  0.00  0.00    +0.000 A 
ATOM      4  C   UNL     1       4.302   3.985  18.211  0.00  0.00    +0.000 A 
ATOM      5  C   UNL     1       3.875   4.912  19.180  0.00  0.00    +0.000 A 
ATOM      6  C   UNL     1       3.057   4.531  20.248  0.00  0.00    +0.000 A 
ENDROOT
BRANCH   4   7
ATOM      7  C   UNL     1       5.209   4.383  17.109  0.00  0.00    +0.000 A 
ATOM      8  C   UNL     1       4.966   3.990  15.779  0.00  0.00    +0.000 A 
ATOM      9  C   UNL     1       5.833   4.345  14.740  0.00  0.00    +0.000 A 
ATOM     10  C   UNL     1       6.956   5.110  15.021  0.00  0.00    +0.000 A 
ATOM     11  C   UNL     1       7.223   5.524  16.316  0.00  0.00    +0.000 A 
ATOM     12  C   UNL     1       6.360   5.158  17.351  0.00  0.00    +0.000 A 
BRANCH  10  13
ATOM     13  O   UNL     1       7.829   5.479  14.042  0.00  0.00    +0.000 OA
ATOM     14  H   UNL     1       8.619   4.918  14.107  0.00  0.00    +0.000 HD
ENDBRANCH  10  13
ENDBRANCH   4   7
BRANCH   1  16
ATOM     15  N   UNL     1       1.151   2.472  22.355  0.00  0.00    +0.000 NA
ATOM     16  C   UNL     1       1.815   2.806  21.463  0.00  0.00    +0.000 C 
ENDBRANCH   1  16
TORSDOF 3
ENDMDL
