MODEL 1
REMARK VINA RESULT:      -8.5      0.000      0.000
REMARK  Name = 
REMARK  7 active torsions:
REMARK  status: ('A' for Active; 'I' for Inactive)
REMARK    1  A    between atoms: C_1  and  O_2
REMARK    2  A    between atoms: O_2  and  C_3
REMARK    3  A    between atoms: C_6  and  C_7
REMARK    4  A    between atoms: C_7  and  N_8
REMARK    5  A    between atoms: N_8  and  C_9
REMARK    6  A    between atoms: N_8  and  S_17
REMARK    7  A    between atoms: S_17  and  C_20
REMARK                            x       y       z     vdW  Elec       q    Type
REMARK                         _______ _______ _______ _____ _____    ______ ____
ROOT
ATOM      1  N   UNL     1       4.137   5.833  18.311  0.00  0.00    +0.000 N 
ENDROOT
BRANCH   1   2
ATOM      2  C   UNL     1       3.147   4.913  18.784  0.00  0.00    +0.000 A 
ATOM      3  C   UNL     1       2.273   4.349  17.848  0.00  0.00    +0.000 A 
ATOM      4  C   UNL     1       1.312   3.416  18.248  0.00  0.00    +0.000 A 
ATOM      5  C   UNL     1       1.233   3.052  19.586  0.00  0.00    +0.000 A 
ATOM      6  F   UNL     1       0.321   2.148  19.970  0.00  0.00    +0.000 F 
ATOM      7  C   UNL     1       2.097   3.619  20.518  0.00  0.00    +0.000 A 
ATOM      8  F   UNL     1       2.017   3.259  21.807  0.00  0.00    +0.000 F 
ATOM      9  C   UNL     1       3.057   4.552  20.129  0.00  0.00    +0.000 A 
ENDBRANCH   1   2
BRANCH   1  10
ATOM     10  S   UNL     1       5.744   5.300  18.134  0.00  0.00    +0.000 S 
ATOM     11  O   UNL     1       6.595   6.456  18.341  0.00  0.00    +0.000 OA
ATOM     12  O   UNL     1       5.908   4.136  18.989  0.00  0.00    +0.000 OA
BRANCH  10  13
ATOM     13  C   UNL     1       5.971   4.776  16.463  0.00  0.00    +0.000 A 
ATOM     14  C   UNL     1       5.062   3.808  15.827  0.00  0.00    +0.000 A 
ATOM     15  C   UNL     1       5.205   3.451  14.533  0.00  0.00    +0.000 A 
ATOM     16  C   UNL     1       6.243   4.027  13.759  0.00  0.00    +0.000 A 
ATOM     17  N   UNL     1       6.638   3.853  12.517  0.00  0.00    +0.000 NA
ATOM     18  N   UNL     1       7.668   4.736  12.276  0.00  0.00    +0.000 NA
ATOM     19  C   UNL     1       7.876   5.423  13.378  0.00  0.00    +0.000 A 
ATOM     20  N   UNL     1       7.035   4.990  14.366  0.00  0.00    +0.000 N 
ATOM     21  C   UNL     1       6.916   5.366  15.702  0.00  0.00    +0.000 A 
ENDBRANCH  10  13
ENDBRANCH   1  10
BRANCH   1  22
ATOM     22  C   UNL     1       3.698   7.050  17.607  0.00  0.00    +0.000 C 
BRANCH  22  26
ATOM     23  C   UNL     1       0.855   9.559  19.722  0.00  0.00    +0.000 A 
ATOM     24  C   UNL     1       1.437   8.461  20.359  0.00  0.00    +0.000 A 
ATOM     25  C   UNL     1       2.316   7.617  19.664  0.00  0.00    +0.000 A 
ATOM     26  C   UNL     1       2.623   7.854  18.317  0.00  0.00    +0.000 A 
ATOM     27  C   UNL     1       1.956   8.901  17.663  0.00  0.00    +0.000 A 
ATOM     28  C   UNL     1       1.087   9.752  18.363  0.00  0.00    +0.000 A 
BRANCH  23  30
ATOM     29  C   UNL     1      -0.281   9.810  21.782  0.00  0.00    +0.000 C 
ATOM     30  O   UNL     1       0.046  10.343  20.501  0.00  0.00    +0.000 OA
ENDBRANCH  23  30
ENDBRANCH  22  26
ENDBRANCH   1  22
TORSDOF 6
ENDMDL
MODEL 2
REMARK VINA RESULT:      -8.3      0.672      1.569
REMARK  Name = 
REMARK  7 active torsions:
REMARK  status: ('A' for Active; 'I' for Inactive)
REMARK    1  A    between atoms: C_1  and  O_2
REMARK    2  A    between atoms: O_2  and  C_3
REMARK    3  A    between atoms: C_6  and  C_7
REMARK    4  A    between atoms: C_7  and  N_8
REMARK    5  A    between atoms: N_8  and  C_9
REMARK    6  A    between atoms: N_8  and  S_17
REMARK    7  A    between atoms: S_17  and  C_20
REMARK                            x       y       z     vdW  Elec       q    Type
REMARK                         _______ _______ _______ _____ _____    ______ ____
ROOT
ATOM      1  N   UNL     1       4.054   5.789  18.404  0.00  0.00    +0.000 N 
ENDROOT
BRANCH   1   2
ATOM      2  C   UNL     1       3.173   4.882  19.075  0.00  0.00    +0.000 A 
ATOM      3  C   UNL     1       3.234   4.818  20.472  0.00  0.00    +0.000 A 
ATOM      4  C   UNL     1       2.370   3.979  21.181  0.00  0.00    +0.000 A 
ATOM      5  C   UNL     1       1.449   3.205  20.486  0.00  0.00    +0.000 A 
ATOM      6  F   UNL     1       0.612   2.409  21.164  0.00  0.00    +0.000 F 
ATOM      7  C   UNL     1       1.394   3.262  19.096  0.00  0.00    +0.000 A 
ATOM      8  F   UNL     1       0.500   2.517  18.432  0.00  0.00    +0.000 F 
ATOM      9  C   UNL     1       2.253   4.095  18.380  0.00  0.00    +0.000 A 
ENDBRANCH   1   2
BRANCH   1  10
ATOM     10  S   UNL     1       5.685   5.353  18.190  0.00  0.00    +0.000 S 
ATOM     11  O   UNL     1       6.467   6.565  18.339  0.00  0.00    +0.000 OA
ATOM     12  O   UNL     1       5.948   4.227  19.069  0.00  0.00    +0.000 OA
BRANCH  10  13
ATOM     13  C   UNL     1       5.894   4.797  16.527  0.00  0.00    +0.000 A 
ATOM     14  C   UNL     1       4.954   3.850  15.905  0.00  0.00    +0.000 A 
ATOM     15  C   UNL     1       5.084   3.469  14.617  0.00  0.00    +0.000 A 
ATOM     16  C   UNL     1       6.140   3.999  13.835  0.00  0.00    +0.000 A 
ATOM     17  N   UNL     1       6.529   3.794  12.595  0.00  0.00    +0.000 NA
ATOM     18  N   UNL     1       7.587   4.640  12.341  0.00  0.00    +0.000 NA
ATOM     19  C   UNL     1       7.818   5.335  13.433  0.00  0.00    +0.000 A 
ATOM     20  N   UNL     1       6.964   4.945  14.427  0.00  0.00    +0.000 N 
ATOM     21  C   UNL     1       6.858   5.345  15.757  0.00  0.00    +0.000 A 
ENDBRANCH  10  13
ENDBRANCH   1  10
BRANCH   1  22
ATOM     22  C   UNL     1       3.475   6.854  17.566  0.00  0.00    +0.000 C 
BRANCH  22  26
ATOM     23  C   UNL     1       0.771   9.577  19.597  0.00  0.00    +0.000 A 
ATOM     24  C   UNL     1       1.210   9.855  18.301  0.00  0.00    +0.000 A 
ATOM     25  C   UNL     1       2.124   9.006  17.660  0.00  0.00    +0.000 A 
ATOM     26  C   UNL     1       2.620   7.866  18.308  0.00  0.00    +0.000 A 
ATOM     27  C   UNL     1       2.246   7.651  19.643  0.00  0.00    +0.000 A 
ATOM     28  C   UNL     1       1.321   8.494  20.278  0.00  0.00    +0.000 A 
BRANCH  23  30
ATOM     29  C   UNL     1      -1.066  11.006  19.175  0.00  0.00    +0.000 C 
ATOM     30  O   UNL     1      -0.154  10.444  20.115  0.00  0.00    +0.000 OA
ENDBRANCH  23  30
ENDBRANCH  22  26
ENDBRANCH   1  22
TORSDOF 6
ENDMDL
MODEL 3
REMARK VINA RESULT:      -8.3      0.503      1.182
REMARK  Name = 
REMARK  7 active torsions:
REMARK  status: ('A' for Active; 'I' for Inactive)
REMARK    1  A    between atoms: C_1  and  O_2
REMARK    2  A    between atoms: O_2  and  C_3
REMARK    3  A    between atoms: C_6  and  C_7
REMARK    4  A    between atoms: C_7  and  N_8
REMARK    5  A    between atoms: N_8  and  C_9
REMARK    6  A    between atoms: N_8  and  S_17
REMARK    7  A    between atoms: S_17  and  C_20
REMARK                            x       y       z     vdW  Elec       q    Type
REMARK                         _______ _______ _______ _____ _____    ______ ____
ROOT
ATOM      1  N   UNL     1       4.076   5.762  18.428  0.00  0.00    +0.000 N 
ENDROOT
BRANCH   1   2
ATOM      2  C   UNL     1       3.176   4.865  19.089  0.00  0.00    +0.000 A 
ATOM      3  C   UNL     1       3.211   4.811  20.487  0.00  0.00    +0.000 A 
ATOM      4  C   UNL     1       2.329   3.982  21.186  0.00  0.00    +0.000 A 
ATOM      5  C   UNL     1       1.416   3.210  20.479  0.00  0.00    +0.000 A 
ATOM      6  F   UNL     1       0.560   2.424  21.147  0.00  0.00    +0.000 F 
ATOM      7  C   UNL     1       1.387   3.257  19.088  0.00  0.00    +0.000 A 
ATOM      8  F   UNL     1       0.501   2.512  18.413  0.00  0.00    +0.000 F 
ATOM      9  C   UNL     1       2.265   4.079  18.382  0.00  0.00    +0.000 A 
ENDBRANCH   1   2
BRANCH   1  10
ATOM     10  S   UNL     1       5.701   5.300  18.220  0.00  0.00    +0.000 S 
ATOM     11  O   UNL     1       6.503   6.496  18.396  0.00  0.00    +0.000 OA
ATOM     12  O   UNL     1       5.937   4.155  19.083  0.00  0.00    +0.000 OA
BRANCH  10  13
ATOM     13  C   UNL     1       5.914   4.768  16.550  0.00  0.00    +0.000 A 
ATOM     14  C   UNL     1       4.986   3.816  15.918  0.00  0.00    +0.000 A 
ATOM     15  C   UNL     1       5.120   3.453  14.625  0.00  0.00    +0.000 A 
ATOM     16  C   UNL     1       6.166   4.007  13.848  0.00  0.00    +0.000 A 
ATOM     17  N   UNL     1       6.556   3.823  12.605  0.00  0.00    +0.000 NA
ATOM     18  N   UNL     1       7.602   4.686  12.360  0.00  0.00    +0.000 NA
ATOM     19  C   UNL     1       7.825   5.371  13.460  0.00  0.00    +0.000 A 
ATOM     20  N   UNL     1       6.978   4.956  14.450  0.00  0.00    +0.000 N 
ATOM     21  C   UNL     1       6.869   5.338  15.786  0.00  0.00    +0.000 A 
ENDBRANCH  10  13
ENDBRANCH   1  10
BRANCH   1  22
ATOM     22  C   UNL     1       3.519   6.840  17.592  0.00  0.00    +0.000 C 
BRANCH  22  26
ATOM     23  C   UNL     1       0.973   9.664  19.689  0.00  0.00    +0.000 A 
ATOM     24  C   UNL     1       1.447   8.523  20.340  0.00  0.00    +0.000 A 
ATOM     25  C   UNL     1       2.226   7.582  19.653  0.00  0.00    +0.000 A 
ATOM     26  C   UNL     1       2.540   7.762  18.298  0.00  0.00    +0.000 A 
ATOM     27  C   UNL     1       1.977   8.861  17.632  0.00  0.00    +0.000 A 
ATOM     28  C   UNL     1       1.209   9.809  18.325  0.00  0.00    +0.000 A 
BRANCH  23  30
ATOM     29  C   UNL     1      -0.306   9.995  21.652  0.00  0.00    +0.000 C 
ATOM     30  O   UNL     1       0.258  10.541  20.461  0.00  0.00    +0.000 OA
ENDBRANCH  23  30
ENDBRANCH  22  26
ENDBRANCH   1  22
TORSDOF 6
ENDMDL
MODEL 4
REMARK VINA RESULT:      -8.2      0.637      1.230
REMARK  Name = 
REMARK  7 active torsions:
REMARK  status: ('A' for Active; 'I' for Inactive)
REMARK    1  A    between atoms: C_1  and  O_2
REMARK    2  A    between atoms: O_2  and  C_3
REMARK    3  A    between atoms: C_6  and  C_7
REMARK    4  A    between atoms: C_7  and  N_8
REMARK    5  A    between atoms: N_8  and  C_9
REMARK    6  A    between atoms: N_8  and  S_17
REMARK    7  A    between atoms: S_17  and  C_20
REMARK                            x       y       z     vdW  Elec       q    Type
REMARK                         _______ _______ _______ _____ _____    ______ ____
ROOT
ATOM      1  N   UNL     1       3.976   5.615  18.508  0.00  0.00    +0.000 N 
ENDROOT
BRANCH   1   2
ATOM      2  C   UNL     1       2.903   4.746  18.886  0.00  0.00    +0.000 A 
ATOM      3  C   UNL     1       2.109   4.201  17.870  0.00  0.00    +0.000 A 
ATOM      4  C   UNL     1       1.073   3.316  18.179  0.00  0.00    +0.000 A 
ATOM      5  C   UNL     1       0.837   2.979  19.506  0.00  0.00    +0.000 A 
ATOM      6  F   UNL     1      -0.147   2.121  19.804  0.00  0.00    +0.000 F 
ATOM      7  C   UNL     1       1.622   3.527  20.517  0.00  0.00    +0.000 A 
ATOM      8  F   UNL     1       1.392   3.195  21.795  0.00  0.00    +0.000 F 
ATOM      9  C   UNL     1       2.657   4.413  20.219  0.00  0.00    +0.000 A 
ENDBRANCH   1   2
BRANCH   1  10
ATOM     10  S   UNL     1       5.560   4.994  18.438  0.00  0.00    +0.000 S 
ATOM     11  O   UNL     1       6.422   5.970  19.077  0.00  0.00    +0.000 OA
ATOM     12  O   UNL     1       5.513   3.639  18.960  0.00  0.00    +0.000 OA
BRANCH  10  13
ATOM     13  C   UNL     1       6.040   4.900  16.742  0.00  0.00    +0.000 A 
ATOM     14  C   UNL     1       7.307   5.479  16.264  0.00  0.00    +0.000 A 
ATOM     15  C   UNL     1       7.697   5.358  14.978  0.00  0.00    +0.000 A 
ATOM     16  C   UNL     1       6.882   4.647  14.063  0.00  0.00    +0.000 A 
ATOM     17  N   UNL     1       6.983   4.399  12.775  0.00  0.00    +0.000 NA
ATOM     18  N   UNL     1       5.923   3.594  12.418  0.00  0.00    +0.000 NA
ATOM     19  C   UNL     1       5.202   3.375  13.495  0.00  0.00    +0.000 A 
ATOM     20  N   UNL     1       5.733   4.050  14.560  0.00  0.00    +0.000 N 
ATOM     21  C   UNL     1       5.301   4.171  15.879  0.00  0.00    +0.000 A 
ENDBRANCH  10  13
ENDBRANCH   1  10
BRANCH   1  22
ATOM     22  C   UNL     1       3.660   6.869  17.801  0.00  0.00    +0.000 C 
BRANCH  22  26
ATOM     23  C   UNL     1       0.816   9.519  19.734  0.00  0.00    +0.000 A 
ATOM     24  C   UNL     1       1.374   8.450  20.437  0.00  0.00    +0.000 A 
ATOM     25  C   UNL     1       2.252   7.560  19.803  0.00  0.00    +0.000 A 
ATOM     26  C   UNL     1       2.584   7.721  18.450  0.00  0.00    +0.000 A 
ATOM     27  C   UNL     1       1.942   8.741  17.731  0.00  0.00    +0.000 A 
ATOM     28  C   UNL     1       1.073   9.638  18.371  0.00  0.00    +0.000 A 
BRANCH  23  30
ATOM     29  C   UNL     1       0.040  10.175  21.871  0.00  0.00    +0.000 C 
ATOM     30  O   UNL     1       0.005  10.353  20.457  0.00  0.00    +0.000 OA
ENDBRANCH  23  30
ENDBRANCH  22  26
ENDBRANCH   1  22
TORSDOF 6
ENDMDL
MODEL 5
REMARK VINA RESULT:      -8.2      1.008      2.048
REMARK  Name = 
REMARK  7 active torsions:
REMARK  status: ('A' for Active; 'I' for Inactive)
REMARK    1  A    between atoms: C_1  and  O_2
REMARK    2  A    between atoms: O_2  and  C_3
REMARK    3  A    between atoms: C_6  and  C_7
REMARK    4  A    between atoms: C_7  and  N_8
REMARK    5  A    between atoms: N_8  and  C_9
REMARK    6  A    between atoms: N_8  and  S_17
REMARK    7  A    between atoms: S_17  and  C_20
REMARK                            x       y       z     vdW  Elec       q    Type
REMARK                         _______ _______ _______ _____ _____    ______ ____
ROOT
ATOM      1  N   UNL     1       3.862   5.131  18.868  0.00  0.00    +0.000 N 
ENDROOT
BRANCH   1   2
ATOM      2  C   UNL     1       2.956   4.329  19.633  0.00  0.00    +0.000 A 
ATOM      3  C   UNL     1       3.132   4.282  21.021  0.00  0.00    +0.000 A 
ATOM      4  C   UNL     1       2.253   3.547  21.822  0.00  0.00    +0.000 A 
ATOM      5  C   UNL     1       1.202   2.860  21.226  0.00  0.00    +0.000 A 
ATOM      6  F   UNL     1       0.351   2.165  21.992  0.00  0.00    +0.000 F 
ATOM      7  C   UNL     1       1.033   2.901  19.845  0.00  0.00    +0.000 A 
ATOM      8  F   UNL     1       0.014   2.240  19.278  0.00  0.00    +0.000 F 
ATOM      9  C   UNL     1       1.905   3.630  19.038  0.00  0.00    +0.000 A 
ENDBRANCH   1   2
BRANCH   1  10
ATOM     10  S   UNL     1       5.505   4.689  18.800  0.00  0.00    +0.000 S 
ATOM     11  O   UNL     1       6.230   5.639  19.622  0.00  0.00    +0.000 OA
ATOM     12  O   UNL     1       5.582   3.273  19.117  0.00  0.00    +0.000 OA
BRANCH  10  13
ATOM     13  C   UNL     1       6.064   4.899  17.139  0.00  0.00    +0.000 A 
ATOM     14  C   UNL     1       7.073   5.910  16.785  0.00  0.00    +0.000 A 
ATOM     15  C   UNL     1       7.539   6.032  15.524  0.00  0.00    +0.000 A 
ATOM     16  C   UNL     1       7.061   5.161  14.515  0.00  0.00    +0.000 A 
ATOM     17  N   UNL     1       7.299   5.064  13.225  0.00  0.00    +0.000 NA
ATOM     18  N   UNL     1       6.598   3.978  12.748  0.00  0.00    +0.000 NA
ATOM     19  C   UNL     1       5.949   3.442  13.758  0.00  0.00    +0.000 A 
ATOM     20  N   UNL     1       6.166   4.171  14.894  0.00  0.00    +0.000 N 
ATOM     21  C   UNL     1       5.661   4.032  16.185  0.00  0.00    +0.000 A 
ENDBRANCH  10  13
ENDBRANCH   1  10
BRANCH   1  22
ATOM     22  C   UNL     1       3.317   6.042  17.846  0.00  0.00    +0.000 C 
BRANCH  22  26
ATOM     23  C   UNL     1       1.233   9.561  19.306  0.00  0.00    +0.000 A 
ATOM     24  C   UNL     1       1.763   9.540  18.015  0.00  0.00    +0.000 A 
ATOM     25  C   UNL     1       2.482   8.427  17.556  0.00  0.00    +0.000 A 
ATOM     26  C   UNL     1       2.689   7.315  18.386  0.00  0.00    +0.000 A 
ATOM     27  C   UNL     1       2.236   7.389  19.712  0.00  0.00    +0.000 A 
ATOM     28  C   UNL     1       1.505   8.498  20.164  0.00  0.00    +0.000 A 
BRANCH  23  30
ATOM     29  C   UNL     1      -0.621  10.449  20.476  0.00  0.00    +0.000 C 
ATOM     30  O   UNL     1       0.512  10.676  19.641  0.00  0.00    +0.000 OA
ENDBRANCH  23  30
ENDBRANCH  22  26
ENDBRANCH   1  22
TORSDOF 6
ENDMDL
MODEL 6
REMARK VINA RESULT:      -8.1      0.758      1.594
REMARK  Name = 
REMARK  7 active torsions:
REMARK  status: ('A' for Active; 'I' for Inactive)
REMARK    1  A    between atoms: C_1  and  O_2
REMARK    2  A    between atoms: O_2  and  C_3
REMARK    3  A    between atoms: C_6  and  C_7
REMARK    4  A    between atoms: C_7  and  N_8
REMARK    5  A    between atoms: N_8  and  C_9
REMARK    6  A    between atoms: N_8  and  S_17
REMARK    7  A    between atoms: S_17  and  C_20
REMARK                            x       y       z     vdW  Elec       q    Type
REMARK                         _______ _______ _______ _____ _____    ______ ____
ROOT
ATOM      1  N   UNL     1       3.952   5.639  18.428  0.00  0.00    +0.000 N 
ENDROOT
BRANCH   1   2
ATOM      2  C   UNL     1       2.891   4.766  18.829  0.00  0.00    +0.000 A 
ATOM      3  C   UNL     1       2.080   4.216  17.830  0.00  0.00    +0.000 A 
ATOM      4  C   UNL     1       1.054   3.326  18.160  0.00  0.00    +0.000 A 
ATOM      5  C   UNL     1       0.846   2.991  19.492  0.00  0.00    +0.000 A 
ATOM      6  F   UNL     1      -0.129   2.129  19.811  0.00  0.00    +0.000 F 
ATOM      7  C   UNL     1       1.647   3.545  20.487  0.00  0.00    +0.000 A 
ATOM      8  F   UNL     1       1.444   3.214  21.770  0.00  0.00    +0.000 F 
ATOM      9  C   UNL     1       2.672   4.435  20.167  0.00  0.00    +0.000 A 
ENDBRANCH   1   2
BRANCH   1  10
ATOM     10  S   UNL     1       5.544   5.038  18.374  0.00  0.00    +0.000 S 
ATOM     11  O   UNL     1       6.393   6.040  18.989  0.00  0.00    +0.000 OA
ATOM     12  O   UNL     1       5.515   3.695  18.930  0.00  0.00    +0.000 OA
BRANCH  10  13
ATOM     13  C   UNL     1       6.028   4.908  16.681  0.00  0.00    +0.000 A 
ATOM     14  C   UNL     1       7.317   5.433  16.203  0.00  0.00    +0.000 A 
ATOM     15  C   UNL     1       7.708   5.284  14.920  0.00  0.00    +0.000 A 
ATOM     16  C   UNL     1       6.869   4.596  14.009  0.00  0.00    +0.000 A 
ATOM     17  N   UNL     1       6.966   4.331  12.724  0.00  0.00    +0.000 NA
ATOM     18  N   UNL     1       5.877   3.564  12.370  0.00  0.00    +0.000 NA
ATOM     19  C   UNL     1       5.144   3.384  13.447  0.00  0.00    +0.000 A 
ATOM     20  N   UNL     1       5.696   4.049  14.506  0.00  0.00    +0.000 N 
ATOM     21  C   UNL     1       5.264   4.199  15.822  0.00  0.00    +0.000 A 
ENDBRANCH  10  13
ENDBRANCH   1  10
BRANCH   1  22
ATOM     22  C   UNL     1       3.620   6.870  17.688  0.00  0.00    +0.000 C 
BRANCH  22  26
ATOM     23  C   UNL     1       0.695   9.393  19.671  0.00  0.00    +0.000 A 
ATOM     24  C   UNL     1       1.082   9.660  18.357  0.00  0.00    +0.000 A 
ATOM     25  C   UNL     1       2.064   8.880  17.729  0.00  0.00    +0.000 A 
ATOM     26  C   UNL     1       2.682   7.822  18.409  0.00  0.00    +0.000 A 
ATOM     27  C   UNL     1       2.355   7.626  19.760  0.00  0.00    +0.000 A 
ATOM     28  C   UNL     1       1.363   8.399  20.382  0.00  0.00    +0.000 A 
BRANCH  23  30
ATOM     29  C   UNL     1      -1.194  10.741  19.213  0.00  0.00    +0.000 C 
ATOM     30  O   UNL     1      -0.302  10.185  20.176  0.00  0.00    +0.000 OA
ENDBRANCH  23  30
ENDBRANCH  22  26
ENDBRANCH   1  22
TORSDOF 6
ENDMDL
MODEL 7
REMARK VINA RESULT:      -7.9      5.341      9.492
REMARK  Name = 
REMARK  7 active torsions:
REMARK  status: ('A' for Active; 'I' for Inactive)
REMARK    1  A    between atoms: C_1  and  O_2
REMARK    2  A    between atoms: O_2  and  C_3
REMARK    3  A    between atoms: C_6  and  C_7
REMARK    4  A    between atoms: C_7  and  N_8
REMARK    5  A    between atoms: N_8  and  C_9
REMARK    6  A    between atoms: N_8  and  S_17
REMARK    7  A    between atoms: S_17  and  C_20
REMARK                            x       y       z     vdW  Elec       q    Type
REMARK                         _______ _______ _______ _____ _____    ______ ____
ROOT
ATOM      1  N   UNL     1       0.490   9.726  20.179  0.00  0.00    +0.000 N 
ENDROOT
BRANCH   1   2
ATOM      2  C   UNL     1       1.336   8.737  19.583  0.00  0.00    +0.000 A 
ATOM      3  C   UNL     1       1.870   9.005  18.318  0.00  0.00    +0.000 A 
ATOM      4  C   UNL     1       2.734   8.092  17.706  0.00  0.00    +0.000 A 
ATOM      5  C   UNL     1       3.058   6.913  18.367  0.00  0.00    +0.000 A 
ATOM      6  F   UNL     1       3.896   6.042  17.788  0.00  0.00    +0.000 F 
ATOM      7  C   UNL     1       2.520   6.644  19.622  0.00  0.00    +0.000 A 
ATOM      8  F   UNL     1       2.841   5.507  20.255  0.00  0.00    +0.000 F 
ATOM      9  C   UNL     1       1.656   7.547  20.239  0.00  0.00    +0.000 A 
ENDBRANCH   1   2
BRANCH   1  10
ATOM     10  S   UNL     1       0.312   9.753  21.872  0.00  0.00    +0.000 S 
ATOM     11  O   UNL     1      -0.586   8.667  22.217  0.00  0.00    +0.000 OA
ATOM     12  O   UNL     1       1.647   9.778  22.444  0.00  0.00    +0.000 OA
BRANCH  10  13
ATOM     13  C   UNL     1      -0.492  11.260  22.318  0.00  0.00    +0.000 A 
ATOM     14  C   UNL     1       0.021  12.569  21.881  0.00  0.00    +0.000 A 
ATOM     15  C   UNL     1      -0.626  13.715  22.178  0.00  0.00    +0.000 A 
ATOM     16  C   UNL     1      -1.836  13.666  22.914  0.00  0.00    +0.000 A 
ATOM     17  N   UNL     1      -2.649  14.594  23.368  0.00  0.00    +0.000 NA
ATOM     18  N   UNL     1      -3.717  13.961  23.966  0.00  0.00    +0.000 NA
ATOM     19  C   UNL     1      -3.526  12.665  23.864  0.00  0.00    +0.000 A 
ATOM     20  N   UNL     1      -2.332  12.414  23.247  0.00  0.00    +0.000 N 
ATOM     21  C   UNL     1      -1.677  11.217  22.964  0.00  0.00    +0.000 A 
ENDBRANCH  10  13
ENDBRANCH   1  10
BRANCH   1  22
ATOM     22  C   UNL     1       0.136  10.924  19.397  0.00  0.00    +0.000 C 
BRANCH  22  26
ATOM     23  C   UNL     1      -3.671  11.039  17.312  0.00  0.00    +0.000 A 
ATOM     24  C   UNL     1      -3.486  11.775  18.483  0.00  0.00    +0.000 A 
ATOM     25  C   UNL     1      -2.276  11.701  19.189  0.00  0.00    +0.000 A 
ATOM     26  C   UNL     1      -1.232  10.882  18.738  0.00  0.00    +0.000 A 
ATOM     27  C   UNL     1      -1.466  10.074  17.615  0.00  0.00    +0.000 A 
ATOM     28  C   UNL     1      -2.672  10.160  16.902  0.00  0.00    +0.000 A 
BRANCH  23  30
ATOM     29  C   UNL     1      -5.729  12.204  17.242  0.00  0.00    +0.000 C 
ATOM     30  O   UNL     1      -4.872  11.215  16.676  0.00  0.00    +0.000 OA
ENDBRANCH  23  30
ENDBRANCH  22  26
ENDBRANCH   1  22
TORSDOF 6
ENDMDL
MODEL 8
REMARK VINA RESULT:      -7.8      0.925      1.776
REMARK  Name = 
REMARK  7 active torsions:
REMARK  status: ('A' for Active; 'I' for Inactive)
REMARK    1  A    between atoms: C_1  and  O_2
REMARK    2  A    between atoms: O_2  and  C_3
REMARK    3  A    between atoms: C_6  and  C_7
REMARK    4  A    between atoms: C_7  and  N_8
REMARK    5  A    between atoms: N_8  and  C_9
REMARK    6  A    between atoms: N_8  and  S_17
REMARK    7  A    between atoms: S_17  and  C_20
REMARK                            x       y       z     vdW  Elec       q    Type
REMARK                         _______ _______ _______ _____ _____    ______ ____
ROOT
ATOM      1  N   UNL     1       4.052   5.608  18.588  0.00  0.00    +0.000 N 
ENDROOT
BRANCH   1   2
ATOM      2  C   UNL     1       3.110   4.752  19.243  0.00  0.00    +0.000 A 
ATOM      3  C   UNL     1       3.073   4.765  20.642  0.00  0.00    +0.000 A 
ATOM      4  C   UNL     1       2.147   3.979  21.334  0.00  0.00    +0.000 A 
ATOM      5  C   UNL     1       1.261   3.183  20.618  0.00  0.00    +0.000 A 
ATOM      6  F   UNL     1       0.364   2.438  21.278  0.00  0.00    +0.000 F 
ATOM      7  C   UNL     1       1.303   3.164  19.227  0.00  0.00    +0.000 A 
ATOM      8  F   UNL     1       0.443   2.397  18.543  0.00  0.00    +0.000 F 
ATOM      9  C   UNL     1       2.225   3.943  18.529  0.00  0.00    +0.000 A 
ENDBRANCH   1   2
BRANCH   1  10
ATOM     10  S   UNL     1       5.673   5.105  18.453  0.00  0.00    +0.000 S 
ATOM     11  O   UNL     1       6.492   6.185  18.969  0.00  0.00    +0.000 OA
ATOM     12  O   UNL     1       5.767   3.790  19.063  0.00  0.00    +0.000 OA
BRANCH  10  13
ATOM     13  C   UNL     1       6.055   4.931  16.738  0.00  0.00    +0.000 A 
ATOM     14  C   UNL     1       7.330   5.407  16.177  0.00  0.00    +0.000 A 
ATOM     15  C   UNL     1       7.642   5.224  14.877  0.00  0.00    +0.000 A 
ATOM     16  C   UNL     1       6.733   4.545  14.029  0.00  0.00    +0.000 A 
ATOM     17  N   UNL     1       6.748   4.254  12.746  0.00  0.00    +0.000 NA
ATOM     18  N   UNL     1       5.619   3.514  12.470  0.00  0.00    +0.000 NA
ATOM     19  C   UNL     1       4.944   3.375  13.589  0.00  0.00    +0.000 A 
ATOM     20  N   UNL     1       5.575   4.042  14.603  0.00  0.00    +0.000 N 
ATOM     21  C   UNL     1       5.223   4.229  15.938  0.00  0.00    +0.000 A 
ENDBRANCH  10  13
ENDBRANCH   1  10
BRANCH   1  22
ATOM     22  C   UNL     1       3.550   6.672  17.700  0.00  0.00    +0.000 C 
BRANCH  22  26
ATOM     23  C   UNL     1       1.015   9.627  19.622  0.00  0.00    +0.000 A 
ATOM     24  C   UNL     1       1.435   8.495  20.323  0.00  0.00    +0.000 A 
ATOM     25  C   UNL     1       2.210   7.512  19.691  0.00  0.00    +0.000 A 
ATOM     26  C   UNL     1       2.574   7.641  18.344  0.00  0.00    +0.000 A 
ATOM     27  C   UNL     1       2.065   8.734  17.626  0.00  0.00    +0.000 A 
ATOM     28  C   UNL     1       1.300   9.723  18.263  0.00  0.00    +0.000 A 
BRANCH  23  30
ATOM     29  C   UNL     1      -0.644  11.312  19.597  0.00  0.00    +0.000 C 
ATOM     30  O   UNL     1       0.299  10.546  20.342  0.00  0.00    +0.000 OA
ENDBRANCH  23  30
ENDBRANCH  22  26
ENDBRANCH   1  22
TORSDOF 6
ENDMDL
MODEL 9
REMARK VINA RESULT:      -7.8      6.280     10.287
REMARK  Name = 
REMARK  7 active torsions:
REMARK  status: ('A' for Active; 'I' for Inactive)
REMARK    1  A    between atoms: C_1  and  O_2
REMARK    2  A    between atoms: O_2  and  C_3
REMARK    3  A    between atoms: C_6  and  C_7
REMARK    4  A    between atoms: C_7  and  N_8
REMARK    5  A    between atoms: N_8  and  C_9
REMARK    6  A    between atoms: N_8  and  S_17
REMARK    7  A    between atoms: S_17  and  C_20
REMARK                            x       y       z     vdW  Elec       q    Type
REMARK                         _______ _______ _______ _____ _____    ______ ____
ROOT
ATOM      1  N   UNL     1       0.048  11.637  19.518  0.00  0.00    +0.000 N 
ENDROOT
BRANCH   1   2
ATOM      2  C   UNL     1       0.706  10.370  19.410  0.00  0.00    +0.000 A 
ATOM      3  C   UNL     1       1.416  10.096  18.236  0.00  0.00    +0.000 A 
ATOM      4  C   UNL     1       2.109   8.891  18.092  0.00  0.00    +0.000 A 
ATOM      5  C   UNL     1       2.087   7.965  19.127  0.00  0.00    +0.000 A 
ATOM      6  F   UNL     1       2.761   6.814  18.997  0.00  0.00    +0.000 F 
ATOM      7  C   UNL     1       1.373   8.234  20.292  0.00  0.00    +0.000 A 
ATOM      8  F   UNL     1       1.360   7.338  21.288  0.00  0.00    +0.000 F 
ATOM      9  C   UNL     1       0.677   9.432  20.443  0.00  0.00    +0.000 A 
ENDBRANCH   1   2
BRANCH   1  10
ATOM     10  S   UNL     1       0.599  12.760  20.673  0.00  0.00    +0.000 S 
ATOM     11  O   UNL     1       1.723  12.145  21.354  0.00  0.00    +0.000 OA
ATOM     12  O   UNL     1       0.794  14.025  19.985  0.00  0.00    +0.000 OA
BRANCH  10  13
ATOM     13  C   UNL     1      -0.677  12.990  21.871  0.00  0.00    +0.000 A 
ATOM     14  C   UNL     1      -1.652  11.930  22.175  0.00  0.00    +0.000 A 
ATOM     15  C   UNL     1      -2.592  12.089  23.130  0.00  0.00    +0.000 A 
ATOM     16  C   UNL     1      -2.640  13.296  23.870  0.00  0.00    +0.000 A 
ATOM     17  N   UNL     1      -3.442  13.739  24.814  0.00  0.00    +0.000 NA
ATOM     18  N   UNL     1      -2.973  14.969  25.221  0.00  0.00    +0.000 NA
ATOM     19  C   UNL     1      -1.899  15.245  24.514  0.00  0.00    +0.000 A 
ATOM     20  N   UNL     1      -1.663  14.245  23.612  0.00  0.00    +0.000 N 
ATOM     21  C   UNL     1      -0.690  14.111  22.624  0.00  0.00    +0.000 A 
ENDBRANCH  10  13
ENDBRANCH   1  10
BRANCH   1  22
ATOM     22  C   UNL     1      -0.783  12.105  18.395  0.00  0.00    +0.000 C 
BRANCH  22  26
ATOM     23  C   UNL     1      -4.956  10.924  18.194  0.00  0.00    +0.000 A 
ATOM     24  C   UNL     1      -4.560  11.978  19.019  0.00  0.00    +0.000 A 
ATOM     25  C   UNL     1      -3.207  12.330  19.128  0.00  0.00    +0.000 A 
ATOM     26  C   UNL     1      -2.224  11.628  18.417  0.00  0.00    +0.000 A 
ATOM     27  C   UNL     1      -2.624  10.510  17.668  0.00  0.00    +0.000 A 
ATOM     28  C   UNL     1      -3.980  10.168  17.550  0.00  0.00    +0.000 A 
BRANCH  23  30
ATOM     29  C   UNL     1      -6.862   9.979  19.229  0.00  0.00    +0.000 C 
ATOM     30  O   UNL     1      -6.304  10.690  18.126  0.00  0.00    +0.000 OA
ENDBRANCH  23  30
ENDBRANCH  22  26
ENDBRANCH   1  22
TORSDOF 6
ENDMDL
