MODEL 1
REMARK VINA RESULT:      -7.3      0.000      0.000
REMARK  Name = 
REMARK  7 active torsions:
REMARK  status: ('A' for Active; 'I' for Inactive)
REMARK    1  A    between atoms: C_1  and  O_2
REMARK    2  A    between atoms: O_2  and  C_3
REMARK    3  A    between atoms: C_8  and  O_9
REMARK    4  A    between atoms: O_9  and  S_10
REMARK    5  A    between atoms: S_10  and  C_13
REMARK    6  A    between atoms: C_15  and  C_16
REMARK    7  A    between atoms: C_19  and  C_20
REMARK                            x       y       z     vdW  Elec       q    Type
REMARK                         _______ _______ _______ _____ _____    ______ ____
ROOT
ATOM      1  C   UNL     1       1.009  14.623  19.103  0.00  0.00    +0.000 A 
ATOM      2  C   UNL     1       1.212  15.903  18.575  0.00  0.00    +0.000 A 
ATOM      3  C   UNL     1       0.187  16.835  18.810  0.00  0.00    +0.000 A 
ATOM      4  C   UNL     1      -0.727  16.499  19.788  0.00  0.00    +0.000 A 
ATOM      5  C   UNL     1      -0.144  15.766  20.756  0.00  0.00    +0.000 A 
ATOM      6  C   UNL     1       0.224  14.537  20.253  0.00  0.00    +0.000 A 
ATOM      7  C   UNL     1      -0.468  16.291  22.117  0.00  0.00    +0.000 C 
ATOM      8  N   UNL     1      -1.790  15.900  22.558  0.00  0.00    +0.000 NA
ATOM      9  C   UNL     1      -1.550  14.620  23.211  0.00  0.00    +0.000 C 
ATOM     10  C   UNL     1      -2.721  13.758  23.499  0.00  0.00    +0.000 C 
ATOM     11  C   UNL     1      -3.703  13.723  22.379  0.00  0.00    +0.000 A 
ATOM     12  C   UNL     1      -4.614  12.666  22.505  0.00  0.00    +0.000 A 
ATOM     13  C   UNL     1      -5.684  12.631  21.680  0.00  0.00    +0.000 A 
ATOM     14  C   UNL     1      -5.868  13.613  20.740  0.00  0.00    +0.000 A 
ATOM     15  C   UNL     1      -4.952  14.675  20.562  0.00  0.00    +0.000 A 
ATOM     16  C   UNL     1      -3.802  14.760  21.390  0.00  0.00    +0.000 A 
ATOM     17  C   UNL     1      -2.808  15.991  21.431  0.00  0.00    +0.000 C 
ATOM     18  C   UNL     1      -2.189  16.798  20.074  0.00  0.00    +0.000 C 
ATOM     19  O   UNL     1      -7.053  13.408  20.080  0.00  0.00    +0.000 OA
ATOM     20  C   UNL     1      -7.483  12.135  20.640  0.00  0.00    +0.000 C 
ATOM     21  O   UNL     1      -6.665  11.700  21.733  0.00  0.00    +0.000 OA
ENDROOT
BRANCH   1  23
ATOM     22  C   UNL     1       2.771  13.360  18.200  0.00  0.00    +0.000 C 
ATOM     23  O   UNL     1       1.368  13.491  18.434  0.00  0.00    +0.000 OA
ENDBRANCH   1  23
BRANCH   6  24
ATOM     24  O   UNL     1      -0.838  13.626  20.317  0.00  0.00    +0.000 OA
BRANCH  24  25
ATOM     25  S   UNL     1      -0.763  12.012  20.370  0.00  0.00    +0.000 S 
ATOM     26  O   UNL     1       0.589  11.537  20.218  0.00  0.00    +0.000 OA
ATOM     27  O   UNL     1      -1.541  11.611  21.538  0.00  0.00    +0.000 OA
BRANCH  25  28
ATOM     28  C   UNL     1      -1.727  11.420  18.959  0.00  0.00    +0.000 A 
ATOM     29  C   UNL     1      -3.048  11.862  18.780  0.00  0.00    +0.000 A 
ATOM     30  C   UNL     1      -3.830  11.383  17.716  0.00  0.00    +0.000 A 
ATOM     31  C   UNL     1      -5.230  11.881  17.496  0.00  0.00    +0.000 C 
ATOM     32  C   UNL     1      -3.272  10.463  16.823  0.00  0.00    +0.000 A 
ATOM     33  C   UNL     1      -1.968  10.006  17.009  0.00  0.00    +0.000 A 
ATOM     34  C   UNL     1      -1.174  10.476  18.071  0.00  0.00    +0.000 A 
ATOM     35  C   UNL     1       0.195   9.878  18.243  0.00  0.00    +0.000 C 
ENDBRANCH  25  28
ENDBRANCH  24  25
ENDBRANCH   6  24
TORSDOF 4
ENDMDL
MODEL 2
REMARK VINA RESULT:      -7.2      1.272      1.397
REMARK  Name = 
REMARK  7 active torsions:
REMARK  status: ('A' for Active; 'I' for Inactive)
REMARK    1  A    between atoms: C_1  and  O_2
REMARK    2  A    between atoms: O_2  and  C_3
REMARK    3  A    between atoms: C_8  and  O_9
REMARK    4  A    between atoms: O_9  and  S_10
REMARK    5  A    between atoms: S_10  and  C_13
REMARK    6  A    between atoms: C_15  and  C_16
REMARK    7  A    between atoms: C_19  and  C_20
REMARK                            x       y       z     vdW  Elec       q    Type
REMARK                         _______ _______ _______ _____ _____    ______ ____
ROOT
ATOM      1  C   UNL     1       0.057  14.871  19.271  0.00  0.00    +0.000 A 
ATOM      2  C   UNL     1       0.003  16.075  18.560  0.00  0.00    +0.000 A 
ATOM      3  C   UNL     1      -1.003  16.975  18.951  0.00  0.00    +0.000 A 
ATOM      4  C   UNL     1      -1.597  16.730  20.172  0.00  0.00    +0.000 A 
ATOM      5  C   UNL     1      -0.720  16.168  21.027  0.00  0.00    +0.000 A 
ATOM      6  C   UNL     1      -0.391  14.903  20.592  0.00  0.00    +0.000 A 
ATOM      7  C   UNL     1      -0.722  16.857  22.352  0.00  0.00    +0.000 C 
ATOM      8  N   UNL     1      -1.845  16.461  23.177  0.00  0.00    +0.000 NA
ATOM      9  C   UNL     1      -1.333  15.297  23.887  0.00  0.00    +0.000 C 
ATOM     10  C   UNL     1      -2.308  14.422  24.580  0.00  0.00    +0.000 C 
ATOM     11  C   UNL     1      -3.541  14.183  23.779  0.00  0.00    +0.000 A 
ATOM     12  C   UNL     1      -4.292  13.107  24.270  0.00  0.00    +0.000 A 
ATOM     13  C   UNL     1      -5.533  12.903  23.774  0.00  0.00    +0.000 A 
ATOM     14  C   UNL     1      -6.041  13.735  22.810  0.00  0.00    +0.000 A 
ATOM     15  C   UNL     1      -5.298  14.810  22.267  0.00  0.00    +0.000 A 
ATOM     16  C   UNL     1      -3.985  15.068  22.738  0.00  0.00    +0.000 A 
ATOM     17  C   UNL     1      -3.126  16.343  22.363  0.00  0.00    +0.000 C 
ATOM     18  C   UNL     1      -2.954  16.988  20.805  0.00  0.00    +0.000 C 
ATOM     19  O   UNL     1      -7.334  13.381  22.523  0.00  0.00    +0.000 OA
ATOM     20  C   UNL     1      -7.490  12.176  23.324  0.00  0.00    +0.000 C 
ATOM     21  O   UNL     1      -6.382  11.938  24.200  0.00  0.00    +0.000 OA
ENDROOT
BRANCH   1  23
ATOM     22  C   UNL     1       1.717  13.378  18.544  0.00  0.00    +0.000 C 
ATOM     23  O   UNL     1       0.327  13.678  18.668  0.00  0.00    +0.000 OA
ENDBRANCH   1  23
BRANCH   6  24
ATOM     24  O   UNL     1      -1.316  13.955  21.047  0.00  0.00    +0.000 OA
BRANCH  24  25
ATOM     25  S   UNL     1      -1.081  12.375  21.296  0.00  0.00    +0.000 S 
ATOM     26  O   UNL     1       0.304  12.078  21.564  0.00  0.00    +0.000 OA
ATOM     27  O   UNL     1      -2.104  11.961  22.251  0.00  0.00    +0.000 OA
BRANCH  25  28
ATOM     28  C   UNL     1      -1.541  11.552  19.753  0.00  0.00    +0.000 A 
ATOM     29  C   UNL     1      -2.750  11.880  19.119  0.00  0.00    +0.000 A 
ATOM     30  C   UNL     1      -3.150  11.223  17.943  0.00  0.00    +0.000 A 
ATOM     31  C   UNL     1      -4.422  11.598  17.239  0.00  0.00    +0.000 C 
ATOM     32  C   UNL     1      -2.319  10.239  17.400  0.00  0.00    +0.000 A 
ATOM     33  C   UNL     1      -1.127   9.894  18.037  0.00  0.00    +0.000 A 
ATOM     34  C   UNL     1      -0.716  10.543  19.216  0.00  0.00    +0.000 A 
ATOM     35  C   UNL     1       0.544  10.061  19.880  0.00  0.00    +0.000 C 
ENDBRANCH  25  28
ENDBRANCH  24  25
ENDBRANCH   6  24
TORSDOF 4
ENDMDL
MODEL 3
REMARK VINA RESULT:      -7.2      1.343      2.152
REMARK  Name = 
REMARK  7 active torsions:
REMARK  status: ('A' for Active; 'I' for Inactive)
REMARK    1  A    between atoms: C_1  and  O_2
REMARK    2  A    between atoms: O_2  and  C_3
REMARK    3  A    between atoms: C_8  and  O_9
REMARK    4  A    between atoms: O_9  and  S_10
REMARK    5  A    between atoms: S_10  and  C_13
REMARK    6  A    between atoms: C_15  and  C_16
REMARK    7  A    between atoms: C_19  and  C_20
REMARK                            x       y       z     vdW  Elec       q    Type
REMARK                         _______ _______ _______ _____ _____    ______ ____
ROOT
ATOM      1  C   UNL     1       0.148  14.966  19.365  0.00  0.00    +0.000 A 
ATOM      2  C   UNL     1       0.077  16.121  18.577  0.00  0.00    +0.000 A 
ATOM      3  C   UNL     1      -1.001  16.981  18.843  0.00  0.00    +0.000 A 
ATOM      4  C   UNL     1      -1.664  16.775  20.036  0.00  0.00    +0.000 A 
ATOM      5  C   UNL     1      -0.818  16.318  20.981  0.00  0.00    +0.000 A 
ATOM      6  C   UNL     1      -0.391  15.050  20.649  0.00  0.00    +0.000 A 
ATOM      7  C   UNL     1      -0.949  17.084  22.256  0.00  0.00    +0.000 C 
ATOM      8  N   UNL     1      -2.103  16.672  23.030  0.00  0.00    +0.000 NA
ATOM      9  C   UNL     1      -1.578  15.586  23.845  0.00  0.00    +0.000 C 
ATOM     10  C   UNL     1      -2.550  14.698  24.527  0.00  0.00    +0.000 C 
ATOM     11  C   UNL     1      -3.709  14.338  23.664  0.00  0.00    +0.000 A 
ATOM     12  C   UNL     1      -4.433  13.252  24.172  0.00  0.00    +0.000 A 
ATOM     13  C   UNL     1      -5.623  12.945  23.610  0.00  0.00    +0.000 A 
ATOM     14  C   UNL     1      -6.108  13.688  22.564  0.00  0.00    +0.000 A 
ATOM     15  C   UNL     1      -5.390  14.769  22.003  0.00  0.00    +0.000 A 
ATOM     16  C   UNL     1      -4.128  15.132  22.541  0.00  0.00    +0.000 A 
ATOM     17  C   UNL     1      -3.316  16.431  22.143  0.00  0.00    +0.000 C 
ATOM     18  C   UNL     1      -3.073  16.991  20.561  0.00  0.00    +0.000 C 
ATOM     19  O   UNL     1      -7.357  13.241  22.216  0.00  0.00    +0.000 OA
ATOM     20  C   UNL     1      -7.502  12.079  23.080  0.00  0.00    +0.000 C 
ATOM     21  O   UNL     1      -6.445  11.960  24.040  0.00  0.00    +0.000 OA
ENDROOT
BRANCH   1  23
ATOM     22  C   UNL     1       1.882  13.693  18.423  0.00  0.00    +0.000 C 
ATOM     23  O   UNL     1       0.523  13.757  18.859  0.00  0.00    +0.000 OA
ENDBRANCH   1  23
BRANCH   6  24
ATOM     24  O   UNL     1      -1.292  14.079  21.103  0.00  0.00    +0.000 OA
BRANCH  24  25
ATOM     25  S   UNL     1      -0.979  12.548  21.517  0.00  0.00    +0.000 S 
ATOM     26  O   UNL     1       0.370  12.391  22.000  0.00  0.00    +0.000 OA
ATOM     27  O   UNL     1      -2.098  12.120  22.351  0.00  0.00    +0.000 OA
BRANCH  25  28
ATOM     28  C   UNL     1      -1.147  11.576  20.001  0.00  0.00    +0.000 A 
ATOM     29  C   UNL     1      -0.072  10.792  19.551  0.00  0.00    +0.000 A 
ATOM     30  C   UNL     1      -0.163  10.063  18.353  0.00  0.00    +0.000 A 
ATOM     31  C   UNL     1       0.968   9.191  17.887  0.00  0.00    +0.000 C 
ATOM     32  C   UNL     1      -1.349  10.117  17.614  0.00  0.00    +0.000 A 
ATOM     33  C   UNL     1      -2.411  10.911  18.046  0.00  0.00    +0.000 A 
ATOM     34  C   UNL     1      -2.332  11.647  19.242  0.00  0.00    +0.000 A 
ATOM     35  C   UNL     1      -3.493  12.534  19.598  0.00  0.00    +0.000 C 
ENDBRANCH  25  28
ENDBRANCH  24  25
ENDBRANCH   6  24
TORSDOF 4
ENDMDL
MODEL 4
REMARK VINA RESULT:      -6.9      2.036      3.673
REMARK  Name = 
REMARK  7 active torsions:
REMARK  status: ('A' for Active; 'I' for Inactive)
REMARK    1  A    between atoms: C_1  and  O_2
REMARK    2  A    between atoms: O_2  and  C_3
REMARK    3  A    between atoms: C_8  and  O_9
REMARK    4  A    between atoms: O_9  and  S_10
REMARK    5  A    between atoms: S_10  and  C_13
REMARK    6  A    between atoms: C_15  and  C_16
REMARK    7  A    between atoms: C_19  and  C_20
REMARK                            x       y       z     vdW  Elec       q    Type
REMARK                         _______ _______ _______ _____ _____    ______ ____
ROOT
ATOM      1  C   UNL     1       1.531  12.076  19.729  0.00  0.00    +0.000 A 
ATOM      2  C   UNL     1       2.212  12.413  18.554  0.00  0.00    +0.000 A 
ATOM      3  C   UNL     1       1.972  13.703  18.052  0.00  0.00    +0.000 A 
ATOM      4  C   UNL     1       1.371  14.591  18.922  0.00  0.00    +0.000 A 
ATOM      5  C   UNL     1       1.735  14.337  20.194  0.00  0.00    +0.000 A 
ATOM      6  C   UNL     1       1.217  13.124  20.594  0.00  0.00    +0.000 A 
ATOM      7  C   UNL     1       2.176  15.577  20.900  0.00  0.00    +0.000 C 
ATOM      8  N   UNL     1       1.058  16.387  21.338  0.00  0.00    +0.000 NA
ATOM      9  C   UNL     1       0.765  15.850  22.660  0.00  0.00    +0.000 C 
ATOM     10  C   UNL     1      -0.531  16.211  23.283  0.00  0.00    +0.000 C 
ATOM     11  C   UNL     1      -1.666  16.176  22.320  0.00  0.00    +0.000 A 
ATOM     12  C   UNL     1      -2.910  16.178  22.964  0.00  0.00    +0.000 A 
ATOM     13  C   UNL     1      -4.025  16.356  22.221  0.00  0.00    +0.000 A 
ATOM     14  C   UNL     1      -3.934  16.530  20.864  0.00  0.00    +0.000 A 
ATOM     15  C   UNL     1      -2.699  16.499  20.176  0.00  0.00    +0.000 A 
ATOM     16  C   UNL     1      -1.494  16.304  20.899  0.00  0.00    +0.000 A 
ATOM     17  C   UNL     1      -0.041  16.443  20.287  0.00  0.00    +0.000 C 
ATOM     18  C   UNL     1       0.464  15.804  18.800  0.00  0.00    +0.000 C 
ATOM     19  O   UNL     1      -5.179  16.768  20.341  0.00  0.00    +0.000 OA
ATOM     20  C   UNL     1      -6.026  16.589  21.511  0.00  0.00    +0.000 C 
ATOM     21  O   UNL     1      -5.279  16.435  22.724  0.00  0.00    +0.000 OA
ENDROOT
BRANCH   1  23
ATOM     22  C   UNL     1       0.870  10.042  18.759  0.00  0.00    +0.000 C 
ATOM     23  O   UNL     1       1.007  10.835  19.939  0.00  0.00    +0.000 OA
ENDBRANCH   1  23
BRANCH   6  24
ATOM     24  O   UNL     1      -0.087  13.269  21.084  0.00  0.00    +0.000 OA
BRANCH  24  25
ATOM     25  S   UNL     1      -0.846  12.353  22.178  0.00  0.00    +0.000 S 
ATOM     26  O   UNL     1      -0.565  10.952  21.987  0.00  0.00    +0.000 OA
ATOM     27  O   UNL     1      -0.583  12.971  23.474  0.00  0.00    +0.000 OA
BRANCH  25  28
ATOM     28  C   UNL     1      -2.615  12.610  21.903  0.00  0.00    +0.000 A 
ATOM     29  C   UNL     1      -3.489  12.686  23.001  0.00  0.00    +0.000 A 
ATOM     30  C   UNL     1      -4.872  12.842  22.811  0.00  0.00    +0.000 A 
ATOM     31  C   UNL     1      -5.807  12.964  23.980  0.00  0.00    +0.000 C 
ATOM     32  C   UNL     1      -5.373  12.934  21.509  0.00  0.00    +0.000 A 
ATOM     33  C   UNL     1      -4.512  12.837  20.416  0.00  0.00    +0.000 A 
ATOM     34  C   UNL     1      -3.125  12.679  20.591  0.00  0.00    +0.000 A 
ATOM     35  C   UNL     1      -2.277  12.511  19.362  0.00  0.00    +0.000 C 
ENDBRANCH  25  28
ENDBRANCH  24  25
ENDBRANCH   6  24
TORSDOF 4
ENDMDL
MODEL 5
REMARK VINA RESULT:      -6.9      7.454     11.593
REMARK  Name = 
REMARK  7 active torsions:
REMARK  status: ('A' for Active; 'I' for Inactive)
REMARK    1  A    between atoms: C_1  and  O_2
REMARK    2  A    between atoms: O_2  and  C_3
REMARK    3  A    between atoms: C_8  and  O_9
REMARK    4  A    between atoms: O_9  and  S_10
REMARK    5  A    between atoms: S_10  and  C_13
REMARK    6  A    between atoms: C_15  and  C_16
REMARK    7  A    between atoms: C_19  and  C_20
REMARK                            x       y       z     vdW  Elec       q    Type
REMARK                         _______ _______ _______ _____ _____    ______ ____
ROOT
ATOM      1  C   UNL     1       4.217  16.636  20.474  0.00  0.00    +0.000 A 
ATOM      2  C   UNL     1       3.099  16.016  21.043  0.00  0.00    +0.000 A 
ATOM      3  C   UNL     1       3.363  14.905  21.863  0.00  0.00    +0.000 A 
ATOM      4  C   UNL     1       4.670  14.752  22.277  0.00  0.00    +0.000 A 
ATOM      5  C   UNL     1       5.271  15.950  22.421  0.00  0.00    +0.000 A 
ATOM      6  C   UNL     1       5.412  16.552  21.189  0.00  0.00    +0.000 A 
ATOM      7  C   UNL     1       5.977  16.059  23.732  0.00  0.00    +0.000 C 
ATOM      8  N   UNL     1       7.253  15.373  23.729  0.00  0.00    +0.000 NA
ATOM      9  C   UNL     1       8.173  16.398  23.254  0.00  0.00    +0.000 C 
ATOM     10  C   UNL     1       9.519  15.968  22.805  0.00  0.00    +0.000 C 
ATOM     11  C   UNL     1       9.487  14.721  21.993  0.00  0.00    +0.000 A 
ATOM     12  C   UNL     1      10.684  14.510  21.296  0.00  0.00    +0.000 A 
ATOM     13  C   UNL     1      10.878  13.320  20.684  0.00  0.00    +0.000 A 
ATOM     14  C   UNL     1       9.917  12.343  20.747  0.00  0.00    +0.000 A 
ATOM     15  C   UNL     1       8.683  12.533  21.411  0.00  0.00    +0.000 A 
ATOM     16  C   UNL     1       8.416  13.765  22.063  0.00  0.00    +0.000 A 
ATOM     17  C   UNL     1       7.171  14.039  23.001  0.00  0.00    +0.000 C 
ATOM     18  C   UNL     1       5.570  13.591  22.665  0.00  0.00    +0.000 C 
ATOM     19  O   UNL     1      10.368  11.208  20.124  0.00  0.00    +0.000 OA
ATOM     20  C   UNL     1      11.639  11.659  19.578  0.00  0.00    +0.000 C 
ATOM     21  O   UNL     1      12.008  12.968  20.029  0.00  0.00    +0.000 OA
ENDROOT
BRANCH   1  23
ATOM     22  C   UNL     1       3.554  16.280  18.250  0.00  0.00    +0.000 C 
ATOM     23  O   UNL     1       4.215  17.117  19.199  0.00  0.00    +0.000 OA
ENDBRANCH   1  23
BRANCH   6  24
ATOM     24  O   UNL     1       6.587  16.132  20.554  0.00  0.00    +0.000 OA
BRANCH  24  25
ATOM     25  S   UNL     1       7.529  16.975  19.546  0.00  0.00    +0.000 S 
ATOM     26  O   UNL     1       6.751  17.741  18.605  0.00  0.00    +0.000 OA
ATOM     27  O   UNL     1       8.514  17.651  20.386  0.00  0.00    +0.000 OA
BRANCH  25  28
ATOM     28  C   UNL     1       8.487  15.754  18.619  0.00  0.00    +0.000 A 
ATOM     29  C   UNL     1       7.964  14.468  18.408  0.00  0.00    +0.000 A 
ATOM     30  C   UNL     1       8.707  13.488  17.728  0.00  0.00    +0.000 A 
ATOM     31  C   UNL     1       8.137  12.124  17.465  0.00  0.00    +0.000 C 
ATOM     32  C   UNL     1       9.980  13.814  17.249  0.00  0.00    +0.000 A 
ATOM     33  C   UNL     1      10.513  15.083  17.474  0.00  0.00    +0.000 A 
ATOM     34  C   UNL     1       9.780  16.072  18.155  0.00  0.00    +0.000 A 
ATOM     35  C   UNL     1      10.455  17.389  18.419  0.00  0.00    +0.000 C 
ENDBRANCH  25  28
ENDBRANCH  24  25
ENDBRANCH   6  24
TORSDOF 4
ENDMDL
MODEL 6
REMARK VINA RESULT:      -6.9      6.698     10.322
REMARK  Name = 
REMARK  7 active torsions:
REMARK  status: ('A' for Active; 'I' for Inactive)
REMARK    1  A    between atoms: C_1  and  O_2
REMARK    2  A    between atoms: O_2  and  C_3
REMARK    3  A    between atoms: C_8  and  O_9
REMARK    4  A    between atoms: O_9  and  S_10
REMARK    5  A    between atoms: S_10  and  C_13
REMARK    6  A    between atoms: C_15  and  C_16
REMARK    7  A    between atoms: C_19  and  C_20
REMARK                            x       y       z     vdW  Elec       q    Type
REMARK                         _______ _______ _______ _____ _____    ______ ____
ROOT
ATOM      1  C   UNL     1       9.519  12.464  21.525  0.00  0.00    +0.000 A 
ATOM      2  C   UNL     1       9.961  11.336  20.824  0.00  0.00    +0.000 A 
ATOM      3  C   UNL     1       9.554  11.248  19.482  0.00  0.00    +0.000 A 
ATOM      4  C   UNL     1       9.058  12.407  18.920  0.00  0.00    +0.000 A 
ATOM      5  C   UNL     1       9.655  13.491  19.453  0.00  0.00    +0.000 A 
ATOM      6  C   UNL     1       9.294  13.619  20.776  0.00  0.00    +0.000 A 
ATOM      7  C   UNL     1      10.132  14.434  18.397  0.00  0.00    +0.000 C 
ATOM      8  N   UNL     1       9.058  15.241  17.854  0.00  0.00    +0.000 NA
ATOM      9  C   UNL     1       9.036  16.394  18.743  0.00  0.00    +0.000 C 
ATOM     10  C   UNL     1       7.848  17.281  18.699  0.00  0.00    +0.000 C 
ATOM     11  C   UNL     1       6.567  16.527  18.607  0.00  0.00    +0.000 A 
ATOM     12  C   UNL     1       5.457  17.328  18.906  0.00  0.00    +0.000 A 
ATOM     13  C   UNL     1       4.220  16.840  18.665  0.00  0.00    +0.000 A 
ATOM     14  C   UNL     1       4.061  15.584  18.137  0.00  0.00    +0.000 A 
ATOM     15  C   UNL     1       5.157  14.735  17.855  0.00  0.00    +0.000 A 
ATOM     16  C   UNL     1       6.480  15.186  18.098  0.00  0.00    +0.000 A 
ATOM     17  C   UNL     1       7.791  14.423  17.648  0.00  0.00    +0.000 C 
ATOM     18  C   UNL     1       8.068  12.760  17.822  0.00  0.00    +0.000 C 
ATOM     19  O   UNL     1       2.731  15.341  17.909  0.00  0.00    +0.000 OA
ATOM     20  C   UNL     1       2.115  16.531  18.476  0.00  0.00    +0.000 C 
ATOM     21  O   UNL     1       3.071  17.529  18.855  0.00  0.00    +0.000 OA
ENDROOT
BRANCH   1  23
ATOM     22  C   UNL     1       8.037  11.507  23.076  0.00  0.00    +0.000 C 
ATOM     23  O   UNL     1       9.120  12.404  22.828  0.00  0.00    +0.000 OA
ENDBRANCH   1  23
BRANCH   6  24
ATOM     24  O   UNL     1       8.089  14.321  20.906  0.00  0.00    +0.000 OA
BRANCH  24  25
ATOM     25  S   UNL     1       7.668  15.370  22.062  0.00  0.00    +0.000 S 
ATOM     26  O   UNL     1       8.072  14.913  23.368  0.00  0.00    +0.000 OA
ATOM     27  O   UNL     1       8.099  16.683  21.592  0.00  0.00    +0.000 OA
BRANCH  25  28
ATOM     28  C   UNL     1       5.861  15.448  22.030  0.00  0.00    +0.000 A 
ATOM     29  C   UNL     1       5.126  14.400  21.454  0.00  0.00    +0.000 A 
ATOM     30  C   UNL     1       3.724  14.459  21.378  0.00  0.00    +0.000 A 
ATOM     31  C   UNL     1       2.930  13.324  20.799  0.00  0.00    +0.000 C 
ATOM     32  C   UNL     1       3.062  15.575  21.899  0.00  0.00    +0.000 A 
ATOM     33  C   UNL     1       3.789  16.628  22.453  0.00  0.00    +0.000 A 
ATOM     34  C   UNL     1       5.193  16.583  22.533  0.00  0.00    +0.000 A 
ATOM     35  C   UNL     1       5.905  17.790  23.079  0.00  0.00    +0.000 C 
ENDBRANCH  25  28
ENDBRANCH  24  25
ENDBRANCH   6  24
TORSDOF 4
ENDMDL
MODEL 7
REMARK VINA RESULT:      -6.9      2.691      5.391
REMARK  Name = 
REMARK  7 active torsions:
REMARK  status: ('A' for Active; 'I' for Inactive)
REMARK    1  A    between atoms: C_1  and  O_2
REMARK    2  A    between atoms: O_2  and  C_3
REMARK    3  A    between atoms: C_8  and  O_9
REMARK    4  A    between atoms: O_9  and  S_10
REMARK    5  A    between atoms: S_10  and  C_13
REMARK    6  A    between atoms: C_15  and  C_16
REMARK    7  A    between atoms: C_19  and  C_20
REMARK                            x       y       z     vdW  Elec       q    Type
REMARK                         _______ _______ _______ _____ _____    ______ ____
ROOT
ATOM      1  C   UNL     1      -2.946  11.765  18.421  0.00  0.00    +0.000 A 
ATOM      2  C   UNL     1      -1.725  11.853  17.743  0.00  0.00    +0.000 A 
ATOM      3  C   UNL     1      -0.758  12.690  18.324  0.00  0.00    +0.000 A 
ATOM      4  C   UNL     1      -0.984  13.063  19.634  0.00  0.00    +0.000 A 
ATOM      5  C   UNL     1      -1.633  12.090  20.303  0.00  0.00    +0.000 A 
ATOM      6  C   UNL     1      -2.910  11.953  19.803  0.00  0.00    +0.000 A 
ATOM      7  C   UNL     1      -0.977  11.786  21.610  0.00  0.00    +0.000 C 
ATOM      8  N   UNL     1      -1.302  12.763  22.629  0.00  0.00    +0.000 NA
ATOM      9  C   UNL     1      -2.519  12.223  23.221  0.00  0.00    +0.000 C 
ATOM     10  C   UNL     1      -3.329  13.119  24.079  0.00  0.00    +0.000 C 
ATOM     11  C   UNL     1      -3.452  14.496  23.523  0.00  0.00    +0.000 A 
ATOM     12  C   UNL     1      -4.476  15.227  24.139  0.00  0.00    +0.000 A 
ATOM     13  C   UNL     1      -4.570  16.552  23.885  0.00  0.00    +0.000 A 
ATOM     14  C   UNL     1      -3.678  17.162  23.041  0.00  0.00    +0.000 A 
ATOM     15  C   UNL     1      -2.654  16.449  22.376  0.00  0.00    +0.000 A 
ATOM     16  C   UNL     1      -2.511  15.053  22.592  0.00  0.00    +0.000 A 
ATOM     17  C   UNL     1      -1.299  14.179  22.072  0.00  0.00    +0.000 C 
ATOM     18  C   UNL     1      -0.634  14.250  20.514  0.00  0.00    +0.000 C 
ATOM     19  O   UNL     1      -3.923  18.510  23.002  0.00  0.00    +0.000 OA
ATOM     20  C   UNL     1      -5.130  18.612  23.808  0.00  0.00    +0.000 C 
ATOM     21  O   UNL     1      -5.474  17.381  24.456  0.00  0.00    +0.000 OA
ENDROOT
BRANCH   1  23
ATOM     22  C   UNL     1      -4.069  11.202  16.437  0.00  0.00    +0.000 C 
ATOM     23  O   UNL     1      -4.142  11.712  17.769  0.00  0.00    +0.000 OA
ENDBRANCH   1  23
BRANCH   6  24
ATOM     24  O   UNL     1      -3.792  12.850  20.418  0.00  0.00    +0.000 OA
BRANCH  24  25
ATOM     25  S   UNL     1      -5.372  12.657  20.699  0.00  0.00    +0.000 S 
ATOM     26  O   UNL     1      -6.034  12.008  19.596  0.00  0.00    +0.000 OA
ATOM     27  O   UNL     1      -5.476  12.088  22.039  0.00  0.00    +0.000 OA
BRANCH  25  28
ATOM     28  C   UNL     1      -6.058  14.323  20.860  0.00  0.00    +0.000 A 
ATOM     29  C   UNL     1      -5.441  15.400  20.202  0.00  0.00    +0.000 A 
ATOM     30  C   UNL     1      -5.930  16.709  20.348  0.00  0.00    +0.000 A 
ATOM     31  C   UNL     1      -5.299  17.859  19.615  0.00  0.00    +0.000 C 
ATOM     32  C   UNL     1      -7.052  16.930  21.152  0.00  0.00    +0.000 A 
ATOM     33  C   UNL     1      -7.655  15.867  21.824  0.00  0.00    +0.000 A 
ATOM     34  C   UNL     1      -7.175  14.552  21.689  0.00  0.00    +0.000 A 
ATOM     35  C   UNL     1      -7.836  13.475  22.505  0.00  0.00    +0.000 C 
ENDBRANCH  25  28
ENDBRANCH  24  25
ENDBRANCH   6  24
TORSDOF 4
ENDMDL
MODEL 8
REMARK VINA RESULT:      -6.8      2.388      3.531
REMARK  Name = 
REMARK  7 active torsions:
REMARK  status: ('A' for Active; 'I' for Inactive)
REMARK    1  A    between atoms: C_1  and  O_2
REMARK    2  A    between atoms: O_2  and  C_3
REMARK    3  A    between atoms: C_8  and  O_9
REMARK    4  A    between atoms: O_9  and  S_10
REMARK    5  A    between atoms: S_10  and  C_13
REMARK    6  A    between atoms: C_15  and  C_16
REMARK    7  A    between atoms: C_19  and  C_20
REMARK                            x       y       z     vdW  Elec       q    Type
REMARK                         _______ _______ _______ _____ _____    ______ ____
ROOT
ATOM      1  C   UNL     1       2.752  16.373  18.054  0.00  0.00    +0.000 A 
ATOM      2  C   UNL     1       2.471  17.376  17.119  0.00  0.00    +0.000 A 
ATOM      3  C   UNL     1       1.252  18.053  17.292  0.00  0.00    +0.000 A 
ATOM      4  C   UNL     1       0.637  17.894  18.517  0.00  0.00    +0.000 A 
ATOM      5  C   UNL     1       1.551  17.734  19.495  0.00  0.00    +0.000 A 
ATOM      6  C   UNL     1       2.205  16.533  19.327  0.00  0.00    +0.000 A 
ATOM      7  C   UNL     1       1.278  18.631  20.658  0.00  0.00    +0.000 C 
ATOM      8  N   UNL     1       0.219  18.125  21.507  0.00  0.00    +0.000 NA
ATOM      9  C   UNL     1       0.935  17.275  22.448  0.00  0.00    +0.000 C 
ATOM     10  C   UNL     1       0.142  16.327  23.267  0.00  0.00    +0.000 C 
ATOM     11  C   UNL     1      -0.929  15.646  22.488  0.00  0.00    +0.000 A 
ATOM     12  C   UNL     1      -1.441  14.525  23.156  0.00  0.00    +0.000 A 
ATOM     13  C   UNL     1      -2.553  13.932  22.669  0.00  0.00    +0.000 A 
ATOM     14  C   UNL     1      -3.165  14.422  21.544  0.00  0.00    +0.000 A 
ATOM     15  C   UNL     1      -2.658  15.530  20.825  0.00  0.00    +0.000 A 
ATOM     16  C   UNL     1      -1.486  16.188  21.279  0.00  0.00    +0.000 A 
ATOM     17  C   UNL     1      -0.927  17.546  20.690  0.00  0.00    +0.000 C 
ATOM     18  C   UNL     1      -0.789  17.919  19.041  0.00  0.00    +0.000 C 
ATOM     19  O   UNL     1      -4.309  13.711  21.289  0.00  0.00    +0.000 OA
ATOM     20  C   UNL     1      -4.239  12.672  22.306  0.00  0.00    +0.000 C 
ATOM     21  O   UNL     1      -3.180  12.881  23.247  0.00  0.00    +0.000 OA
ENDROOT
BRANCH   1  23
ATOM     22  C   UNL     1       4.771  15.202  17.792  0.00  0.00    +0.000 C 
ATOM     23  O   UNL     1       3.345  15.196  17.707  0.00  0.00    +0.000 OA
ENDBRANCH   1  23
BRANCH   6  24
ATOM     24  O   UNL     1       1.498  15.484  19.929  0.00  0.00    +0.000 OA
BRANCH  24  25
ATOM     25  S   UNL     1       2.088  14.108  20.540  0.00  0.00    +0.000 S 
ATOM     26  O   UNL     1       3.109  13.544  19.693  0.00  0.00    +0.000 OA
ATOM     27  O   UNL     1       2.386  14.385  21.942  0.00  0.00    +0.000 OA
BRANCH  25  28
ATOM     28  C   UNL     1       0.700  12.950  20.592  0.00  0.00    +0.000 A 
ATOM     29  C   UNL     1       0.589  12.039  21.655  0.00  0.00    +0.000 A 
ATOM     30  C   UNL     1      -0.456  11.101  21.695  0.00  0.00    +0.000 A 
ATOM     31  C   UNL     1      -0.603  10.151  22.849  0.00  0.00    +0.000 C 
ATOM     32  C   UNL     1      -1.399  11.090  20.662  0.00  0.00    +0.000 A 
ATOM     33  C   UNL     1      -1.280  11.978  19.593  0.00  0.00    +0.000 A 
ATOM     34  C   UNL     1      -0.238  12.922  19.540  0.00  0.00    +0.000 A 
ATOM     35  C   UNL     1      -0.141  13.793  18.318  0.00  0.00    +0.000 C 
ENDBRANCH  25  28
ENDBRANCH  24  25
ENDBRANCH   6  24
TORSDOF 4
ENDMDL
MODEL 9
REMARK VINA RESULT:      -6.7      2.350      6.020
REMARK  Name = 
REMARK  7 active torsions:
REMARK  status: ('A' for Active; 'I' for Inactive)
REMARK    1  A    between atoms: C_1  and  O_2
REMARK    2  A    between atoms: O_2  and  C_3
REMARK    3  A    between atoms: C_8  and  O_9
REMARK    4  A    between atoms: O_9  and  S_10
REMARK    5  A    between atoms: S_10  and  C_13
REMARK    6  A    between atoms: C_15  and  C_16
REMARK    7  A    between atoms: C_19  and  C_20
REMARK                            x       y       z     vdW  Elec       q    Type
REMARK                         _______ _______ _______ _____ _____    ______ ____
ROOT
ATOM      1  C   UNL     1      -4.201  11.337  18.107  0.00  0.00    +0.000 A 
ATOM      2  C   UNL     1      -3.547  11.082  16.896  0.00  0.00    +0.000 A 
ATOM      3  C   UNL     1      -2.249  11.607  16.776  0.00  0.00    +0.000 A 
ATOM      4  C   UNL     1      -1.648  12.017  17.948  0.00  0.00    +0.000 A 
ATOM      5  C   UNL     1      -2.058  11.262  18.986  0.00  0.00    +0.000 A 
ATOM      6  C   UNL     1      -3.393  11.495  19.234  0.00  0.00    +0.000 A 
ATOM      7  C   UNL     1      -0.905  10.774  19.803  0.00  0.00    +0.000 C 
ATOM      8  N   UNL     1      -0.392  11.795  20.694  0.00  0.00    +0.000 NA
ATOM      9  C   UNL     1      -1.198  11.615  21.893  0.00  0.00    +0.000 C 
ATOM     10  C   UNL     1      -1.183  12.697  22.906  0.00  0.00    +0.000 C 
ATOM     11  C   UNL     1      -1.242  14.057  22.302  0.00  0.00    +0.000 A 
ATOM     12  C   UNL     1      -1.569  15.043  23.242  0.00  0.00    +0.000 A 
ATOM     13  C   UNL     1      -1.458  16.342  22.885  0.00  0.00    +0.000 A 
ATOM     14  C   UNL     1      -1.032  16.682  21.627  0.00  0.00    +0.000 A 
ATOM     15  C   UNL     1      -0.726  15.714  20.642  0.00  0.00    +0.000 A 
ATOM     16  C   UNL     1      -0.836  14.334  20.952  0.00  0.00    +0.000 A 
ATOM     17  C   UNL     1      -0.340  13.157  20.017  0.00  0.00    +0.000 C 
ATOM     18  C   UNL     1      -0.608  13.050  18.346  0.00  0.00    +0.000 C 
ATOM     19  O   UNL     1      -0.923  18.045  21.525  0.00  0.00    +0.000 OA
ATOM     20  C   UNL     1      -1.452  18.477  22.811  0.00  0.00    +0.000 C 
ATOM     21  O   UNL     1      -1.687  17.388  23.712  0.00  0.00    +0.000 OA
ENDROOT
BRANCH   1  23
ATOM     22  C   UNL     1      -5.973  12.593  17.216  0.00  0.00    +0.000 C 
ATOM     23  O   UNL     1      -5.531  11.629  18.172  0.00  0.00    +0.000 OA
ENDBRANCH   1  23
BRANCH   6  24
ATOM     24  O   UNL     1      -3.565  12.600  20.077  0.00  0.00    +0.000 OA
BRANCH  24  25
ATOM     25  S   UNL     1      -4.722  12.839  21.180  0.00  0.00    +0.000 S 
ATOM     26  O   UNL     1      -6.007  12.381  20.713  0.00  0.00    +0.000 OA
ATOM     27  O   UNL     1      -4.190  12.329  22.440  0.00  0.00    +0.000 OA
BRANCH  25  28
ATOM     28  C   UNL     1      -4.821  14.629  21.421  0.00  0.00    +0.000 A 
ATOM     29  C   UNL     1      -4.354  15.496  20.419  0.00  0.00    +0.000 A 
ATOM     30  C   UNL     1      -4.380  16.889  20.601  0.00  0.00    +0.000 A 
ATOM     31  C   UNL     1      -3.919  17.822  19.518  0.00  0.00    +0.000 C 
ATOM     32  C   UNL     1      -4.890  17.408  21.795  0.00  0.00    +0.000 A 
ATOM     33  C   UNL     1      -5.335  16.551  22.801  0.00  0.00    +0.000 A 
ATOM     34  C   UNL     1      -5.313  15.154  22.632  0.00  0.00    +0.000 A 
ATOM     35  C   UNL     1      -5.742  14.300  23.793  0.00  0.00    +0.000 C 
ENDBRANCH  25  28
ENDBRANCH  24  25
ENDBRANCH   6  24
TORSDOF 4
ENDMDL
