MODEL 1
REMARK VINA RESULT:      -8.2      0.000      0.000
REMARK  Name = 
REMARK  9 active torsions:
REMARK  status: ('A' for Active; 'I' for Inactive)
REMARK    1  A    between atoms: C_1  and  C_2
REMARK    2  A    between atoms: C_5  and  C_6
REMARK    3  A    between atoms: C_6  and  O_7
REMARK    4  A    between atoms: C_6  and  C_19
REMARK    5  A    between atoms: O_7  and  C_8
REMARK    6  A    between atoms: C_8  and  C_9
REMARK    7  A    between atoms: C_9  and  N_10
REMARK    8  A    between atoms: C_11  and  N_12
REMARK    9  A    between atoms: C_17  and  C_18
REMARK                            x       y       z     vdW  Elec       q    Type
REMARK                         _______ _______ _______ _____ _____    ______ ____
ROOT
ATOM      1  C   UNL     1       2.598   6.715  19.412  0.00  0.00    +0.000 C 
ENDROOT
BRANCH   1   6
ATOM      2  C   UNL     1      -0.561  11.126  21.551  0.00  0.00    +0.000 C 
ATOM      3  C   UNL     1       0.175   9.949  20.983  0.00  0.00    +0.000 A 
ATOM      4  C   UNL     1       0.407   8.805  21.754  0.00  0.00    +0.000 A 
ATOM      5  C   UNL     1       1.163   7.750  21.241  0.00  0.00    +0.000 A 
ATOM      6  C   UNL     1       1.708   7.826  19.950  0.00  0.00    +0.000 A 
ATOM      7  C   UNL     1       1.446   8.961  19.170  0.00  0.00    +0.000 A 
ATOM      8  C   UNL     1       0.682  10.010  19.680  0.00  0.00    +0.000 A 
ENDBRANCH   1   6
BRANCH   1   9
ATOM      9  C   UNL     1       2.122   5.341  19.889  0.00  0.00    +0.000 A 
ATOM     10  C   UNL     1       2.416   4.843  21.168  0.00  0.00    +0.000 A 
ATOM     11  C   UNL     1       2.010   3.559  21.544  0.00  0.00    +0.000 A 
ATOM     12  C   UNL     1       1.301   2.757  20.653  0.00  0.00    +0.000 A 
ATOM     13  C   UNL     1       0.982   3.239  19.388  0.00  0.00    +0.000 A 
ATOM     14  C   UNL     1       1.383   4.523  19.011  0.00  0.00    +0.000 A 
ENDBRANCH   1   9
BRANCH   1  15
ATOM     15  O   UNL     1       2.697   6.768  17.979  0.00  0.00    +0.000 OA
BRANCH  15  16
ATOM     16  C   UNL     1       4.013   6.629  17.425  0.00  0.00    +0.000 C 
BRANCH  16  17
ATOM     17  C   UNL     1       4.296   5.248  16.829  0.00  0.00    +0.000 C 
BRANCH  17  18
ATOM     18  N   UNL     1       5.709   4.906  16.814  0.00  0.00    +0.000 N 
ATOM     19  C   UNL     1       6.549   4.666  17.875  0.00  0.00    +0.000 A 
ATOM     20  C   UNL     1       7.791   4.439  17.340  0.00  0.00    +0.000 A 
ATOM     21  N   UNL     1       7.744   4.531  15.976  0.00  0.00    +0.000 NA
ATOM     22  C   UNL     1       6.493   4.815  15.672  0.00  0.00    +0.000 A 
ATOM     23  C   UNL     1       5.998   5.019  14.283  0.00  0.00    +0.000 C 
BRANCH  19  24
ATOM     24  N   UNL     1       6.197   4.655  19.253  0.00  0.00    +0.000 N 
ATOM     25  O   UNL     1       6.791   5.433  20.006  0.00  0.00    +0.000 OA
ATOM     26  O   UNL     1       5.312   3.864  19.590  0.00  0.00    +0.000 OA
ENDBRANCH  19  24
ENDBRANCH  17  18
ENDBRANCH  16  17
ENDBRANCH  15  16
ENDBRANCH   1  15
TORSDOF 7
ENDMDL
MODEL 2
REMARK VINA RESULT:      -8.1      2.011      2.852
REMARK  Name = 
REMARK  9 active torsions:
REMARK  status: ('A' for Active; 'I' for Inactive)
REMARK    1  A    between atoms: C_1  and  C_2
REMARK    2  A    between atoms: C_5  and  C_6
REMARK    3  A    between atoms: C_6  and  O_7
REMARK    4  A    between atoms: C_6  and  C_19
REMARK    5  A    between atoms: O_7  and  C_8
REMARK    6  A    between atoms: C_8  and  C_9
REMARK    7  A    between atoms: C_9  and  N_10
REMARK    8  A    between atoms: C_11  and  N_12
REMARK    9  A    between atoms: C_17  and  C_18
REMARK                            x       y       z     vdW  Elec       q    Type
REMARK                         _______ _______ _______ _____ _____    ______ ____
ROOT
ATOM      1  C   UNL     1       3.278   5.775  19.630  0.00  0.00    +0.000 C 
ENDROOT
BRANCH   1   6
ATOM      2  C   UNL     1       0.631  10.876  18.636  0.00  0.00    +0.000 C 
ATOM      3  C   UNL     1       1.233   9.524  18.880  0.00  0.00    +0.000 A 
ATOM      4  C   UNL     1       1.132   8.906  20.130  0.00  0.00    +0.000 A 
ATOM      5  C   UNL     1       1.766   7.686  20.367  0.00  0.00    +0.000 A 
ATOM      6  C   UNL     1       2.519   7.066  19.358  0.00  0.00    +0.000 A 
ATOM      7  C   UNL     1       2.590   7.674  18.096  0.00  0.00    +0.000 A 
ATOM      8  C   UNL     1       1.948   8.889  17.859  0.00  0.00    +0.000 A 
ENDBRANCH   1   6
BRANCH   1   9
ATOM      9  C   UNL     1       2.322   4.585  19.753  0.00  0.00    +0.000 A 
ATOM     10  C   UNL     1       2.088   3.929  20.972  0.00  0.00    +0.000 A 
ATOM     11  C   UNL     1       1.251   2.810  21.030  0.00  0.00    +0.000 A 
ATOM     12  C   UNL     1       0.634   2.333  19.876  0.00  0.00    +0.000 A 
ATOM     13  C   UNL     1       0.838   2.981  18.661  0.00  0.00    +0.000 A 
ATOM     14  C   UNL     1       1.670   4.101  18.602  0.00  0.00    +0.000 A 
ENDBRANCH   1   9
BRANCH   1  15
ATOM     15  O   UNL     1       4.286   5.537  18.634  0.00  0.00    +0.000 OA
BRANCH  15  16
ATOM     16  C   UNL     1       5.012   4.305  18.744  0.00  0.00    +0.000 C 
BRANCH  16  17
ATOM     17  C   UNL     1       6.358   4.307  18.016  0.00  0.00    +0.000 C 
BRANCH  17  18
ATOM     18  N   UNL     1       6.941   5.633  17.888  0.00  0.00    +0.000 N 
ATOM     19  C   UNL     1       6.833   6.526  16.849  0.00  0.00    +0.000 A 
ATOM     20  C   UNL     1       7.606   7.607  17.186  0.00  0.00    +0.000 A 
ATOM     21  N   UNL     1       8.191   7.408  18.407  0.00  0.00    +0.000 NA
ATOM     22  C   UNL     1       7.789   6.221  18.816  0.00  0.00    +0.000 A 
ATOM     23  C   UNL     1       8.203   5.599  20.103  0.00  0.00    +0.000 C 
BRANCH  19  24
ATOM     24  N   UNL     1       6.068   6.360  15.660  0.00  0.00    +0.000 N 
ATOM     25  O   UNL     1       6.516   5.610  14.787  0.00  0.00    +0.000 OA
ATOM     26  O   UNL     1       5.003   6.980  15.598  0.00  0.00    +0.000 OA
ENDBRANCH  19  24
ENDBRANCH  17  18
ENDBRANCH  16  17
ENDBRANCH  15  16
ENDBRANCH   1  15
TORSDOF 7
ENDMDL
MODEL 3
REMARK VINA RESULT:      -7.9      2.368      4.914
REMARK  Name = 
REMARK  9 active torsions:
REMARK  status: ('A' for Active; 'I' for Inactive)
REMARK    1  A    between atoms: C_1  and  C_2
REMARK    2  A    between atoms: C_5  and  C_6
REMARK    3  A    between atoms: C_6  and  O_7
REMARK    4  A    between atoms: C_6  and  C_19
REMARK    5  A    between atoms: O_7  and  C_8
REMARK    6  A    between atoms: C_8  and  C_9
REMARK    7  A    between atoms: C_9  and  N_10
REMARK    8  A    between atoms: C_11  and  N_12
REMARK    9  A    between atoms: C_17  and  C_18
REMARK                            x       y       z     vdW  Elec       q    Type
REMARK                         _______ _______ _______ _____ _____    ______ ____
ROOT
ATOM      1  C   UNL     1       3.823   5.973  17.724  0.00  0.00    +0.000 C 
ENDROOT
BRANCH   1   6
ATOM      2  C   UNL     1       0.366  10.226  19.717  0.00  0.00    +0.000 C 
ATOM      3  C   UNL     1       1.325   9.185  19.222  0.00  0.00    +0.000 A 
ATOM      4  C   UNL     1       1.851   9.248  17.928  0.00  0.00    +0.000 A 
ATOM      5  C   UNL     1       2.678   8.230  17.451  0.00  0.00    +0.000 A 
ATOM      6  C   UNL     1       2.987   7.125  18.261  0.00  0.00    +0.000 A 
ATOM      7  C   UNL     1       2.483   7.083  19.569  0.00  0.00    +0.000 A 
ATOM      8  C   UNL     1       1.664   8.106  20.046  0.00  0.00    +0.000 A 
ENDBRANCH   1   6
BRANCH   1   9
ATOM      9  C   UNL     1       5.315   6.206  17.973  0.00  0.00    +0.000 A 
ATOM     10  C   UNL     1       6.011   5.582  19.019  0.00  0.00    +0.000 A 
ATOM     11  C   UNL     1       7.361   5.867  19.247  0.00  0.00    +0.000 A 
ATOM     12  C   UNL     1       8.036   6.774  18.433  0.00  0.00    +0.000 A 
ATOM     13  C   UNL     1       7.369   7.389  17.379  0.00  0.00    +0.000 A 
ATOM     14  C   UNL     1       6.021   7.103  17.147  0.00  0.00    +0.000 A 
ENDBRANCH   1   9
BRANCH   1  15
ATOM     15  O   UNL     1       3.391   4.713  18.265  0.00  0.00    +0.000 OA
BRANCH  15  16
ATOM     16  C   UNL     1       3.429   3.590  17.373  0.00  0.00    +0.000 C 
BRANCH  16  17
ATOM     17  C   UNL     1       3.073   2.257  18.034  0.00  0.00    +0.000 C 
BRANCH  17  18
ATOM     18  N   UNL     1       2.658   2.394  19.421  0.00  0.00    +0.000 N 
ATOM     19  C   UNL     1       3.418   2.299  20.562  0.00  0.00    +0.000 A 
ATOM     20  C   UNL     1       2.554   2.453  21.616  0.00  0.00    +0.000 A 
ATOM     21  N   UNL     1       1.279   2.642  21.159  0.00  0.00    +0.000 NA
ATOM     22  C   UNL     1       1.352   2.601  19.843  0.00  0.00    +0.000 A 
ATOM     23  C   UNL     1       0.180   2.749  18.938  0.00  0.00    +0.000 C 
BRANCH  19  24
ATOM     24  N   UNL     1       4.823   2.084  20.633  0.00  0.00    +0.000 N 
ATOM     25  O   UNL     1       5.537   2.659  19.806  0.00  0.00    +0.000 OA
ATOM     26  O   UNL     1       5.222   1.338  21.531  0.00  0.00    +0.000 OA
ENDBRANCH  19  24
ENDBRANCH  17  18
ENDBRANCH  16  17
ENDBRANCH  15  16
ENDBRANCH   1  15
TORSDOF 7
ENDMDL
MODEL 4
REMARK VINA RESULT:      -7.9      1.432      2.228
REMARK  Name = 
REMARK  9 active torsions:
REMARK  status: ('A' for Active; 'I' for Inactive)
REMARK    1  A    between atoms: C_1  and  C_2
REMARK    2  A    between atoms: C_5  and  C_6
REMARK    3  A    between atoms: C_6  and  O_7
REMARK    4  A    between atoms: C_6  and  C_19
REMARK    5  A    between atoms: O_7  and  C_8
REMARK    6  A    between atoms: C_8  and  C_9
REMARK    7  A    between atoms: C_9  and  N_10
REMARK    8  A    between atoms: C_11  and  N_12
REMARK    9  A    between atoms: C_17  and  C_18
REMARK                            x       y       z     vdW  Elec       q    Type
REMARK                         _______ _______ _______ _____ _____    ______ ____
ROOT
ATOM      1  C   UNL     1       2.917   6.591  18.963  0.00  0.00    +0.000 C 
ENDROOT
BRANCH   1   6
ATOM      2  C   UNL     1      -0.684  10.906  20.520  0.00  0.00    +0.000 C 
ATOM      3  C   UNL     1       0.310   9.854  20.126  0.00  0.00    +0.000 A 
ATOM      4  C   UNL     1       0.774   9.760  18.811  0.00  0.00    +0.000 A 
ATOM      5  C   UNL     1       1.636   8.727  18.439  0.00  0.00    +0.000 A 
ATOM      6  C   UNL     1       2.042   7.765  19.377  0.00  0.00    +0.000 A 
ATOM      7  C   UNL     1       1.598   7.883  20.702  0.00  0.00    +0.000 A 
ATOM      8  C   UNL     1       0.745   8.921  21.073  0.00  0.00    +0.000 A 
ENDBRANCH   1   6
BRANCH   1   9
ATOM      9  C   UNL     1       2.287   5.257  19.373  0.00  0.00    +0.000 A 
ATOM     10  C   UNL     1       1.647   4.412  18.454  0.00  0.00    +0.000 A 
ATOM     11  C   UNL     1       1.034   3.229  18.880  0.00  0.00    +0.000 A 
ATOM     12  C   UNL     1       1.056   2.872  20.226  0.00  0.00    +0.000 A 
ATOM     13  C   UNL     1       1.702   3.686  21.150  0.00  0.00    +0.000 A 
ATOM     14  C   UNL     1       2.318   4.866  20.727  0.00  0.00    +0.000 A 
ENDBRANCH   1   9
BRANCH   1  15
ATOM     15  O   UNL     1       3.209   6.623  17.556  0.00  0.00    +0.000 OA
BRANCH  15  16
ATOM     16  C   UNL     1       4.331   7.423  17.157  0.00  0.00    +0.000 C 
BRANCH  16  17
ATOM     17  C   UNL     1       5.522   6.612  16.640  0.00  0.00    +0.000 C 
BRANCH  17  18
ATOM     18  N   UNL     1       6.461   6.240  17.686  0.00  0.00    +0.000 N 
ATOM     19  C   UNL     1       6.455   5.130  18.496  0.00  0.00    +0.000 A 
ATOM     20  C   UNL     1       7.520   5.268  19.350  0.00  0.00    +0.000 A 
ATOM     21  N   UNL     1       8.185   6.434  19.091  0.00  0.00    +0.000 NA
ATOM     22  C   UNL     1       7.541   7.011  18.095  0.00  0.00    +0.000 A 
ATOM     23  C   UNL     1       7.925   8.320  17.501  0.00  0.00    +0.000 C 
BRANCH  19  24
ATOM     24  N   UNL     1       5.528   4.051  18.454  0.00  0.00    +0.000 N 
ATOM     25  O   UNL     1       5.305   3.441  19.504  0.00  0.00    +0.000 OA
ATOM     26  O   UNL     1       5.009   3.812  17.360  0.00  0.00    +0.000 OA
ENDBRANCH  19  24
ENDBRANCH  17  18
ENDBRANCH  16  17
ENDBRANCH  15  16
ENDBRANCH   1  15
TORSDOF 7
ENDMDL
MODEL 5
REMARK VINA RESULT:      -7.9      1.078      1.948
REMARK  Name = 
REMARK  9 active torsions:
REMARK  status: ('A' for Active; 'I' for Inactive)
REMARK    1  A    between atoms: C_1  and  C_2
REMARK    2  A    between atoms: C_5  and  C_6
REMARK    3  A    between atoms: C_6  and  O_7
REMARK    4  A    between atoms: C_6  and  C_19
REMARK    5  A    between atoms: O_7  and  C_8
REMARK    6  A    between atoms: C_8  and  C_9
REMARK    7  A    between atoms: C_9  and  N_10
REMARK    8  A    between atoms: C_11  and  N_12
REMARK    9  A    between atoms: C_17  and  C_18
REMARK                            x       y       z     vdW  Elec       q    Type
REMARK                         _______ _______ _______ _____ _____    ______ ____
ROOT
ATOM      1  C   UNL     1       3.188   5.960  18.935  0.00  0.00    +0.000 C 
ENDROOT
BRANCH   1   6
ATOM      2  C   UNL     1      -0.033  10.813  19.242  0.00  0.00    +0.000 C 
ATOM      3  C   UNL     1       0.868   9.616  19.167  0.00  0.00    +0.000 A 
ATOM      4  C   UNL     1       1.445   9.225  17.954  0.00  0.00    +0.000 A 
ATOM      5  C   UNL     1       2.215   8.063  17.882  0.00  0.00    +0.000 A 
ATOM      6  C   UNL     1       2.415   7.269  19.021  0.00  0.00    +0.000 A 
ATOM      7  C   UNL     1       1.861   7.683  20.241  0.00  0.00    +0.000 A 
ATOM      8  C   UNL     1       1.100   8.848  20.313  0.00  0.00    +0.000 A 
ENDBRANCH   1   6
BRANCH   1   9
ATOM      9  C   UNL     1       2.434   4.825  19.633  0.00  0.00    +0.000 A 
ATOM     10  C   UNL     1       1.341   4.172  19.043  0.00  0.00    +0.000 A 
ATOM     11  C   UNL     1       0.644   3.178  19.739  0.00  0.00    +0.000 A 
ATOM     12  C   UNL     1       1.032   2.818  21.027  0.00  0.00    +0.000 A 
ATOM     13  C   UNL     1       2.126   3.440  21.622  0.00  0.00    +0.000 A 
ATOM     14  C   UNL     1       2.825   4.430  20.928  0.00  0.00    +0.000 A 
ENDBRANCH   1   9
BRANCH   1  15
ATOM     15  O   UNL     1       3.501   5.623  17.573  0.00  0.00    +0.000 OA
BRANCH  15  16
ATOM     16  C   UNL     1       3.530   4.225  17.254  0.00  0.00    +0.000 C 
BRANCH  16  17
ATOM     17  C   UNL     1       4.940   3.652  17.092  0.00  0.00    +0.000 C 
BRANCH  17  18
ATOM     18  N   UNL     1       5.967   4.675  16.977  0.00  0.00    +0.000 N 
ATOM     19  C   UNL     1       6.709   5.267  17.971  0.00  0.00    +0.000 A 
ATOM     20  C   UNL     1       7.501   6.203  17.356  0.00  0.00    +0.000 A 
ATOM     21  N   UNL     1       7.270   6.206  16.008  0.00  0.00    +0.000 NA
ATOM     22  C   UNL     1       6.347   5.290  15.792  0.00  0.00    +0.000 A 
ATOM     23  C   UNL     1       5.787   4.971  14.451  0.00  0.00    +0.000 C 
BRANCH  19  24
ATOM     24  N   UNL     1       6.663   4.967  19.361  0.00  0.00    +0.000 N 
ATOM     25  O   UNL     1       5.849   4.120  19.742  0.00  0.00    +0.000 OA
ATOM     26  O   UNL     1       7.455   5.579  20.084  0.00  0.00    +0.000 OA
ENDBRANCH  19  24
ENDBRANCH  17  18
ENDBRANCH  16  17
ENDBRANCH  15  16
ENDBRANCH   1  15
TORSDOF 7
ENDMDL
MODEL 6
REMARK VINA RESULT:      -7.9      1.736      2.493
REMARK  Name = 
REMARK  9 active torsions:
REMARK  status: ('A' for Active; 'I' for Inactive)
REMARK    1  A    between atoms: C_1  and  C_2
REMARK    2  A    between atoms: C_5  and  C_6
REMARK    3  A    between atoms: C_6  and  O_7
REMARK    4  A    between atoms: C_6  and  C_19
REMARK    5  A    between atoms: O_7  and  C_8
REMARK    6  A    between atoms: C_8  and  C_9
REMARK    7  A    between atoms: C_9  and  N_10
REMARK    8  A    between atoms: C_11  and  N_12
REMARK    9  A    between atoms: C_17  and  C_18
REMARK                            x       y       z     vdW  Elec       q    Type
REMARK                         _______ _______ _______ _____ _____    ______ ____
ROOT
ATOM      1  C   UNL     1       2.696   6.832  18.863  0.00  0.00    +0.000 C 
ENDROOT
BRANCH   1   6
ATOM      2  C   UNL     1      -0.702  11.128  20.866  0.00  0.00    +0.000 C 
ATOM      3  C   UNL     1       0.241  10.079  20.357  0.00  0.00    +0.000 A 
ATOM      4  C   UNL     1       0.632  10.053  19.015  0.00  0.00    +0.000 A 
ATOM      5  C   UNL     1       1.445   9.025  18.536  0.00  0.00    +0.000 A 
ATOM      6  C   UNL     1       1.875   7.999  19.392  0.00  0.00    +0.000 A 
ATOM      7  C   UNL     1       1.506   8.047  20.744  0.00  0.00    +0.000 A 
ATOM      8  C   UNL     1       0.701   9.080  21.223  0.00  0.00    +0.000 A 
ENDBRANCH   1   6
BRANCH   1   9
ATOM      9  C   UNL     1       2.030   5.492  19.189  0.00  0.00    +0.000 A 
ATOM     10  C   UNL     1       1.758   5.086  20.505  0.00  0.00    +0.000 A 
ATOM     11  C   UNL     1       1.201   3.830  20.762  0.00  0.00    +0.000 A 
ATOM     12  C   UNL     1       0.904   2.964  19.713  0.00  0.00    +0.000 A 
ATOM     13  C   UNL     1       1.147   3.355  18.400  0.00  0.00    +0.000 A 
ATOM     14  C   UNL     1       1.700   4.611  18.140  0.00  0.00    +0.000 A 
ENDBRANCH   1   9
BRANCH   1  15
ATOM     15  O   UNL     1       2.948   6.963  17.454  0.00  0.00    +0.000 OA
BRANCH  15  16
ATOM     16  C   UNL     1       4.319   7.123  17.065  0.00  0.00    +0.000 C 
BRANCH  16  17
ATOM     17  C   UNL     1       5.114   5.816  17.029  0.00  0.00    +0.000 C 
BRANCH  17  18
ATOM     18  N   UNL     1       6.102   5.714  18.091  0.00  0.00    +0.000 N 
ATOM     19  C   UNL     1       7.269   6.421  18.254  0.00  0.00    +0.000 A 
ATOM     20  C   UNL     1       7.870   5.919  19.381  0.00  0.00    +0.000 A 
ATOM     21  N   UNL     1       7.107   4.920  19.919  0.00  0.00    +0.000 NA
ATOM     22  C   UNL     1       6.052   4.803  19.137  0.00  0.00    +0.000 A 
ATOM     23  C   UNL     1       4.961   3.814  19.352  0.00  0.00    +0.000 C 
BRANCH  19  24
ATOM     24  N   UNL     1       7.754   7.466  17.420  0.00  0.00    +0.000 N 
ATOM     25  O   UNL     1       7.881   8.589  17.919  0.00  0.00    +0.000 OA
ATOM     26  O   UNL     1       8.020   7.164  16.254  0.00  0.00    +0.000 OA
ENDBRANCH  19  24
ENDBRANCH  17  18
ENDBRANCH  16  17
ENDBRANCH  15  16
ENDBRANCH   1  15
TORSDOF 7
ENDMDL
MODEL 7
REMARK VINA RESULT:      -7.9      0.177      1.135
REMARK  Name = 
REMARK  9 active torsions:
REMARK  status: ('A' for Active; 'I' for Inactive)
REMARK    1  A    between atoms: C_1  and  C_2
REMARK    2  A    between atoms: C_5  and  C_6
REMARK    3  A    between atoms: C_6  and  O_7
REMARK    4  A    between atoms: C_6  and  C_19
REMARK    5  A    between atoms: O_7  and  C_8
REMARK    6  A    between atoms: C_8  and  C_9
REMARK    7  A    between atoms: C_9  and  N_10
REMARK    8  A    between atoms: C_11  and  N_12
REMARK    9  A    between atoms: C_17  and  C_18
REMARK                            x       y       z     vdW  Elec       q    Type
REMARK                         _______ _______ _______ _____ _____    ______ ____
ROOT
ATOM      1  C   UNL     1       2.636   6.691  19.549  0.00  0.00    +0.000 C 
ENDROOT
BRANCH   1   6
ATOM      2  C   UNL     1      -0.671  11.071  21.523  0.00  0.00    +0.000 C 
ATOM      3  C   UNL     1       0.104   9.899  20.998  0.00  0.00    +0.000 A 
ATOM      4  C   UNL     1       0.360   8.786  21.805  0.00  0.00    +0.000 A 
ATOM      5  C   UNL     1       1.152   7.738  21.332  0.00  0.00    +0.000 A 
ATOM      6  C   UNL     1       1.708   7.791  20.044  0.00  0.00    +0.000 A 
ATOM      7  C   UNL     1       1.422   8.895  19.228  0.00  0.00    +0.000 A 
ATOM      8  C   UNL     1       0.623   9.936  19.699  0.00  0.00    +0.000 A 
ENDBRANCH   1   6
BRANCH   1   9
ATOM      9  C   UNL     1       2.152   5.311  20.002  0.00  0.00    +0.000 A 
ATOM     10  C   UNL     1       1.275   4.530  19.234  0.00  0.00    +0.000 A 
ATOM     11  C   UNL     1       0.813   3.299  19.711  0.00  0.00    +0.000 A 
ATOM     12  C   UNL     1       1.222   2.830  20.957  0.00  0.00    +0.000 A 
ATOM     13  C   UNL     1       2.107   3.580  21.726  0.00  0.00    +0.000 A 
ATOM     14  C   UNL     1       2.573   4.807  21.249  0.00  0.00    +0.000 A 
ENDBRANCH   1   9
BRANCH   1  15
ATOM     15  O   UNL     1       2.802   6.746  18.122  0.00  0.00    +0.000 OA
BRANCH  15  16
ATOM     16  C   UNL     1       4.148   6.662  17.634  0.00  0.00    +0.000 C 
BRANCH  16  17
ATOM     17  C   UNL     1       4.409   5.457  16.728  0.00  0.00    +0.000 C 
BRANCH  17  18
ATOM     18  N   UNL     1       5.795   5.017  16.742  0.00  0.00    +0.000 N 
ATOM     19  C   UNL     1       6.581   4.675  17.816  0.00  0.00    +0.000 A 
ATOM     20  C   UNL     1       7.821   4.381  17.310  0.00  0.00    +0.000 A 
ATOM     21  N   UNL     1       7.825   4.532  15.951  0.00  0.00    +0.000 NA
ATOM     22  C   UNL     1       6.608   4.916  15.621  0.00  0.00    +0.000 A 
ATOM     23  C   UNL     1       6.175   5.210  14.228  0.00  0.00    +0.000 C 
BRANCH  19  24
ATOM     24  N   UNL     1       6.183   4.633  19.182  0.00  0.00    +0.000 N 
ATOM     25  O   UNL     1       5.360   3.776  19.517  0.00  0.00    +0.000 OA
ATOM     26  O   UNL     1       6.704   5.462  19.933  0.00  0.00    +0.000 OA
ENDBRANCH  19  24
ENDBRANCH  17  18
ENDBRANCH  16  17
ENDBRANCH  15  16
ENDBRANCH   1  15
TORSDOF 7
ENDMDL
MODEL 8
REMARK VINA RESULT:      -7.8      3.654      7.022
REMARK  Name = 
REMARK  9 active torsions:
REMARK  status: ('A' for Active; 'I' for Inactive)
REMARK    1  A    between atoms: C_1  and  C_2
REMARK    2  A    between atoms: C_5  and  C_6
REMARK    3  A    between atoms: C_6  and  O_7
REMARK    4  A    between atoms: C_6  and  C_19
REMARK    5  A    between atoms: O_7  and  C_8
REMARK    6  A    between atoms: C_8  and  C_9
REMARK    7  A    between atoms: C_9  and  N_10
REMARK    8  A    between atoms: C_11  and  N_12
REMARK    9  A    between atoms: C_17  and  C_18
REMARK                            x       y       z     vdW  Elec       q    Type
REMARK                         _______ _______ _______ _____ _____    ______ ____
ROOT
ATOM      1  C   UNL     1       2.437   6.199  18.419  0.00  0.00    +0.000 C 
ENDROOT
BRANCH   1   6
ATOM      2  C   UNL     1       6.898   4.828  14.921  0.00  0.00    +0.000 C 
ATOM      3  C   UNL     1       5.803   5.160  15.890  0.00  0.00    +0.000 A 
ATOM      4  C   UNL     1       5.002   4.156  16.443  0.00  0.00    +0.000 A 
ATOM      5  C   UNL     1       3.934   4.484  17.280  0.00  0.00    +0.000 A 
ATOM      6  C   UNL     1       3.645   5.827  17.572  0.00  0.00    +0.000 A 
ATOM      7  C   UNL     1       4.471   6.828  17.041  0.00  0.00    +0.000 A 
ATOM      8  C   UNL     1       5.542   6.497  16.212  0.00  0.00    +0.000 A 
ENDBRANCH   1   6
BRANCH   1   9
ATOM      9  C   UNL     1       2.045   5.056  19.359  0.00  0.00    +0.000 A 
ATOM     10  C   UNL     1       2.517   4.969  20.677  0.00  0.00    +0.000 A 
ATOM     11  C   UNL     1       2.180   3.877  21.484  0.00  0.00    +0.000 A 
ATOM     12  C   UNL     1       1.365   2.862  20.990  0.00  0.00    +0.000 A 
ATOM     13  C   UNL     1       0.871   2.939  19.692  0.00  0.00    +0.000 A 
ATOM     14  C   UNL     1       1.203   4.030  18.885  0.00  0.00    +0.000 A 
ENDBRANCH   1   9
BRANCH   1  15
ATOM     15  O   UNL     1       2.658   7.421  19.142  0.00  0.00    +0.000 OA
BRANCH  15  16
ATOM     16  C   UNL     1       1.490   8.182  19.478  0.00  0.00    +0.000 C 
BRANCH  16  17
ATOM     17  C   UNL     1       1.327   9.467  18.662  0.00  0.00    +0.000 C 
BRANCH  17  18
ATOM     18  N   UNL     1       0.199  10.279  19.087  0.00  0.00    +0.000 N 
ATOM     19  C   UNL     1       0.068  11.047  20.219  0.00  0.00    +0.000 A 
ATOM     20  C   UNL     1      -1.199  11.573  20.184  0.00  0.00    +0.000 A 
ATOM     21  N   UNL     1      -1.855  11.152  19.061  0.00  0.00    +0.000 NA
ATOM     22  C   UNL     1      -1.011  10.375  18.413  0.00  0.00    +0.000 A 
ATOM     23  C   UNL     1      -1.326   9.688  17.131  0.00  0.00    +0.000 C 
BRANCH  19  24
ATOM     24  N   UNL     1       1.052  11.255  21.226  0.00  0.00    +0.000 N 
ATOM     25  O   UNL     1       1.752  12.268  21.146  0.00  0.00    +0.000 OA
ATOM     26  O   UNL     1       1.123  10.399  22.112  0.00  0.00    +0.000 OA
ENDBRANCH  19  24
ENDBRANCH  17  18
ENDBRANCH  16  17
ENDBRANCH  15  16
ENDBRANCH   1  15
TORSDOF 7
ENDMDL
MODEL 9
REMARK VINA RESULT:      -7.8      1.738      2.396
REMARK  Name = 
REMARK  9 active torsions:
REMARK  status: ('A' for Active; 'I' for Inactive)
REMARK    1  A    between atoms: C_1  and  C_2
REMARK    2  A    between atoms: C_5  and  C_6
REMARK    3  A    between atoms: C_6  and  O_7
REMARK    4  A    between atoms: C_6  and  C_19
REMARK    5  A    between atoms: O_7  and  C_8
REMARK    6  A    between atoms: C_8  and  C_9
REMARK    7  A    between atoms: C_9  and  N_10
REMARK    8  A    between atoms: C_11  and  N_12
REMARK    9  A    between atoms: C_17  and  C_18
REMARK                            x       y       z     vdW  Elec       q    Type
REMARK                         _______ _______ _______ _____ _____    ______ ____
ROOT
ATOM      1  C   UNL     1       2.820   6.653  18.776  0.00  0.00    +0.000 C 
ENDROOT
BRANCH   1   6
ATOM      2  C   UNL     1      -0.093  11.531  20.094  0.00  0.00    +0.000 C 
ATOM      3  C   UNL     1       0.578  10.233  19.754  0.00  0.00    +0.000 A 
ATOM      4  C   UNL     1       0.869   9.292  20.747  0.00  0.00    +0.000 A 
ATOM      5  C   UNL     1       1.566   8.125  20.431  0.00  0.00    +0.000 A 
ATOM      6  C   UNL     1       1.992   7.884  19.115  0.00  0.00    +0.000 A 
ATOM      7  C   UNL     1       1.670   8.815  18.118  0.00  0.00    +0.000 A 
ATOM      8  C   UNL     1       0.965   9.976  18.434  0.00  0.00    +0.000 A 
ENDBRANCH   1   6
BRANCH   1   9
ATOM      9  C   UNL     1       2.158   5.377  19.300  0.00  0.00    +0.000 A 
ATOM     10  C   UNL     1       2.091   5.068  20.667  0.00  0.00    +0.000 A 
ATOM     11  C   UNL     1       1.527   3.864  21.100  0.00  0.00    +0.000 A 
ATOM     12  C   UNL     1       1.019   2.954  20.176  0.00  0.00    +0.000 A 
ATOM     13  C   UNL     1       1.057   3.249  18.817  0.00  0.00    +0.000 A 
ATOM     14  C   UNL     1       1.616   4.453  18.383  0.00  0.00    +0.000 A 
ENDBRANCH   1   9
BRANCH   1  15
ATOM     15  O   UNL     1       3.082   6.568  17.365  0.00  0.00    +0.000 OA
BRANCH  15  16
ATOM     16  C   UNL     1       4.407   6.916  16.941  0.00  0.00    +0.000 C 
BRANCH  16  17
ATOM     17  C   UNL     1       5.380   5.736  16.904  0.00  0.00    +0.000 C 
BRANCH  17  18
ATOM     18  N   UNL     1       6.266   5.684  18.056  0.00  0.00    +0.000 N 
ATOM     19  C   UNL     1       7.376   6.448  18.325  0.00  0.00    +0.000 A 
ATOM     20  C   UNL     1       7.892   5.978  19.506  0.00  0.00    +0.000 A 
ATOM     21  N   UNL     1       7.131   4.943  19.976  0.00  0.00    +0.000 NA
ATOM     22  C   UNL     1       6.162   4.773  19.098  0.00  0.00    +0.000 A 
ATOM     23  C   UNL     1       5.105   3.732  19.214  0.00  0.00    +0.000 C 
BRANCH  19  24
ATOM     24  N   UNL     1       7.887   7.515  17.534  0.00  0.00    +0.000 N 
ATOM     25  O   UNL     1       8.045   7.313  16.326  0.00  0.00    +0.000 OA
ATOM     26  O   UNL     1       8.129   8.571  18.124  0.00  0.00    +0.000 OA
ENDBRANCH  19  24
ENDBRANCH  17  18
ENDBRANCH  16  17
ENDBRANCH  15  16
ENDBRANCH   1  15
TORSDOF 7
ENDMDL
