MODEL 1
REMARK VINA RESULT:      -7.7      0.000      0.000
REMARK  Name = 
REMARK  15 active torsions:
REMARK  status: ('A' for Active; 'I' for Inactive)
REMARK    1  A    between atoms: C_1  and  C_2
REMARK    2  A    between atoms: C_2  and  C_3
REMARK    3  A    between atoms: C_3  and  C_4
REMARK    4  A    between atoms: C_4  and  C_5
REMARK    5  A    between atoms: C_4  and  N_6
REMARK    6  A    between atoms: C_7  and  C_8
REMARK    7  A    between atoms: C_8  and  C_9
REMARK    8  A    between atoms: C_12  and  C_13
REMARK    9  A    between atoms: C_16  and  O_17
REMARK   10  A    between atoms: O_17  and  C_18
REMARK   11  A    between atoms: C_18  and  C_19
REMARK   12  A    between atoms: C_19  and  O_21
REMARK   13  A    between atoms: O_21  and  C_22
REMARK   14  A    between atoms: C_22  and  C_23
REMARK   15  A    between atoms: C_25  and  C_26
REMARK                            x       y       z     vdW  Elec       q    Type
REMARK                         _______ _______ _______ _____ _____    ______ ____
ROOT
ATOM      1  C   UNL     1       0.720   9.275  20.564  0.00  0.00    +0.000 A 
ATOM      2  C   UNL     1       0.895   9.057  21.950  0.00  0.00    +0.000 A 
ATOM      3  C   UNL     1       0.113   9.704  22.905  0.00  0.00    +0.000 A 
ATOM      4  C   UNL     1      -0.883  10.526  22.467  0.00  0.00    +0.000 A 
ATOM      5  N   UNL     1      -1.136  10.768  21.169  0.00  0.00    +0.000 NA
ATOM      6  C   UNL     1      -0.318  10.178  20.222  0.00  0.00    +0.000 A 
ENDROOT
BRANCH   1  11
ATOM      7  N   UNL     1       2.946   5.278  19.331  0.00  0.00    +0.000 N 
ATOM      8  C   UNL     1       2.289   5.172  20.547  0.00  0.00    +0.000 A 
ATOM      9  N   UNL     1       1.700   6.319  20.858  0.00  0.00    +0.000 NA
ATOM     10  C   UNL     1       2.007   7.207  19.848  0.00  0.00    +0.000 A 
ATOM     11  C   UNL     1       1.620   8.559  19.621  0.00  0.00    +0.000 A 
ATOM     12  C   UNL     1       2.105   9.111  18.420  0.00  0.00    +0.000 A 
ATOM     13  C   UNL     1       2.993   8.401  17.619  0.00  0.00    +0.000 A 
ATOM     14  N   UNL     1       3.385   7.129  17.819  0.00  0.00    +0.000 NA
ATOM     15  C   UNL     1       2.834   6.585  18.920  0.00  0.00    +0.000 A 
BRANCH   7  16
ATOM     16  C   UNL     1       3.599   4.209  18.571  0.00  0.00    +0.000 C 
ATOM     17  C   UNL     1       4.960   4.650  18.024  0.00  0.00    +0.000 C 
BRANCH  16  18
ATOM     18  C   UNL     1       2.674   3.644  17.466  0.00  0.00    +0.000 C 
BRANCH  18  20
ATOM     19  C   UNL     1       3.461   1.495  18.543  0.00  0.00    +0.000 C 
ATOM     20  C   UNL     1       2.510   2.122  17.535  0.00  0.00    +0.000 C 
ENDBRANCH  18  20
ENDBRANCH  16  18
ENDBRANCH   7  16
BRANCH   8  21
ATOM     21  C   UNL     1       2.291   3.963  21.432  0.00  0.00    +0.000 C 
ATOM     22  C   UNL     1       1.193   2.967  21.089  0.00  0.00    +0.000 C 
ENDBRANCH   8  21
ENDBRANCH   1  11
BRANCH   6  23
ATOM     23  C   UNL     1      -0.651  10.614  18.796  0.00  0.00    +0.000 C 
ATOM     24  F   UNL     1      -0.794   9.625  17.872  0.00  0.00    +0.000 F 
ATOM     25  F   UNL     1      -1.818  11.326  18.744  0.00  0.00    +0.000 F 
ATOM     26  F   UNL     1       0.300  11.438  18.263  0.00  0.00    +0.000 F 
ENDBRANCH   6  23
BRANCH   4  27
ATOM     27  O   UNL     1      -1.583  11.200  23.430  0.00  0.00    +0.000 OA
BRANCH  27  28
ATOM     28  C   UNL     1      -2.248  12.371  22.974  0.00  0.00    +0.000 C 
BRANCH  28  29
ATOM     29  C   UNL     1      -3.693  12.245  23.422  0.00  0.00    +0.000 C 
ATOM     30  O   UNL     1      -4.066  11.959  24.553  0.00  0.00    +0.000 OA
BRANCH  29  31
ATOM     31  O   UNL     1      -4.529  12.404  22.353  0.00  0.00    +0.000 OA
BRANCH  31  32
ATOM     32  C   UNL     1      -3.889  12.894  21.163  0.00  0.00    +0.000 C 
ATOM     33  C   UNL     1      -4.859  13.832  20.467  0.00  0.00    +0.000 C 
ENDBRANCH  31  32
ENDBRANCH  29  31
ENDBRANCH  28  29
ENDBRANCH  27  28
ENDBRANCH   4  27
TORSDOF 11
ENDMDL
MODEL 2
REMARK VINA RESULT:      -7.3      0.885      1.355
REMARK  Name = 
REMARK  15 active torsions:
REMARK  status: ('A' for Active; 'I' for Inactive)
REMARK    1  A    between atoms: C_1  and  C_2
REMARK    2  A    between atoms: C_2  and  C_3
REMARK    3  A    between atoms: C_3  and  C_4
REMARK    4  A    between atoms: C_4  and  C_5
REMARK    5  A    between atoms: C_4  and  N_6
REMARK    6  A    between atoms: C_7  and  C_8
REMARK    7  A    between atoms: C_8  and  C_9
REMARK    8  A    between atoms: C_12  and  C_13
REMARK    9  A    between atoms: C_16  and  O_17
REMARK   10  A    between atoms: O_17  and  C_18
REMARK   11  A    between atoms: C_18  and  C_19
REMARK   12  A    between atoms: C_19  and  O_21
REMARK   13  A    between atoms: O_21  and  C_22
REMARK   14  A    between atoms: C_22  and  C_23
REMARK   15  A    between atoms: C_25  and  C_26
REMARK                            x       y       z     vdW  Elec       q    Type
REMARK                         _______ _______ _______ _____ _____    ______ ____
ROOT
ATOM      1  C   UNL     1       0.703   9.317  20.565  0.00  0.00    +0.000 A 
ATOM      2  C   UNL     1       0.840   9.053  21.948  0.00  0.00    +0.000 A 
ATOM      3  C   UNL     1       0.062   9.701  22.905  0.00  0.00    +0.000 A 
ATOM      4  C   UNL     1      -0.895  10.571  22.472  0.00  0.00    +0.000 A 
ATOM      5  N   UNL     1      -1.111  10.858  21.176  0.00  0.00    +0.000 NA
ATOM      6  C   UNL     1      -0.295  10.267  20.229  0.00  0.00    +0.000 A 
ENDROOT
BRANCH   1  11
ATOM      7  N   UNL     1       2.898   5.306  19.324  0.00  0.00    +0.000 N 
ATOM      8  C   UNL     1       2.241   5.203  20.540  0.00  0.00    +0.000 A 
ATOM      9  N   UNL     1       1.661   6.353  20.853  0.00  0.00    +0.000 NA
ATOM     10  C   UNL     1       1.974   7.241  19.845  0.00  0.00    +0.000 A 
ATOM     11  C   UNL     1       1.597   8.596  19.621  0.00  0.00    +0.000 A 
ATOM     12  C   UNL     1       2.085   9.147  18.421  0.00  0.00    +0.000 A 
ATOM     13  C   UNL     1       2.968   8.431  17.617  0.00  0.00    +0.000 A 
ATOM     14  N   UNL     1       3.350   7.156  17.815  0.00  0.00    +0.000 NA
ATOM     15  C   UNL     1       2.796   6.614  18.915  0.00  0.00    +0.000 A 
BRANCH   7  16
ATOM     16  C   UNL     1       3.542   4.233  18.560  0.00  0.00    +0.000 C 
ATOM     17  C   UNL     1       4.884   4.682  17.973  0.00  0.00    +0.000 C 
BRANCH  16  18
ATOM     18  C   UNL     1       2.595   3.644  17.488  0.00  0.00    +0.000 C 
BRANCH  18  20
ATOM     19  C   UNL     1       3.415   1.479  18.508  0.00  0.00    +0.000 C 
ATOM     20  C   UNL     1       2.762   2.132  17.300  0.00  0.00    +0.000 C 
ENDBRANCH  18  20
ENDBRANCH  16  18
ENDBRANCH   7  16
BRANCH   8  21
ATOM     21  C   UNL     1       2.234   3.992  21.422  0.00  0.00    +0.000 C 
ATOM     22  C   UNL     1       1.163   2.979  21.043  0.00  0.00    +0.000 C 
ENDBRANCH   8  21
ENDBRANCH   1  11
BRANCH   6  23
ATOM     23  C   UNL     1      -0.581  10.755  18.811  0.00  0.00    +0.000 C 
ATOM     24  F   UNL     1       0.394  11.491  18.209  0.00  0.00    +0.000 F 
ATOM     25  F   UNL     1      -0.824   9.715  17.956  0.00  0.00    +0.000 F 
ATOM     26  F   UNL     1      -1.692  11.548  18.741  0.00  0.00    +0.000 F 
ENDBRANCH   6  23
BRANCH   4  27
ATOM     27  O   UNL     1      -1.591  11.242  23.439  0.00  0.00    +0.000 OA
BRANCH  27  28
ATOM     28  C   UNL     1      -2.008  12.551  23.074  0.00  0.00    +0.000 C 
BRANCH  28  29
ATOM     29  C   UNL     1      -3.370  12.760  23.711  0.00  0.00    +0.000 C 
ATOM     30  O   UNL     1      -4.004  11.914  24.331  0.00  0.00    +0.000 OA
BRANCH  29  31
ATOM     31  O   UNL     1      -3.838  14.008  23.414  0.00  0.00    +0.000 OA
BRANCH  31  32
ATOM     32  C   UNL     1      -2.996  15.083  23.861  0.00  0.00    +0.000 C 
ATOM     33  C   UNL     1      -2.904  15.003  25.375  0.00  0.00    +0.000 C 
ENDBRANCH  31  32
ENDBRANCH  29  31
ENDBRANCH  28  29
ENDBRANCH  27  28
ENDBRANCH   4  27
TORSDOF 11
ENDMDL
MODEL 3
REMARK VINA RESULT:      -7.3      1.298      1.962
REMARK  Name = 
REMARK  15 active torsions:
REMARK  status: ('A' for Active; 'I' for Inactive)
REMARK    1  A    between atoms: C_1  and  C_2
REMARK    2  A    between atoms: C_2  and  C_3
REMARK    3  A    between atoms: C_3  and  C_4
REMARK    4  A    between atoms: C_4  and  C_5
REMARK    5  A    between atoms: C_4  and  N_6
REMARK    6  A    between atoms: C_7  and  C_8
REMARK    7  A    between atoms: C_8  and  C_9
REMARK    8  A    between atoms: C_12  and  C_13
REMARK    9  A    between atoms: C_16  and  O_17
REMARK   10  A    between atoms: O_17  and  C_18
REMARK   11  A    between atoms: C_18  and  C_19
REMARK   12  A    between atoms: C_19  and  O_21
REMARK   13  A    between atoms: O_21  and  C_22
REMARK   14  A    between atoms: C_22  and  C_23
REMARK   15  A    between atoms: C_25  and  C_26
REMARK                            x       y       z     vdW  Elec       q    Type
REMARK                         _______ _______ _______ _____ _____    ______ ____
ROOT
ATOM      1  C   UNL     1       0.879   9.215  20.542  0.00  0.00    +0.000 A 
ATOM      2  C   UNL     1       1.096   8.996  21.921  0.00  0.00    +0.000 A 
ATOM      3  C   UNL     1       0.348   9.645  22.901  0.00  0.00    +0.000 A 
ATOM      4  C   UNL     1      -0.659  10.471  22.496  0.00  0.00    +0.000 A 
ATOM      5  N   UNL     1      -0.952  10.715  21.207  0.00  0.00    +0.000 NA
ATOM      6  C   UNL     1      -0.167  10.123  20.234  0.00  0.00    +0.000 A 
ENDROOT
BRANCH   1  11
ATOM      7  N   UNL     1       3.019   5.201  19.218  0.00  0.00    +0.000 N 
ATOM      8  C   UNL     1       2.390   5.092  20.448  0.00  0.00    +0.000 A 
ATOM      9  N   UNL     1       1.824   6.243  20.784  0.00  0.00    +0.000 NA
ATOM     10  C   UNL     1       2.119   7.137  19.775  0.00  0.00    +0.000 A 
ATOM     11  C   UNL     1       1.745   8.497  19.570  0.00  0.00    +0.000 A 
ATOM     12  C   UNL     1       2.208   9.054  18.363  0.00  0.00    +0.000 A 
ATOM     13  C   UNL     1       3.067   8.339  17.534  0.00  0.00    +0.000 A 
ATOM     14  N   UNL     1       3.446   7.060  17.713  0.00  0.00    +0.000 NA
ATOM     15  C   UNL     1       2.915   6.513  18.821  0.00  0.00    +0.000 A 
BRANCH   7  16
ATOM     16  C   UNL     1       3.638   4.131  18.431  0.00  0.00    +0.000 C 
ATOM     17  C   UNL     1       4.944   4.591  17.775  0.00  0.00    +0.000 C 
BRANCH  16  18
ATOM     18  C   UNL     1       2.647   3.522  17.410  0.00  0.00    +0.000 C 
BRANCH  18  20
ATOM     19  C   UNL     1       3.469   1.365  18.445  0.00  0.00    +0.000 C 
ATOM     20  C   UNL     1       2.352   2.040  17.664  0.00  0.00    +0.000 C 
ENDBRANCH  18  20
ENDBRANCH  16  18
ENDBRANCH   7  16
BRANCH   8  21
ATOM     21  C   UNL     1       2.397   3.875  21.321  0.00  0.00    +0.000 C 
ATOM     22  C   UNL     1       1.217   2.948  21.067  0.00  0.00    +0.000 C 
ENDBRANCH   8  21
ENDBRANCH   1  11
BRANCH   6  23
ATOM     23  C   UNL     1      -0.542  10.561  18.820  0.00  0.00    +0.000 C 
ATOM     24  F   UNL     1       0.346  11.365  18.172  0.00  0.00    +0.000 F 
ATOM     25  F   UNL     1      -0.728   9.490  17.990  0.00  0.00    +0.000 F 
ATOM     26  F   UNL     1      -1.718  11.258  18.780  0.00  0.00    +0.000 F 
ENDBRANCH   6  23
BRANCH   4  27
ATOM     27  O   UNL     1      -1.325  11.147  23.481  0.00  0.00    +0.000 OA
BRANCH  27  28
ATOM     28  C   UNL     1      -2.168  12.195  23.020  0.00  0.00    +0.000 C 
BRANCH  28  29
ATOM     29  C   UNL     1      -1.396  13.487  23.223  0.00  0.00    +0.000 C 
ATOM     30  O   UNL     1      -0.394  13.823  22.604  0.00  0.00    +0.000 OA
BRANCH  29  31
ATOM     31  O   UNL     1      -1.926  14.188  24.269  0.00  0.00    +0.000 OA
BRANCH  31  32
ATOM     32  C   UNL     1      -1.157  15.332  24.672  0.00  0.00    +0.000 C 
ATOM     33  C   UNL     1      -1.626  15.743  26.057  0.00  0.00    +0.000 C 
ENDBRANCH  31  32
ENDBRANCH  29  31
ENDBRANCH  28  29
ENDBRANCH  27  28
ENDBRANCH   4  27
TORSDOF 11
ENDMDL
MODEL 4
REMARK VINA RESULT:      -7.2      2.931      4.600
REMARK  Name = 
REMARK  15 active torsions:
REMARK  status: ('A' for Active; 'I' for Inactive)
REMARK    1  A    between atoms: C_1  and  C_2
REMARK    2  A    between atoms: C_2  and  C_3
REMARK    3  A    between atoms: C_3  and  C_4
REMARK    4  A    between atoms: C_4  and  C_5
REMARK    5  A    between atoms: C_4  and  N_6
REMARK    6  A    between atoms: C_7  and  C_8
REMARK    7  A    between atoms: C_8  and  C_9
REMARK    8  A    between atoms: C_12  and  C_13
REMARK    9  A    between atoms: C_16  and  O_17
REMARK   10  A    between atoms: O_17  and  C_18
REMARK   11  A    between atoms: C_18  and  C_19
REMARK   12  A    between atoms: C_19  and  O_21
REMARK   13  A    between atoms: O_21  and  C_22
REMARK   14  A    between atoms: C_22  and  C_23
REMARK   15  A    between atoms: C_25  and  C_26
REMARK                            x       y       z     vdW  Elec       q    Type
REMARK                         _______ _______ _______ _____ _____    ______ ____
ROOT
ATOM      1  C   UNL     1       2.030   8.240  18.569  0.00  0.00    +0.000 A 
ATOM      2  C   UNL     1       2.030   9.284  17.616  0.00  0.00    +0.000 A 
ATOM      3  C   UNL     1       1.545  10.556  17.913  0.00  0.00    +0.000 A 
ATOM      4  C   UNL     1       1.115  10.798  19.185  0.00  0.00    +0.000 A 
ATOM      5  N   UNL     1       1.108   9.871  20.159  0.00  0.00    +0.000 NA
ATOM      6  C   UNL     1       1.526   8.590  19.847  0.00  0.00    +0.000 A 
ENDROOT
BRANCH   1  11
ATOM      7  N   UNL     1       5.664   5.571  17.112  0.00  0.00    +0.000 N 
ATOM      8  C   UNL     1       5.990   6.914  17.207  0.00  0.00    +0.000 A 
ATOM      9  N   UNL     1       4.939   7.622  17.598  0.00  0.00    +0.000 NA
ATOM     10  C   UNL     1       3.891   6.733  17.725  0.00  0.00    +0.000 A 
ATOM     11  C   UNL     1       2.543   6.908  18.152  0.00  0.00    +0.000 A 
ATOM     12  C   UNL     1       1.787   5.721  18.200  0.00  0.00    +0.000 A 
ATOM     13  C   UNL     1       2.317   4.522  17.734  0.00  0.00    +0.000 A 
ATOM     14  N   UNL     1       3.581   4.334  17.313  0.00  0.00    +0.000 NA
ATOM     15  C   UNL     1       4.317   5.460  17.366  0.00  0.00    +0.000 A 
BRANCH   7  16
ATOM     16  C   UNL     1       6.566   4.446  16.849  0.00  0.00    +0.000 C 
ATOM     17  C   UNL     1       7.770   4.450  17.795  0.00  0.00    +0.000 C 
BRANCH  16  18
ATOM     18  C   UNL     1       6.985   4.384  15.360  0.00  0.00    +0.000 C 
BRANCH  18  20
ATOM     19  C   UNL     1       6.329   3.760  12.998  0.00  0.00    +0.000 C 
ATOM     20  C   UNL     1       5.852   3.933  14.432  0.00  0.00    +0.000 C 
ENDBRANCH  18  20
ENDBRANCH  16  18
ENDBRANCH   7  16
BRANCH   8  21
ATOM     21  C   UNL     1       7.319   7.511  16.856  0.00  0.00    +0.000 C 
ATOM     22  C   UNL     1       7.833   8.488  17.903  0.00  0.00    +0.000 C 
ENDBRANCH   8  21
ENDBRANCH   1  11
BRANCH   6  23
ATOM     23  C   UNL     1       1.372   7.615  21.013  0.00  0.00    +0.000 C 
ATOM     24  F   UNL     1       2.246   6.572  21.057  0.00  0.00    +0.000 F 
ATOM     25  F   UNL     1       1.504   8.245  22.220  0.00  0.00    +0.000 F 
ATOM     26  F   UNL     1       0.140   7.024  21.046  0.00  0.00    +0.000 F 
ENDBRANCH   6  23
BRANCH   4  27
ATOM     27  O   UNL     1       0.580  12.034  19.422  0.00  0.00    +0.000 OA
BRANCH  27  28
ATOM     28  C   UNL     1      -0.466  12.411  18.537  0.00  0.00    +0.000 C 
BRANCH  28  29
ATOM     29  C   UNL     1      -1.761  12.256  19.313  0.00  0.00    +0.000 C 
ATOM     30  O   UNL     1      -2.749  11.638  18.935  0.00  0.00    +0.000 OA
BRANCH  29  31
ATOM     31  O   UNL     1      -1.706  12.989  20.465  0.00  0.00    +0.000 OA
BRANCH  31  32
ATOM     32  C   UNL     1      -2.167  12.296  21.636  0.00  0.00    +0.000 C 
ATOM     33  C   UNL     1      -0.985  12.136  22.576  0.00  0.00    +0.000 C 
ENDBRANCH  31  32
ENDBRANCH  29  31
ENDBRANCH  28  29
ENDBRANCH  27  28
ENDBRANCH   4  27
TORSDOF 11
ENDMDL
MODEL 5
REMARK VINA RESULT:      -7.2      4.342      8.983
REMARK  Name = 
REMARK  15 active torsions:
REMARK  status: ('A' for Active; 'I' for Inactive)
REMARK    1  A    between atoms: C_1  and  C_2
REMARK    2  A    between atoms: C_2  and  C_3
REMARK    3  A    between atoms: C_3  and  C_4
REMARK    4  A    between atoms: C_4  and  C_5
REMARK    5  A    between atoms: C_4  and  N_6
REMARK    6  A    between atoms: C_7  and  C_8
REMARK    7  A    between atoms: C_8  and  C_9
REMARK    8  A    between atoms: C_12  and  C_13
REMARK    9  A    between atoms: C_16  and  O_17
REMARK   10  A    between atoms: O_17  and  C_18
REMARK   11  A    between atoms: C_18  and  C_19
REMARK   12  A    between atoms: C_19  and  O_21
REMARK   13  A    between atoms: O_21  and  C_22
REMARK   14  A    between atoms: C_22  and  C_23
REMARK   15  A    between atoms: C_25  and  C_26
REMARK                            x       y       z     vdW  Elec       q    Type
REMARK                         _______ _______ _______ _____ _____    ______ ____
ROOT
ATOM      1  C   UNL     1       1.143   9.535  18.908  0.00  0.00    +0.000 A 
ATOM      2  C   UNL     1       1.812   9.042  17.764  0.00  0.00    +0.000 A 
ATOM      3  C   UNL     1       2.566   7.870  17.796  0.00  0.00    +0.000 A 
ATOM      4  C   UNL     1       2.600   7.162  18.960  0.00  0.00    +0.000 A 
ATOM      5  N   UNL     1       1.971   7.543  20.086  0.00  0.00    +0.000 NA
ATOM      6  C   UNL     1       1.278   8.740  20.075  0.00  0.00    +0.000 A 
ENDROOT
BRANCH   1  11
ATOM      7  N   UNL     1       1.109  14.268  19.116  0.00  0.00    +0.000 N 
ATOM      8  C   UNL     1       2.322  13.724  19.506  0.00  0.00    +0.000 A 
ATOM      9  N   UNL     1       2.277  12.400  19.450  0.00  0.00    +0.000 NA
ATOM     10  C   UNL     1       0.998  12.066  19.054  0.00  0.00    +0.000 A 
ATOM     11  C   UNL     1       0.385  10.808  18.784  0.00  0.00    +0.000 A 
ATOM     12  C   UNL     1      -0.948  10.892  18.339  0.00  0.00    +0.000 A 
ATOM     13  C   UNL     1      -1.611  12.116  18.307  0.00  0.00    +0.000 A 
ATOM     14  N   UNL     1      -1.059  13.314  18.572  0.00  0.00    +0.000 NA
ATOM     15  C   UNL     1       0.243  13.223  18.902  0.00  0.00    +0.000 A 
BRANCH   7  16
ATOM     16  C   UNL     1       0.788  15.683  18.907  0.00  0.00    +0.000 C 
ATOM     17  C   UNL     1       1.915  16.419  18.176  0.00  0.00    +0.000 C 
BRANCH  16  18
ATOM     18  C   UNL     1       0.386  16.381  20.229  0.00  0.00    +0.000 C 
BRANCH  18  20
ATOM     19  C   UNL     1      -1.496  16.495  21.915  0.00  0.00    +0.000 C 
ATOM     20  C   UNL     1      -1.130  16.449  20.440  0.00  0.00    +0.000 C 
ENDBRANCH  18  20
ENDBRANCH  16  18
ENDBRANCH   7  16
BRANCH   8  21
ATOM     21  C   UNL     1       3.507  14.503  19.990  0.00  0.00    +0.000 C 
ATOM     22  C   UNL     1       3.854  14.224  21.445  0.00  0.00    +0.000 C 
ENDBRANCH   8  21
ENDBRANCH   1  11
BRANCH   6  23
ATOM     23  C   UNL     1       0.698   9.103  21.440  0.00  0.00    +0.000 C 
ATOM     24  F   UNL     1       0.621  10.429  21.739  0.00  0.00    +0.000 F 
ATOM     25  F   UNL     1      -0.576   8.627  21.592  0.00  0.00    +0.000 F 
ATOM     26  F   UNL     1       1.411   8.565  22.475  0.00  0.00    +0.000 F 
ENDBRANCH   6  23
BRANCH   4  27
ATOM     27  O   UNL     1       3.407   6.057  18.977  0.00  0.00    +0.000 OA
BRANCH  27  28
ATOM     28  C   UNL     1       3.341   5.253  17.807  0.00  0.00    +0.000 C 
BRANCH  28  29
ATOM     29  C   UNL     1       2.279   4.200  18.069  0.00  0.00    +0.000 C 
ATOM     30  O   UNL     1       1.251   4.048  17.420  0.00  0.00    +0.000 OA
BRANCH  29  31
ATOM     31  O   UNL     1       2.586   3.498  19.200  0.00  0.00    +0.000 OA
BRANCH  31  32
ATOM     32  C   UNL     1       1.544   2.624  19.662  0.00  0.00    +0.000 C 
ATOM     33  C   UNL     1       1.302   2.924  21.131  0.00  0.00    +0.000 C 
ENDBRANCH  31  32
ENDBRANCH  29  31
ENDBRANCH  28  29
ENDBRANCH  27  28
ENDBRANCH   4  27
TORSDOF 11
ENDMDL
MODEL 6
REMARK VINA RESULT:      -7.2      4.774      9.575
REMARK  Name = 
REMARK  15 active torsions:
REMARK  status: ('A' for Active; 'I' for Inactive)
REMARK    1  A    between atoms: C_1  and  C_2
REMARK    2  A    between atoms: C_2  and  C_3
REMARK    3  A    between atoms: C_3  and  C_4
REMARK    4  A    between atoms: C_4  and  C_5
REMARK    5  A    between atoms: C_4  and  N_6
REMARK    6  A    between atoms: C_7  and  C_8
REMARK    7  A    between atoms: C_8  and  C_9
REMARK    8  A    between atoms: C_12  and  C_13
REMARK    9  A    between atoms: C_16  and  O_17
REMARK   10  A    between atoms: O_17  and  C_18
REMARK   11  A    between atoms: C_18  and  C_19
REMARK   12  A    between atoms: C_19  and  O_21
REMARK   13  A    between atoms: O_21  and  C_22
REMARK   14  A    between atoms: C_22  and  C_23
REMARK   15  A    between atoms: C_25  and  C_26
REMARK                            x       y       z     vdW  Elec       q    Type
REMARK                         _______ _______ _______ _____ _____    ______ ____
ROOT
ATOM      1  C   UNL     1       0.874  10.004  19.235  0.00  0.00    +0.000 A 
ATOM      2  C   UNL     1       1.448   9.781  17.963  0.00  0.00    +0.000 A 
ATOM      3  C   UNL     1       2.220   8.654  17.687  0.00  0.00    +0.000 A 
ATOM      4  C   UNL     1       2.368   7.722  18.671  0.00  0.00    +0.000 A 
ATOM      5  N   UNL     1       1.833   7.841  19.899  0.00  0.00    +0.000 NA
ATOM      6  C   UNL     1       1.123   8.990  20.195  0.00  0.00    +0.000 A 
ENDROOT
BRANCH   1  11
ATOM      7  N   UNL     1       0.805  14.708  19.800  0.00  0.00    +0.000 N 
ATOM      8  C   UNL     1       2.091  14.192  19.761  0.00  0.00    +0.000 A 
ATOM      9  N   UNL     1       2.058  12.874  19.623  0.00  0.00    +0.000 NA
ATOM     10  C   UNL     1       0.727  12.511  19.609  0.00  0.00    +0.000 A 
ATOM     11  C   UNL     1       0.087  11.249  19.443  0.00  0.00    +0.000 A 
ATOM     12  C   UNL     1      -1.319  11.305  19.429  0.00  0.00    +0.000 A 
ATOM     13  C   UNL     1      -1.986  12.498  19.692  0.00  0.00    +0.000 A 
ATOM     14  N   UNL     1      -1.405  13.699  19.867  0.00  0.00    +0.000 NA
ATOM     15  C   UNL     1      -0.063  13.642  19.779  0.00  0.00    +0.000 A 
BRANCH   7  16
ATOM     16  C   UNL     1       0.406  16.118  19.805  0.00  0.00    +0.000 C 
ATOM     17  C   UNL     1      -0.560  16.431  20.951  0.00  0.00    +0.000 C 
BRANCH  16  18
ATOM     18  C   UNL     1      -0.146  16.563  18.429  0.00  0.00    +0.000 C 
BRANCH  18  20
ATOM     19  C   UNL     1      -0.039  18.400  16.693  0.00  0.00    +0.000 C 
ATOM     20  C   UNL     1       0.736  17.605  17.732  0.00  0.00    +0.000 C 
ENDBRANCH  18  20
ENDBRANCH  16  18
ENDBRANCH   7  16
BRANCH   8  21
ATOM     21  C   UNL     1       3.350  14.987  19.921  0.00  0.00    +0.000 C 
ATOM     22  C   UNL     1       3.887  15.531  18.606  0.00  0.00    +0.000 C 
ENDBRANCH   8  21
ENDBRANCH   1  11
BRANCH   6  23
ATOM     23  C   UNL     1       0.658   9.043  21.649  0.00  0.00    +0.000 C 
ATOM     24  F   UNL     1       0.436  10.278  22.176  0.00  0.00    +0.000 F 
ATOM     25  F   UNL     1      -0.513   8.359  21.831  0.00  0.00    +0.000 F 
ATOM     26  F   UNL     1       1.551   8.466  22.508  0.00  0.00    +0.000 F 
ENDBRANCH   6  23
BRANCH   4  27
ATOM     27  O   UNL     1       3.190   6.666  18.391  0.00  0.00    +0.000 OA
BRANCH  27  28
ATOM     28  C   UNL     1       3.488   5.830  19.502  0.00  0.00    +0.000 C 
BRANCH  28  29
ATOM     29  C   UNL     1       4.372   4.715  18.974  0.00  0.00    +0.000 C 
ATOM     30  O   UNL     1       3.990   3.751  18.321  0.00  0.00    +0.000 OA
BRANCH  29  31
ATOM     31  O   UNL     1       5.655   4.888  19.413  0.00  0.00    +0.000 OA
BRANCH  31  32
ATOM     32  C   UNL     1       6.565   5.381  18.417  0.00  0.00    +0.000 C 
ATOM     33  C   UNL     1       7.811   5.875  19.131  0.00  0.00    +0.000 C 
ENDBRANCH  31  32
ENDBRANCH  29  31
ENDBRANCH  28  29
ENDBRANCH  27  28
ENDBRANCH   4  27
TORSDOF 11
ENDMDL
MODEL 7
REMARK VINA RESULT:      -7.2      1.128      1.500
REMARK  Name = 
REMARK  15 active torsions:
REMARK  status: ('A' for Active; 'I' for Inactive)
REMARK    1  A    between atoms: C_1  and  C_2
REMARK    2  A    between atoms: C_2  and  C_3
REMARK    3  A    between atoms: C_3  and  C_4
REMARK    4  A    between atoms: C_4  and  C_5
REMARK    5  A    between atoms: C_4  and  N_6
REMARK    6  A    between atoms: C_7  and  C_8
REMARK    7  A    between atoms: C_8  and  C_9
REMARK    8  A    between atoms: C_12  and  C_13
REMARK    9  A    between atoms: C_16  and  O_17
REMARK   10  A    between atoms: O_17  and  C_18
REMARK   11  A    between atoms: C_18  and  C_19
REMARK   12  A    between atoms: C_19  and  O_21
REMARK   13  A    between atoms: O_21  and  C_22
REMARK   14  A    between atoms: C_22  and  C_23
REMARK   15  A    between atoms: C_25  and  C_26
REMARK                            x       y       z     vdW  Elec       q    Type
REMARK                         _______ _______ _______ _____ _____    ______ ____
ROOT
ATOM      1  C   UNL     1       0.841   9.144  20.512  0.00  0.00    +0.000 A 
ATOM      2  C   UNL     1       0.956   8.930  21.905  0.00  0.00    +0.000 A 
ATOM      3  C   UNL     1       0.170   9.617  22.826  0.00  0.00    +0.000 A 
ATOM      4  C   UNL     1      -0.775  10.477  22.348  0.00  0.00    +0.000 A 
ATOM      5  N   UNL     1      -0.971  10.719  21.040  0.00  0.00    +0.000 NA
ATOM      6  C   UNL     1      -0.145  10.088  20.127  0.00  0.00    +0.000 A 
ENDROOT
BRANCH   1  11
ATOM      7  N   UNL     1       2.967   5.056  19.410  0.00  0.00    +0.000 N 
ATOM      8  C   UNL     1       2.274   4.993  20.608  0.00  0.00    +0.000 A 
ATOM      9  N   UNL     1       1.714   6.163  20.883  0.00  0.00    +0.000 NA
ATOM     10  C   UNL     1       2.078   7.023  19.867  0.00  0.00    +0.000 A 
ATOM     11  C   UNL     1       1.743   8.383  19.607  0.00  0.00    +0.000 A 
ATOM     12  C   UNL     1       2.279   8.898  18.412  0.00  0.00    +0.000 A 
ATOM     13  C   UNL     1       3.165   8.145  17.647  0.00  0.00    +0.000 A 
ATOM     14  N   UNL     1       3.509   6.865  17.880  0.00  0.00    +0.000 NA
ATOM     15  C   UNL     1       2.910   6.358  18.974  0.00  0.00    +0.000 A 
BRANCH   7  16
ATOM     16  C   UNL     1       3.606   3.953  18.686  0.00  0.00    +0.000 C 
ATOM     17  C   UNL     1       5.003   3.648  19.233  0.00  0.00    +0.000 C 
BRANCH  16  18
ATOM     18  C   UNL     1       3.611   4.197  17.158  0.00  0.00    +0.000 C 
BRANCH  18  20
ATOM     19  C   UNL     1       5.302   4.834  15.388  0.00  0.00    +0.000 C 
ATOM     20  C   UNL     1       4.949   3.853  16.495  0.00  0.00    +0.000 C 
ENDBRANCH  18  20
ENDBRANCH  16  18
ENDBRANCH   7  16
BRANCH   8  21
ATOM     21  C   UNL     1       2.211   3.800  21.513  0.00  0.00    +0.000 C 
ATOM     22  C   UNL     1       1.150   2.791  21.101  0.00  0.00    +0.000 C 
ENDBRANCH   8  21
ENDBRANCH   1  11
BRANCH   6  23
ATOM     23  C   UNL     1      -0.407  10.526  18.687  0.00  0.00    +0.000 C 
ATOM     24  F   UNL     1      -0.562   9.536  17.765  0.00  0.00    +0.000 F 
ATOM     25  F   UNL     1      -1.539  11.288  18.588  0.00  0.00    +0.000 F 
ATOM     26  F   UNL     1       0.598  11.302  18.182  0.00  0.00    +0.000 F 
ENDBRANCH   6  23
BRANCH   4  27
ATOM     27  O   UNL     1      -1.479  11.189  23.280  0.00  0.00    +0.000 OA
BRANCH  27  28
ATOM     28  C   UNL     1      -2.376  12.151  22.743  0.00  0.00    +0.000 C 
BRANCH  28  29
ATOM     29  C   UNL     1      -3.319  12.535  23.870  0.00  0.00    +0.000 C 
ATOM     30  O   UNL     1      -4.198  11.821  24.337  0.00  0.00    +0.000 OA
BRANCH  29  31
ATOM     31  O   UNL     1      -3.109  13.835  24.232  0.00  0.00    +0.000 OA
BRANCH  31  32
ATOM     32  C   UNL     1      -3.937  14.787  23.546  0.00  0.00    +0.000 C 
ATOM     33  C   UNL     1      -3.194  16.111  23.512  0.00  0.00    +0.000 C 
ENDBRANCH  31  32
ENDBRANCH  29  31
ENDBRANCH  28  29
ENDBRANCH  27  28
ENDBRANCH   4  27
TORSDOF 11
ENDMDL
MODEL 8
REMARK VINA RESULT:      -7.1      4.643      9.313
REMARK  Name = 
REMARK  15 active torsions:
REMARK  status: ('A' for Active; 'I' for Inactive)
REMARK    1  A    between atoms: C_1  and  C_2
REMARK    2  A    between atoms: C_2  and  C_3
REMARK    3  A    between atoms: C_3  and  C_4
REMARK    4  A    between atoms: C_4  and  C_5
REMARK    5  A    between atoms: C_4  and  N_6
REMARK    6  A    between atoms: C_7  and  C_8
REMARK    7  A    between atoms: C_8  and  C_9
REMARK    8  A    between atoms: C_12  and  C_13
REMARK    9  A    between atoms: C_16  and  O_17
REMARK   10  A    between atoms: O_17  and  C_18
REMARK   11  A    between atoms: C_18  and  C_19
REMARK   12  A    between atoms: C_19  and  O_21
REMARK   13  A    between atoms: O_21  and  C_22
REMARK   14  A    between atoms: C_22  and  C_23
REMARK   15  A    between atoms: C_25  and  C_26
REMARK                            x       y       z     vdW  Elec       q    Type
REMARK                         _______ _______ _______ _____ _____    ______ ____
ROOT
ATOM      1  C   UNL     1       1.006   9.970  19.101  0.00  0.00    +0.000 A 
ATOM      2  C   UNL     1       1.571   9.739  17.825  0.00  0.00    +0.000 A 
ATOM      3  C   UNL     1       2.327   8.603  17.546  0.00  0.00    +0.000 A 
ATOM      4  C   UNL     1       2.467   7.668  18.529  0.00  0.00    +0.000 A 
ATOM      5  N   UNL     1       1.940   7.794  19.759  0.00  0.00    +0.000 NA
ATOM      6  C   UNL     1       1.245   8.952  20.059  0.00  0.00    +0.000 A 
ENDROOT
BRANCH   1  11
ATOM      7  N   UNL     1       0.974  14.695  19.442  0.00  0.00    +0.000 N 
ATOM      8  C   UNL     1       2.254  14.175  19.323  0.00  0.00    +0.000 A 
ATOM      9  N   UNL     1       2.213  12.852  19.251  0.00  0.00    +0.000 NA
ATOM     10  C   UNL     1       0.885  12.492  19.364  0.00  0.00    +0.000 A 
ATOM     11  C   UNL     1       0.236  11.224  19.312  0.00  0.00    +0.000 A 
ATOM     12  C   UNL     1      -1.167  11.282  19.411  0.00  0.00    +0.000 A 
ATOM     13  C   UNL     1      -1.812  12.488  19.671  0.00  0.00    +0.000 A 
ATOM     14  N   UNL     1      -1.220  13.695  19.739  0.00  0.00    +0.000 NA
ATOM     15  C   UNL     1       0.110  13.631  19.545  0.00  0.00    +0.000 A 
BRANCH   7  16
ATOM     16  C   UNL     1       0.575  16.105  19.413  0.00  0.00    +0.000 C 
ATOM     17  C   UNL     1       0.126  16.597  20.792  0.00  0.00    +0.000 C 
BRANCH  16  18
ATOM     18  C   UNL     1      -0.482  16.378  18.315  0.00  0.00    +0.000 C 
BRANCH  18  20
ATOM     19  C   UNL     1       1.282  17.950  17.412  0.00  0.00    +0.000 C 
ATOM     20  C   UNL     1      -0.207  17.657  17.517  0.00  0.00    +0.000 C 
ENDBRANCH  18  20
ENDBRANCH  16  18
ENDBRANCH   7  16
BRANCH   8  21
ATOM     21  C   UNL     1       3.521  14.975  19.341  0.00  0.00    +0.000 C 
ATOM     22  C   UNL     1       3.999  15.371  17.952  0.00  0.00    +0.000 C 
ENDBRANCH   8  21
ENDBRANCH   1  11
BRANCH   6  23
ATOM     23  C   UNL     1       0.788   9.010  21.515  0.00  0.00    +0.000 C 
ATOM     24  F   UNL     1      -0.551   8.902  21.740  0.00  0.00    +0.000 F 
ATOM     25  F   UNL     1       1.358   8.019  22.265  0.00  0.00    +0.000 F 
ATOM     26  F   UNL     1       1.139  10.179  22.131  0.00  0.00    +0.000 F 
ENDBRANCH   6  23
BRANCH   4  27
ATOM     27  O   UNL     1       3.274   6.601  18.244  0.00  0.00    +0.000 OA
BRANCH  27  28
ATOM     28  C   UNL     1       2.707   5.330  18.533  0.00  0.00    +0.000 C 
BRANCH  28  29
ATOM     29  C   UNL     1       3.761   4.556  19.304  0.00  0.00    +0.000 C 
ATOM     30  O   UNL     1       4.923   4.390  18.951  0.00  0.00    +0.000 OA
BRANCH  29  31
ATOM     31  O   UNL     1       3.204   3.984  20.412  0.00  0.00    +0.000 OA
BRANCH  31  32
ATOM     32  C   UNL     1       2.387   2.833  20.143  0.00  0.00    +0.000 C 
ATOM     33  C   UNL     1       1.268   2.807  21.170  0.00  0.00    +0.000 C 
ENDBRANCH  31  32
ENDBRANCH  29  31
ENDBRANCH  28  29
ENDBRANCH  27  28
ENDBRANCH   4  27
TORSDOF 11
ENDMDL
MODEL 9
REMARK VINA RESULT:      -7.1      4.725      9.449
REMARK  Name = 
REMARK  15 active torsions:
REMARK  status: ('A' for Active; 'I' for Inactive)
REMARK    1  A    between atoms: C_1  and  C_2
REMARK    2  A    between atoms: C_2  and  C_3
REMARK    3  A    between atoms: C_3  and  C_4
REMARK    4  A    between atoms: C_4  and  C_5
REMARK    5  A    between atoms: C_4  and  N_6
REMARK    6  A    between atoms: C_7  and  C_8
REMARK    7  A    between atoms: C_8  and  C_9
REMARK    8  A    between atoms: C_12  and  C_13
REMARK    9  A    between atoms: C_16  and  O_17
REMARK   10  A    between atoms: O_17  and  C_18
REMARK   11  A    between atoms: C_18  and  C_19
REMARK   12  A    between atoms: C_19  and  O_21
REMARK   13  A    between atoms: O_21  and  C_22
REMARK   14  A    between atoms: C_22  and  C_23
REMARK   15  A    between atoms: C_25  and  C_26
REMARK                            x       y       z     vdW  Elec       q    Type
REMARK                         _______ _______ _______ _____ _____    ______ ____
ROOT
ATOM      1  C   UNL     1       1.152   9.485  19.000  0.00  0.00    +0.000 A 
ATOM      2  C   UNL     1       1.908   8.987  17.913  0.00  0.00    +0.000 A 
ATOM      3  C   UNL     1       2.659   7.818  18.008  0.00  0.00    +0.000 A 
ATOM      4  C   UNL     1       2.606   7.115  19.175  0.00  0.00    +0.000 A 
ATOM      5  N   UNL     1       1.891   7.500  20.247  0.00  0.00    +0.000 NA
ATOM      6  C   UNL     1       1.199   8.695  20.177  0.00  0.00    +0.000 A 
ENDROOT
BRANCH   1  11
ATOM      7  N   UNL     1       1.110  14.221  19.127  0.00  0.00    +0.000 N 
ATOM      8  C   UNL     1       2.299  13.683  19.593  0.00  0.00    +0.000 A 
ATOM      9  N   UNL     1       2.256  12.358  19.557  0.00  0.00    +0.000 NA
ATOM     10  C   UNL     1       1.001  12.017  19.096  0.00  0.00    +0.000 A 
ATOM     11  C   UNL     1       0.403  10.755  18.812  0.00  0.00    +0.000 A 
ATOM     12  C   UNL     1      -0.902  10.832  18.291  0.00  0.00    +0.000 A 
ATOM     13  C   UNL     1      -1.562  12.054  18.202  0.00  0.00    +0.000 A 
ATOM     14  N   UNL     1      -1.024  13.257  18.477  0.00  0.00    +0.000 NA
ATOM     15  C   UNL     1       0.257  13.171  18.881  0.00  0.00    +0.000 A 
BRANCH   7  16
ATOM     16  C   UNL     1       0.803  15.632  18.877  0.00  0.00    +0.000 C 
ATOM     17  C   UNL     1       1.955  16.346  18.164  0.00  0.00    +0.000 C 
BRANCH  16  18
ATOM     18  C   UNL     1       0.364  16.361  20.169  0.00  0.00    +0.000 C 
BRANCH  18  20
ATOM     19  C   UNL     1       1.689  17.808  21.766  0.00  0.00    +0.000 C 
ATOM     20  C   UNL     1       1.077  17.702  20.378  0.00  0.00    +0.000 C 
ENDBRANCH  18  20
ENDBRANCH  16  18
ENDBRANCH   7  16
BRANCH   8  21
ATOM     21  C   UNL     1       3.456  14.470  20.130  0.00  0.00    +0.000 C 
ATOM     22  C   UNL     1       3.471  14.552  21.649  0.00  0.00    +0.000 C 
ENDBRANCH   8  21
ENDBRANCH   1  11
BRANCH   6  23
ATOM     23  C   UNL     1       0.514   9.063  21.492  0.00  0.00    +0.000 C 
ATOM     24  F   UNL     1       0.180  10.372  21.663  0.00  0.00    +0.000 F 
ATOM     25  F   UNL     1      -0.651   8.369  21.668  0.00  0.00    +0.000 F 
ATOM     26  F   UNL     1       1.281   8.766  22.585  0.00  0.00    +0.000 F 
ENDBRANCH   6  23
BRANCH   4  27
ATOM     27  O   UNL     1       3.410   6.012  19.259  0.00  0.00    +0.000 OA
BRANCH  27  28
ATOM     28  C   UNL     1       4.062   5.656  18.047  0.00  0.00    +0.000 C 
BRANCH  28  29
ATOM     29  C   UNL     1       4.744   4.324  18.303  0.00  0.00    +0.000 C 
ATOM     30  O   UNL     1       4.382   3.241  17.859  0.00  0.00    +0.000 OA
BRANCH  29  31
ATOM     31  O   UNL     1       5.776   4.488  19.184  0.00  0.00    +0.000 OA
BRANCH  31  32
ATOM     32  C   UNL     1       6.818   5.365  18.726  0.00  0.00    +0.000 C 
ATOM     33  C   UNL     1       7.611   4.627  17.661  0.00  0.00    +0.000 C 
ENDBRANCH  31  32
ENDBRANCH  29  31
ENDBRANCH  28  29
ENDBRANCH  27  28
ENDBRANCH   4  27
TORSDOF 11
ENDMDL
