MODEL 1
REMARK VINA RESULT:      -6.8      0.000      0.000
REMARK  Name = 
REMARK  5 active torsions:
REMARK  status: ('A' for Active; 'I' for Inactive)
REMARK    1  A    between atoms: C_2  and  C_3
REMARK    2  A    between atoms: C_17  and  O_18
REMARK    3  A    between atoms: O_18  and  C_19
REMARK    4  A    between atoms: C_19  and  C_20
REMARK    5  A    between atoms: C_20  and  O_21
REMARK                            x       y       z     vdW  Elec       q    Type
REMARK                         _______ _______ _______ _____ _____    ______ ____
ROOT
ATOM      1  C   UNL     1      -6.071  11.857  18.467  0.00  0.00    +0.000 A 
ATOM      2  N   UNL     1      -6.492  10.731  19.103  0.00  0.00    +0.000 NA
ATOM      3  C   UNL     1      -6.949  10.914  20.382  0.00  0.00    +0.000 A 
ATOM      4  C   UNL     1      -6.749  12.082  21.105  0.00  0.00    +0.000 A 
ATOM      5  N   UNL     1      -6.476  13.178  20.402  0.00  0.00    +0.000 NA
ATOM      6  C   UNL     1      -6.308  13.079  19.066  0.00  0.00    +0.000 A 
ATOM      7  O   UNL     1      -6.866  14.077  18.279  0.00  0.00    +0.000 OA
ATOM      8  C   UNL     1      -7.735  15.063  18.897  0.00  0.00    +0.000 C 
ATOM      9  C   UNL     1      -6.973  16.361  19.226  0.00  0.00    +0.000 C 
ATOM     10  C   UNL     1      -6.629  16.615  20.716  0.00  0.00    +0.000 C 
ATOM     11  C   UNL     1      -5.663  15.538  21.166  0.00  0.00    +0.000 C 
ATOM     12  O   UNL     1      -4.759  15.684  22.245  0.00  0.00    +0.000 OA
ATOM     13  C   UNL     1      -4.098  14.455  22.346  0.00  0.00    +0.000 A 
ATOM     14  C   UNL     1      -2.996  14.198  21.523  0.00  0.00    +0.000 A 
ATOM     15  C   UNL     1      -2.245  13.034  21.710  0.00  0.00    +0.000 A 
ATOM     16  C   UNL     1      -2.517  12.213  22.814  0.00  0.00    +0.000 A 
ATOM     17 CL   UNL     1      -1.484  10.885  23.221  0.00  0.00    +0.000 Cl
ATOM     18  C   UNL     1      -3.647  12.432  23.597  0.00  0.00    +0.000 A 
ATOM     19  C   UNL     1      -4.510  13.473  23.256  0.00  0.00    +0.000 A 
ATOM     20  N   UNL     1      -5.766  13.554  23.871  0.00  0.00    +0.000 N 
ATOM     21  C   UNL     1      -6.920  12.936  23.522  0.00  0.00    +0.000 C 
ATOM     22  O   UNL     1      -7.798  12.883  24.400  0.00  0.00    +0.000 OA
ATOM     23  N   UNL     1      -7.147  12.156  22.444  0.00  0.00    +0.000 N 
ATOM     24  H   UNL     1      -5.726  13.539  24.887  0.00  0.00    +0.000 HD
ATOM     25  H   UNL     1      -7.997  11.635  22.617  0.00  0.00    +0.000 HD
ENDROOT
BRANCH   1  27
ATOM     26  N   UNL     1      -4.330  11.553  16.515  0.00  0.00    +0.000 NA
ATOM     27  C   UNL     1      -5.103  11.730  17.369  0.00  0.00    +0.000 C 
ENDBRANCH   1  27
BRANCH  15  28
ATOM     28  O   UNL     1      -1.260  12.593  20.876  0.00  0.00    +0.000 OA
BRANCH  28  29
ATOM     29  C   UNL     1      -1.628  11.977  19.650  0.00  0.00    +0.000 C 
BRANCH  29  30
ATOM     30  C   UNL     1      -0.905  12.735  18.543  0.00  0.00    +0.000 C 
BRANCH  30  31
ATOM     31  O   UNL     1      -1.448  12.423  17.268  0.00  0.00    +0.000 OA
ATOM     32  H   UNL     1      -2.405  12.299  17.383  0.00  0.00    +0.000 HD
ENDBRANCH  30  31
ENDBRANCH  29  30
ENDBRANCH  28  29
ENDBRANCH  15  28
TORSDOF 5
ENDMDL
MODEL 2
REMARK VINA RESULT:      -6.5      9.791     13.402
REMARK  Name = 
REMARK  5 active torsions:
REMARK  status: ('A' for Active; 'I' for Inactive)
REMARK    1  A    between atoms: C_2  and  C_3
REMARK    2  A    between atoms: C_17  and  O_18
REMARK    3  A    between atoms: O_18  and  C_19
REMARK    4  A    between atoms: C_19  and  C_20
REMARK    5  A    between atoms: C_20  and  O_21
REMARK                            x       y       z     vdW  Elec       q    Type
REMARK                         _______ _______ _______ _____ _____    ______ ____
ROOT
ATOM      1  C   UNL     1       7.606   6.968  18.014  0.00  0.00    +0.000 A 
ATOM      2  N   UNL     1       7.925   6.652  19.298  0.00  0.00    +0.000 NA
ATOM      3  C   UNL     1       7.391   5.481  19.766  0.00  0.00    +0.000 A 
ATOM      4  C   UNL     1       6.376   4.791  19.118  0.00  0.00    +0.000 A 
ATOM      5  N   UNL     1       6.212   5.051  17.824  0.00  0.00    +0.000 NA
ATOM      6  C   UNL     1       6.951   6.022  17.248  0.00  0.00    +0.000 A 
ATOM      7  O   UNL     1       7.454   5.772  15.979  0.00  0.00    +0.000 OA
ATOM      8  C   UNL     1       7.317   4.442  15.412  0.00  0.00    +0.000 C 
ATOM      9  C   UNL     1       6.103   4.352  14.468  0.00  0.00    +0.000 C 
ATOM     10  C   UNL     1       4.854   3.601  14.997  0.00  0.00    +0.000 C 
ATOM     11  C   UNL     1       4.303   4.376  16.175  0.00  0.00    +0.000 C 
ATOM     12  O   UNL     1       2.956   4.314  16.606  0.00  0.00    +0.000 OA
ATOM     13  C   UNL     1       2.887   5.136  17.736  0.00  0.00    +0.000 A 
ATOM     14  C   UNL     1       2.719   6.515  17.573  0.00  0.00    +0.000 A 
ATOM     15  C   UNL     1       2.511   7.328  18.691  0.00  0.00    +0.000 A 
ATOM     16  C   UNL     1       2.327   6.731  19.947  0.00  0.00    +0.000 A 
ATOM     17 CL   UNL     1       1.848   7.665  21.323  0.00  0.00    +0.000 Cl
ATOM     18  C   UNL     1       2.554   5.369  20.123  0.00  0.00    +0.000 A 
ATOM     19  C   UNL     1       2.979   4.612  19.032  0.00  0.00    +0.000 A 
ATOM     20  N   UNL     1       3.449   3.308  19.240  0.00  0.00    +0.000 N 
ATOM     21  C   UNL     1       4.696   2.902  19.578  0.00  0.00    +0.000 C 
ATOM     22  O   UNL     1       4.789   1.753  20.041  0.00  0.00    +0.000 OA
ATOM     23  N   UNL     1       5.805   3.660  19.712  0.00  0.00    +0.000 N 
ATOM     24  H   UNL     1       2.802   2.719  19.760  0.00  0.00    +0.000 HD
ATOM     25  H   UNL     1       6.485   3.120  20.231  0.00  0.00    +0.000 HD
ENDROOT
BRANCH   1  27
ATOM     26  N   UNL     1       7.735   9.507  17.329  0.00  0.00    +0.000 NA
ATOM     27  C   UNL     1       7.652   8.376  17.598  0.00  0.00    +0.000 C 
ENDBRANCH   1  27
BRANCH  15  28
ATOM     28  O   UNL     1       2.500   8.692  18.679  0.00  0.00    +0.000 OA
BRANCH  28  29
ATOM     29  C   UNL     1       1.650   9.360  17.759  0.00  0.00    +0.000 C 
BRANCH  29  30
ATOM     30  C   UNL     1       0.500   9.949  18.569  0.00  0.00    +0.000 C 
BRANCH  30  31
ATOM     31  O   UNL     1      -0.517  10.460  17.720  0.00  0.00    +0.000 OA
ATOM     32  H   UNL     1      -0.895   9.708  17.234  0.00  0.00    +0.000 HD
ENDBRANCH  30  31
ENDBRANCH  29  30
ENDBRANCH  28  29
ENDBRANCH  15  28
TORSDOF 5
ENDMDL
MODEL 3
REMARK VINA RESULT:      -6.1      3.178      6.196
REMARK  Name = 
REMARK  5 active torsions:
REMARK  status: ('A' for Active; 'I' for Inactive)
REMARK    1  A    between atoms: C_2  and  C_3
REMARK    2  A    between atoms: C_17  and  O_18
REMARK    3  A    between atoms: O_18  and  C_19
REMARK    4  A    between atoms: C_19  and  C_20
REMARK    5  A    between atoms: C_20  and  O_21
REMARK                            x       y       z     vdW  Elec       q    Type
REMARK                         _______ _______ _______ _____ _____    ______ ____
ROOT
ATOM      1  C   UNL     1      -1.425  11.516  18.221  0.00  0.00    +0.000 A 
ATOM      2  N   UNL     1      -0.935  12.688  17.736  0.00  0.00    +0.000 NA
ATOM      3  C   UNL     1      -0.288  13.479  18.649  0.00  0.00    +0.000 A 
ATOM      4  C   UNL     1      -0.355  13.273  20.021  0.00  0.00    +0.000 A 
ATOM      5  N   UNL     1      -0.709  12.056  20.424  0.00  0.00    +0.000 NA
ATOM      6  C   UNL     1      -1.077  11.138  19.505  0.00  0.00    +0.000 A 
ATOM      7  O   UNL     1      -0.625   9.839  19.685  0.00  0.00    +0.000 OA
ATOM      8  C   UNL     1       0.346   9.566  20.730  0.00  0.00    +0.000 C 
ATOM      9  C   UNL     1      -0.332   9.038  22.009  0.00  0.00    +0.000 C 
ATOM     10  C   UNL     1      -0.444  10.021  23.202  0.00  0.00    +0.000 C 
ATOM     11  C   UNL     1      -1.352  11.161  22.790  0.00  0.00    +0.000 C 
ATOM     12  O   UNL     1      -2.081  11.963  23.700  0.00  0.00    +0.000 OA
ATOM     13  C   UNL     1      -2.743  12.912  22.913  0.00  0.00    +0.000 A 
ATOM     14  C   UNL     1      -3.960  12.576  22.311  0.00  0.00    +0.000 A 
ATOM     15  C   UNL     1      -4.698  13.554  21.638  0.00  0.00    +0.000 A 
ATOM     16  C   UNL     1      -4.279  14.892  21.702  0.00  0.00    +0.000 A 
ATOM     17 CL   UNL     1      -5.265  16.171  21.080  0.00  0.00    +0.000 Cl
ATOM     18  C   UNL     1      -3.040  15.220  22.246  0.00  0.00    +0.000 A 
ATOM     19  C   UNL     1      -2.219  14.195  22.713  0.00  0.00    +0.000 A 
ATOM     20  N   UNL     1      -0.883  14.475  23.030  0.00  0.00    +0.000 N 
ATOM     21  C   UNL     1       0.193  14.504  22.208  0.00  0.00    +0.000 C 
ATOM     22  O   UNL     1       1.192  15.106  22.637  0.00  0.00    +0.000 OA
ATOM     23  N   UNL     1       0.241  14.186  20.897  0.00  0.00    +0.000 N 
ATOM     24  H   UNL     1      -0.770  15.249  23.681  0.00  0.00    +0.000 HD
ATOM     25  H   UNL     1       1.097  14.572  20.519  0.00  0.00    +0.000 HD
ENDROOT
BRANCH   1  27
ATOM     26  N   UNL     1      -3.480  10.369  17.040  0.00  0.00    +0.000 NA
ATOM     27  C   UNL     1      -2.549  10.875  17.525  0.00  0.00    +0.000 C 
ENDBRANCH   1  27
BRANCH  15  28
ATOM     28  O   UNL     1      -5.805  13.319  20.877  0.00  0.00    +0.000 OA
BRANCH  28  29
ATOM     29  C   UNL     1      -6.824  12.478  21.395  0.00  0.00    +0.000 C 
BRANCH  29  30
ATOM     30  C   UNL     1      -7.051  11.376  20.367  0.00  0.00    +0.000 C 
BRANCH  30  31
ATOM     31  O   UNL     1      -7.310  10.130  20.998  0.00  0.00    +0.000 OA
ATOM     32  H   UNL     1      -7.920  10.299  21.735  0.00  0.00    +0.000 HD
ENDBRANCH  30  31
ENDBRANCH  29  30
ENDBRANCH  28  29
ENDBRANCH  15  28
TORSDOF 5
ENDMDL
MODEL 4
REMARK VINA RESULT:      -6.0      0.939      1.063
REMARK  Name = 
REMARK  5 active torsions:
REMARK  status: ('A' for Active; 'I' for Inactive)
REMARK    1  A    between atoms: C_2  and  C_3
REMARK    2  A    between atoms: C_17  and  O_18
REMARK    3  A    between atoms: O_18  and  C_19
REMARK    4  A    between atoms: C_19  and  C_20
REMARK    5  A    between atoms: C_20  and  O_21
REMARK                            x       y       z     vdW  Elec       q    Type
REMARK                         _______ _______ _______ _____ _____    ______ ____
ROOT
ATOM      1  C   UNL     1      -5.955  11.565  18.245  0.00  0.00    +0.000 A 
ATOM      2  N   UNL     1      -6.348  10.442  18.905  0.00  0.00    +0.000 NA
ATOM      3  C   UNL     1      -6.854  10.645  20.162  0.00  0.00    +0.000 A 
ATOM      4  C   UNL     1      -6.727  11.842  20.853  0.00  0.00    +0.000 A 
ATOM      5  N   UNL     1      -6.479  12.927  20.124  0.00  0.00    +0.000 NA
ATOM      6  C   UNL     1      -6.263  12.794  18.798  0.00  0.00    +0.000 A 
ATOM      7  O   UNL     1      -6.837  13.741  17.961  0.00  0.00    +0.000 OA
ATOM      8  C   UNL     1      -7.767  14.708  18.519  0.00  0.00    +0.000 C 
ATOM      9  C   UNL     1      -7.072  16.047  18.830  0.00  0.00    +0.000 C 
ATOM     10  C   UNL     1      -6.788  16.362  20.321  0.00  0.00    +0.000 C 
ATOM     11  C   UNL     1      -5.793  15.343  20.835  0.00  0.00    +0.000 C 
ATOM     12  O   UNL     1      -4.931  15.562  21.937  0.00  0.00    +0.000 OA
ATOM     13  C   UNL     1      -4.221  14.367  22.099  0.00  0.00    +0.000 A 
ATOM     14  C   UNL     1      -3.084  14.132  21.319  0.00  0.00    +0.000 A 
ATOM     15  C   UNL     1      -2.290  13.009  21.566  0.00  0.00    +0.000 A 
ATOM     16  C   UNL     1      -2.562  12.211  22.688  0.00  0.00    +0.000 A 
ATOM     17 CL   UNL     1      -1.488  10.943  23.169  0.00  0.00    +0.000 Cl
ATOM     18  C   UNL     1      -3.726  12.405  23.428  0.00  0.00    +0.000 A 
ATOM     19  C   UNL     1      -4.620  13.396  23.027  0.00  0.00    +0.000 A 
ATOM     20  N   UNL     1      -5.899  13.441  23.599  0.00  0.00    +0.000 N 
ATOM     21  C   UNL     1      -7.013  12.763  23.234  0.00  0.00    +0.000 C 
ATOM     22  O   UNL     1      -7.916  12.700  24.086  0.00  0.00    +0.000 OA
ATOM     23  N   UNL     1      -7.172  11.941  22.176  0.00  0.00    +0.000 N 
ATOM     24  H   UNL     1      -5.891  13.460  24.616  0.00  0.00    +0.000 HD
ATOM     25  H   UNL     1      -8.004  11.388  22.338  0.00  0.00    +0.000 HD
ENDROOT
BRANCH   1  27
ATOM     26  N   UNL     1      -4.121  11.288  16.376  0.00  0.00    +0.000 NA
ATOM     27  C   UNL     1      -4.947  11.446  17.183  0.00  0.00    +0.000 C 
ENDBRANCH   1  27
BRANCH  15  28
ATOM     28  O   UNL     1      -1.261  12.585  20.778  0.00  0.00    +0.000 OA
BRANCH  28  29
ATOM     29  C   UNL     1      -0.194  13.481  20.507  0.00  0.00    +0.000 C 
BRANCH  29  30
ATOM     30  C   UNL     1       0.973  12.638  20.005  0.00  0.00    +0.000 C 
BRANCH  30  31
ATOM     31  O   UNL     1       1.029  11.388  20.675  0.00  0.00    +0.000 OA
ATOM     32  H   UNL     1       1.832  10.932  20.372  0.00  0.00    +0.000 HD
ENDBRANCH  30  31
ENDBRANCH  29  30
ENDBRANCH  28  29
ENDBRANCH  15  28
TORSDOF 5
ENDMDL
MODEL 5
REMARK VINA RESULT:      -5.7      3.951      7.243
REMARK  Name = 
REMARK  5 active torsions:
REMARK  status: ('A' for Active; 'I' for Inactive)
REMARK    1  A    between atoms: C_2  and  C_3
REMARK    2  A    between atoms: C_17  and  O_18
REMARK    3  A    between atoms: O_18  and  C_19
REMARK    4  A    between atoms: C_19  and  C_20
REMARK    5  A    between atoms: C_20  and  O_21
REMARK                            x       y       z     vdW  Elec       q    Type
REMARK                         _______ _______ _______ _____ _____    ______ ____
ROOT
ATOM      1  C   UNL     1      -2.076  13.710  23.256  0.00  0.00    +0.000 A 
ATOM      2  N   UNL     1      -3.163  14.191  22.595  0.00  0.00    +0.000 NA
ATOM      3  C   UNL     1      -3.373  13.665  21.347  0.00  0.00    +0.000 A 
ATOM      4  C   UNL     1      -2.423  12.919  20.662  0.00  0.00    +0.000 A 
ATOM      5  N   UNL     1      -1.463  12.361  21.395  0.00  0.00    +0.000 NA
ATOM      6  C   UNL     1      -1.403  12.629  22.717  0.00  0.00    +0.000 A 
ATOM      7  O   UNL     1      -1.109  11.574  23.568  0.00  0.00    +0.000 OA
ATOM      8  C   UNL     1      -1.056  10.225  23.032  0.00  0.00    +0.000 C 
ATOM      9  C   UNL     1       0.391   9.797  22.719  0.00  0.00    +0.000 C 
ATOM     10  C   UNL     1       0.806   9.762  21.226  0.00  0.00    +0.000 C 
ATOM     11  C   UNL     1       0.754  11.177  20.690  0.00  0.00    +0.000 C 
ATOM     12  O   UNL     1       1.501  11.631  19.576  0.00  0.00    +0.000 OA
ATOM     13  C   UNL     1       1.126  12.967  19.396  0.00  0.00    +0.000 A 
ATOM     14  C   UNL     1       1.746  13.964  20.156  0.00  0.00    +0.000 A 
ATOM     15  C   UNL     1       1.481  15.310  19.889  0.00  0.00    +0.000 A 
ATOM     16  C   UNL     1       0.710  15.646  18.766  0.00  0.00    +0.000 A 
ATOM     17 CL   UNL     1       0.532  17.292  18.259  0.00  0.00    +0.000 Cl
ATOM     18  C   UNL     1       0.042  14.660  18.046  0.00  0.00    +0.000 A 
ATOM     19  C   UNL     1       0.143  13.335  18.467  0.00  0.00    +0.000 A 
ATOM     20  N   UNL     1      -0.711  12.370  17.915  0.00  0.00    +0.000 N 
ATOM     21  C   UNL     1      -1.968  12.039  18.292  0.00  0.00    +0.000 C 
ATOM     22  O   UNL     1      -2.643  11.416  17.454  0.00  0.00    +0.000 OA
ATOM     23  N   UNL     1      -2.666  12.508  19.347  0.00  0.00    +0.000 N 
ATOM     24  H   UNL     1      -0.697  12.347  16.898  0.00  0.00    +0.000 HD
ATOM     25  H   UNL     1      -3.642  12.286  19.194  0.00  0.00    +0.000 HD
ENDROOT
BRANCH   1  27
ATOM     26  N   UNL     1      -0.901  15.178  25.100  0.00  0.00    +0.000 NA
ATOM     27  C   UNL     1      -1.459  14.537  24.302  0.00  0.00    +0.000 C 
ENDBRANCH   1  27
BRANCH  15  28
ATOM     28  O   UNL     1       1.890  16.359  20.658  0.00  0.00    +0.000 OA
BRANCH  28  29
ATOM     29  C   UNL     1       3.048  16.205  21.464  0.00  0.00    +0.000 C 
BRANCH  29  30
ATOM     30  C   UNL     1       2.692  16.725  22.852  0.00  0.00    +0.000 C 
BRANCH  30  31
ATOM     31  O   UNL     1       1.525  16.089  23.355  0.00  0.00    +0.000 OA
ATOM     32  H   UNL     1       1.724  15.141  23.436  0.00  0.00    +0.000 HD
ENDBRANCH  30  31
ENDBRANCH  29  30
ENDBRANCH  28  29
ENDBRANCH  15  28
TORSDOF 5
ENDMDL
MODEL 6
REMARK VINA RESULT:      -5.5      2.426      3.921
REMARK  Name = 
REMARK  5 active torsions:
REMARK  status: ('A' for Active; 'I' for Inactive)
REMARK    1  A    between atoms: C_2  and  C_3
REMARK    2  A    between atoms: C_17  and  O_18
REMARK    3  A    between atoms: O_18  and  C_19
REMARK    4  A    between atoms: C_19  and  C_20
REMARK    5  A    between atoms: C_20  and  O_21
REMARK                            x       y       z     vdW  Elec       q    Type
REMARK                         _______ _______ _______ _____ _____    ______ ____
ROOT
ATOM      1  C   UNL     1      -5.785  13.173  21.309  0.00  0.00    +0.000 A 
ATOM      2  N   UNL     1      -5.724  12.517  22.499  0.00  0.00    +0.000 NA
ATOM      3  C   UNL     1      -4.708  12.904  23.332  0.00  0.00    +0.000 A 
ATOM      4  C   UNL     1      -3.639  13.688  22.921  0.00  0.00    +0.000 A 
ATOM      5  N   UNL     1      -3.821  14.412  21.820  0.00  0.00    +0.000 NA
ATOM      6  C   UNL     1      -4.966  14.270  21.119  0.00  0.00    +0.000 A 
ATOM      7  O   UNL     1      -5.553  15.422  20.616  0.00  0.00    +0.000 OA
ATOM      8  C   UNL     1      -5.020  16.716  21.006  0.00  0.00    +0.000 C 
ATOM      9  C   UNL     1      -4.054  17.273  19.943  0.00  0.00    +0.000 C 
ATOM     10  C   UNL     1      -2.540  17.223  20.273  0.00  0.00    +0.000 C 
ATOM     11  C   UNL     1      -2.128  15.769  20.369  0.00  0.00    +0.000 C 
ATOM     12  O   UNL     1      -0.806  15.305  20.166  0.00  0.00    +0.000 OA
ATOM     13  C   UNL     1      -0.856  13.925  20.391  0.00  0.00    +0.000 A 
ATOM     14  C   UNL     1      -1.262  13.075  19.357  0.00  0.00    +0.000 A 
ATOM     15  C   UNL     1      -1.185  11.689  19.525  0.00  0.00    +0.000 A 
ATOM     16  C   UNL     1      -0.564  11.172  20.672  0.00  0.00    +0.000 A 
ATOM     17 CL   UNL     1      -0.243   9.478  20.831  0.00  0.00    +0.000 Cl
ATOM     18  C   UNL     1      -0.217  12.010  21.727  0.00  0.00    +0.000 A 
ATOM     19  C   UNL     1      -0.508  13.370  21.629  0.00  0.00    +0.000 A 
ATOM     20  N   UNL     1      -0.397  14.181  22.767  0.00  0.00    +0.000 N 
ATOM     21  C   UNL     1      -1.311  14.402  23.741  0.00  0.00    +0.000 C 
ATOM     22  O   UNL     1      -0.873  14.869  24.805  0.00  0.00    +0.000 OA
ATOM     23  N   UNL     1      -2.582  13.952  23.799  0.00  0.00    +0.000 N 
ATOM     24  H   UNL     1       0.508  14.116  23.228  0.00  0.00    +0.000 HD
ATOM     25  H   UNL     1      -2.899  14.050  24.755  0.00  0.00    +0.000 HD
ENDROOT
BRANCH   1  27
ATOM     26  N   UNL     1      -6.901  12.018  19.222  0.00  0.00    +0.000 NA
ATOM     27  C   UNL     1      -6.440  12.514  20.170  0.00  0.00    +0.000 C 
ENDBRANCH   1  27
BRANCH  15  28
ATOM     28  O   UNL     1      -1.699  10.764  18.664  0.00  0.00    +0.000 OA
BRANCH  28  29
ATOM     29  C   UNL     1      -2.117  11.187  17.375  0.00  0.00    +0.000 C 
BRANCH  29  30
ATOM     30  C   UNL     1      -3.624  10.972  17.309  0.00  0.00    +0.000 C 
BRANCH  30  31
ATOM     31  O   UNL     1      -4.321  12.210  17.332  0.00  0.00    +0.000 OA
ATOM     32  H   UNL     1      -4.474  12.439  18.264  0.00  0.00    +0.000 HD
ENDBRANCH  30  31
ENDBRANCH  29  30
ENDBRANCH  28  29
ENDBRANCH  15  28
TORSDOF 5
ENDMDL
MODEL 7
REMARK VINA RESULT:      -5.5      2.083      3.238
REMARK  Name = 
REMARK  5 active torsions:
REMARK  status: ('A' for Active; 'I' for Inactive)
REMARK    1  A    between atoms: C_2  and  C_3
REMARK    2  A    between atoms: C_17  and  O_18
REMARK    3  A    between atoms: O_18  and  C_19
REMARK    4  A    between atoms: C_19  and  C_20
REMARK    5  A    between atoms: C_20  and  O_21
REMARK                            x       y       z     vdW  Elec       q    Type
REMARK                         _______ _______ _______ _____ _____    ______ ____
ROOT
ATOM      1  C   UNL     1      -6.676  12.775  21.961  0.00  0.00    +0.000 A 
ATOM      2  N   UNL     1      -6.603  12.094  23.137  0.00  0.00    +0.000 NA
ATOM      3  C   UNL     1      -5.766  12.633  24.078  0.00  0.00    +0.000 A 
ATOM      4  C   UNL     1      -4.837  13.625  23.796  0.00  0.00    +0.000 A 
ATOM      5  N   UNL     1      -5.050  14.346  22.699  0.00  0.00    +0.000 NA
ATOM      6  C   UNL     1      -6.073  14.016  21.881  0.00  0.00    +0.000 A 
ATOM      7  O   UNL     1      -6.822  15.054  21.347  0.00  0.00    +0.000 OA
ATOM      8  C   UNL     1      -6.592  16.408  21.818  0.00  0.00    +0.000 C 
ATOM      9  C   UNL     1      -5.656  17.185  20.872  0.00  0.00    +0.000 C 
ATOM     10  C   UNL     1      -4.201  17.413  21.355  0.00  0.00    +0.000 C 
ATOM     11  C   UNL     1      -3.523  16.062  21.460  0.00  0.00    +0.000 C 
ATOM     12  O   UNL     1      -2.123  15.870  21.382  0.00  0.00    +0.000 OA
ATOM     13  C   UNL     1      -1.924  14.497  21.570  0.00  0.00    +0.000 A 
ATOM     14  C   UNL     1      -2.054  13.629  20.481  0.00  0.00    +0.000 A 
ATOM     15  C   UNL     1      -1.725  12.278  20.625  0.00  0.00    +0.000 A 
ATOM     16  C   UNL     1      -1.128  11.842  21.817  0.00  0.00    +0.000 A 
ATOM     17 CL   UNL     1      -0.499  10.237  21.971  0.00  0.00    +0.000 Cl
ATOM     18  C   UNL     1      -1.054  12.687  22.921  0.00  0.00    +0.000 A 
ATOM     19  C   UNL     1      -1.594  13.969  22.825  0.00  0.00    +0.000 A 
ATOM     20  N   UNL     1      -1.753  14.738  23.985  0.00  0.00    +0.000 N 
ATOM     21  C   UNL     1      -2.783  14.737  24.865  0.00  0.00    +0.000 C 
ATOM     22  O   UNL     1      -2.548  15.236  25.980  0.00  0.00    +0.000 OA
ATOM     23  N   UNL     1      -3.941  14.050  24.783  0.00  0.00    +0.000 N 
ATOM     24  H   UNL     1      -0.902  14.828  24.535  0.00  0.00    +0.000 HD
ATOM     25  H   UNL     1      -4.361  14.045  25.704  0.00  0.00    +0.000 HD
ENDROOT
BRANCH   1  27
ATOM     26  N   UNL     1      -7.458  11.451  19.824  0.00  0.00    +0.000 NA
ATOM     27  C   UNL     1      -7.077  12.051  20.748  0.00  0.00    +0.000 C 
ENDBRANCH   1  27
BRANCH  15  28
ATOM     28  O   UNL     1      -1.963  11.308  19.696  0.00  0.00    +0.000 OA
BRANCH  28  29
ATOM     29  C   UNL     1      -1.462  11.485  18.380  0.00  0.00    +0.000 C 
BRANCH  29  30
ATOM     30  C   UNL     1      -2.665  11.465  17.444  0.00  0.00    +0.000 C 
BRANCH  30  31
ATOM     31  O   UNL     1      -2.259  11.505  16.084  0.00  0.00    +0.000 OA
ATOM     32  H   UNL     1      -1.795  10.672  15.894  0.00  0.00    +0.000 HD
ENDBRANCH  30  31
ENDBRANCH  29  30
ENDBRANCH  28  29
ENDBRANCH  15  28
TORSDOF 5
ENDMDL
MODEL 8
REMARK VINA RESULT:      -5.4      3.966      7.258
REMARK  Name = 
REMARK  5 active torsions:
REMARK  status: ('A' for Active; 'I' for Inactive)
REMARK    1  A    between atoms: C_2  and  C_3
REMARK    2  A    between atoms: C_17  and  O_18
REMARK    3  A    between atoms: O_18  and  C_19
REMARK    4  A    between atoms: C_19  and  C_20
REMARK    5  A    between atoms: C_20  and  O_21
REMARK                            x       y       z     vdW  Elec       q    Type
REMARK                         _______ _______ _______ _____ _____    ______ ____
ROOT
ATOM      1  C   UNL     1      -2.031  13.757  23.267  0.00  0.00    +0.000 A 
ATOM      2  N   UNL     1      -3.119  14.249  22.615  0.00  0.00    +0.000 NA
ATOM      3  C   UNL     1      -3.341  13.730  21.366  0.00  0.00    +0.000 A 
ATOM      4  C   UNL     1      -2.402  12.980  20.672  0.00  0.00    +0.000 A 
ATOM      5  N   UNL     1      -1.441  12.412  21.396  0.00  0.00    +0.000 NA
ATOM      6  C   UNL     1      -1.370  12.674  22.719  0.00  0.00    +0.000 A 
ATOM      7  O   UNL     1      -1.078  11.613  23.564  0.00  0.00    +0.000 OA
ATOM      8  C   UNL     1      -1.039  10.266  23.021  0.00  0.00    +0.000 C 
ATOM      9  C   UNL     1       0.402   9.829  22.697  0.00  0.00    +0.000 C 
ATOM     10  C   UNL     1       0.807   9.796  21.202  0.00  0.00    +0.000 C 
ATOM     11  C   UNL     1       0.762  11.214  20.671  0.00  0.00    +0.000 C 
ATOM     12  O   UNL     1       1.504  11.667  19.555  0.00  0.00    +0.000 OA
ATOM     13  C   UNL     1       1.138  13.007  19.382  0.00  0.00    +0.000 A 
ATOM     14  C   UNL     1       1.771  13.996  20.142  0.00  0.00    +0.000 A 
ATOM     15  C   UNL     1       1.514  15.345  19.882  0.00  0.00    +0.000 A 
ATOM     16  C   UNL     1       0.738  15.691  18.766  0.00  0.00    +0.000 A 
ATOM     17 CL   UNL     1       0.569  17.340  18.267  0.00  0.00    +0.000 Cl
ATOM     18  C   UNL     1       0.058  14.713  18.046  0.00  0.00    +0.000 A 
ATOM     19  C   UNL     1       0.152  13.385  18.461  0.00  0.00    +0.000 A 
ATOM     20  N   UNL     1      -0.713  12.429  17.912  0.00  0.00    +0.000 N 
ATOM     21  C   UNL     1      -1.970  12.106  18.296  0.00  0.00    +0.000 C 
ATOM     22  O   UNL     1      -2.655  11.491  17.460  0.00  0.00    +0.000 OA
ATOM     23  N   UNL     1      -2.658  12.576  19.358  0.00  0.00    +0.000 N 
ATOM     24  H   UNL     1      -0.706  12.410  16.894  0.00  0.00    +0.000 HD
ATOM     25  H   UNL     1      -3.635  12.362  19.210  0.00  0.00    +0.000 HD
ENDROOT
BRANCH   1  27
ATOM     26  N   UNL     1      -0.853  15.253  25.086  0.00  0.00    +0.000 NA
ATOM     27  C   UNL     1      -1.401  14.576  24.312  0.00  0.00    +0.000 C 
ENDBRANCH   1  27
BRANCH  15  28
ATOM     28  O   UNL     1       1.936  16.388  20.653  0.00  0.00    +0.000 OA
BRANCH  28  29
ATOM     29  C   UNL     1       3.249  16.351  21.193  0.00  0.00    +0.000 C 
BRANCH  29  30
ATOM     30  C   UNL     1       4.183  16.891  20.117  0.00  0.00    +0.000 C 
BRANCH  30  31
ATOM     31  O   UNL     1       5.050  15.876  19.632  0.00  0.00    +0.000 OA
ATOM     32  H   UNL     1       5.298  15.320  20.389  0.00  0.00    +0.000 HD
ENDBRANCH  30  31
ENDBRANCH  29  30
ENDBRANCH  28  29
ENDBRANCH  15  28
TORSDOF 5
ENDMDL
MODEL 9
REMARK VINA RESULT:      -5.4      1.209      1.286
REMARK  Name = 
REMARK  5 active torsions:
REMARK  status: ('A' for Active; 'I' for Inactive)
REMARK    1  A    between atoms: C_2  and  C_3
REMARK    2  A    between atoms: C_17  and  O_18
REMARK    3  A    between atoms: O_18  and  C_19
REMARK    4  A    between atoms: C_19  and  C_20
REMARK    5  A    between atoms: C_20  and  O_21
REMARK                            x       y       z     vdW  Elec       q    Type
REMARK                         _______ _______ _______ _____ _____    ______ ____
ROOT
ATOM      1  C   UNL     1      -5.361  11.120  17.759  0.00  0.00    +0.000 A 
ATOM      2  N   UNL     1      -5.720  10.050  18.519  0.00  0.00    +0.000 NA
ATOM      3  C   UNL     1      -6.284  10.352  19.731  0.00  0.00    +0.000 A 
ATOM      4  C   UNL     1      -6.246  11.620  20.297  0.00  0.00    +0.000 A 
ATOM      5  N   UNL     1      -6.027  12.636  19.467  0.00  0.00    +0.000 NA
ATOM      6  C   UNL     1      -5.754  12.380  18.169  0.00  0.00    +0.000 A 
ATOM      7  O   UNL     1      -6.344  13.203  17.220  0.00  0.00    +0.000 OA
ATOM      8  C   UNL     1      -7.344  14.168  17.643  0.00  0.00    +0.000 C 
ATOM      9  C   UNL     1      -6.732  15.569  17.835  0.00  0.00    +0.000 C 
ATOM     10  C   UNL     1      -6.522  16.050  19.293  0.00  0.00    +0.000 C 
ATOM     11  C   UNL     1      -5.496  15.146  19.943  0.00  0.00    +0.000 C 
ATOM     12  O   UNL     1      -4.690  15.525  21.044  0.00  0.00    +0.000 OA
ATOM     13  C   UNL     1      -3.925  14.394  21.353  0.00  0.00    +0.000 A 
ATOM     14  C   UNL     1      -2.748  14.145  20.640  0.00  0.00    +0.000 A 
ATOM     15  C   UNL     1      -1.907  13.099  21.030  0.00  0.00    +0.000 A 
ATOM     16  C   UNL     1      -2.180  12.407  22.219  0.00  0.00    +0.000 A 
ATOM     17 CL   UNL     1      -1.060  11.257  22.865  0.00  0.00    +0.000 Cl
ATOM     18  C   UNL     1      -3.380  12.610  22.895  0.00  0.00    +0.000 A 
ATOM     19  C   UNL     1      -4.309  13.503  22.364  0.00  0.00    +0.000 A 
ATOM     20  N   UNL     1      -5.609  13.536  22.886  0.00  0.00    +0.000 N 
ATOM     21  C   UNL     1      -6.671  12.762  22.558  0.00  0.00    +0.000 C 
ATOM     22  O   UNL     1      -7.602  12.736  23.381  0.00  0.00    +0.000 OA
ATOM     23  N   UNL     1      -6.746  11.829  21.586  0.00  0.00    +0.000 N 
ATOM     24  H   UNL     1      -5.641  13.659  23.895  0.00  0.00    +0.000 HD
ATOM     25  H   UNL     1      -7.554  11.250  21.779  0.00  0.00    +0.000 HD
ENDROOT
BRANCH   1  27
ATOM     26  N   UNL     1      -3.467  10.739  15.970  0.00  0.00    +0.000 NA
ATOM     27  C   UNL     1      -4.309  10.949  16.749  0.00  0.00    +0.000 C 
ENDBRANCH   1  27
BRANCH  15  28
ATOM     28  O   UNL     1      -0.827  12.655  20.324  0.00  0.00    +0.000 OA
BRANCH  28  29
ATOM     29  C   UNL     1      -1.024  12.182  19.000  0.00  0.00    +0.000 C 
BRANCH  29  30
ATOM     30  C   UNL     1      -0.355  10.815  18.917  0.00  0.00    +0.000 C 
BRANCH  30  31
ATOM     31  O   UNL     1       0.943  10.911  18.349  0.00  0.00    +0.000 OA
ATOM     32  H   UNL     1       1.446  10.132  18.640  0.00  0.00    +0.000 HD
ENDBRANCH  30  31
ENDBRANCH  29  30
ENDBRANCH  28  29
ENDBRANCH  15  28
TORSDOF 5
ENDMDL
