MODEL 1
REMARK VINA RESULT:      -6.2      0.000      0.000
REMARK  Name = 
REMARK  8 active torsions:
REMARK  status: ('A' for Active; 'I' for Inactive)
REMARK    1  A    between atoms: C_1  and  C_2
REMARK    2  A    between atoms: C_6  and  O_7
REMARK    3  A    between atoms: C_8  and  C_9
REMARK    4  A    between atoms: C_9  and  N_10
REMARK    5  A    between atoms: N_10  and  C_11
REMARK    6  A    between atoms: C_11  and  C_12
REMARK    7  A    between atoms: C_11  and  C_13
REMARK    8  A    between atoms: N_14  and  C_15
REMARK                            x       y       z     vdW  Elec       q    Type
REMARK                         _______ _______ _______ _____ _____    ______ ____
ROOT
ATOM      1  C   UNL     1       1.483   6.572  20.515  0.00  0.00    +0.000 C 
ATOM      2  C   UNL     1       2.352   5.348  20.317  0.00  0.00    +0.000 A 
ATOM      3  C   UNL     1       2.240   4.362  21.220  0.00  0.00    +0.000 A 
ATOM      4  C   UNL     1       3.075   3.165  21.070  0.00  0.00    +0.000 A 
ATOM      5  O   UNL     1       2.996   2.216  21.848  0.00  0.00    +0.000 OA
ATOM      6  C   UNL     1       4.047   3.120  19.949  0.00  0.00    +0.000 A 
ATOM      7  C   UNL     1       4.106   4.154  19.081  0.00  0.00    +0.000 A 
ATOM      8  N   UNL     1       3.234   5.281  19.213  0.00  0.00    +0.000 N 
ATOM      9  C   UNL     1       3.274   6.394  18.245  0.00  0.00    +0.000 C 
ENDROOT
BRANCH   6  10
ATOM     10  O   UNL     1       4.831   1.984  19.857  0.00  0.00    +0.000 OA
ATOM     11  H   UNL     1       5.539   2.122  20.523  0.00  0.00    +0.000 HD
ENDBRANCH   6  10
BRANCH   7  12
ATOM     12  C   UNL     1       5.090   4.048  17.905  0.00  0.00    +0.000 C 
BRANCH  12  13
ATOM     13  N   UNL     1       6.503   4.037  18.318  0.00  0.00    +0.000 NA
ATOM     14  H   UNL     1       6.810   3.063  18.306  0.00  0.00    +0.000 HD
BRANCH  13  15
ATOM     15  C   UNL     1       7.374   4.803  17.407  0.00  0.00    +0.000 C 
ATOM     16  C   UNL     1       6.970   4.689  15.934  0.00  0.00    +0.000 C 
ATOM     17  C   UNL     1       7.321   6.274  17.829  0.00  0.00    +0.000 C 
ENDBRANCH  13  15
ENDBRANCH  12  13
ENDBRANCH   7  12
TORSDOF 4
ENDMDL
MODEL 2
REMARK VINA RESULT:      -6.0      0.643      1.048
REMARK  Name = 
REMARK  8 active torsions:
REMARK  status: ('A' for Active; 'I' for Inactive)
REMARK    1  A    between atoms: C_1  and  C_2
REMARK    2  A    between atoms: C_6  and  O_7
REMARK    3  A    between atoms: C_8  and  C_9
REMARK    4  A    between atoms: C_9  and  N_10
REMARK    5  A    between atoms: N_10  and  C_11
REMARK    6  A    between atoms: C_11  and  C_12
REMARK    7  A    between atoms: C_11  and  C_13
REMARK    8  A    between atoms: N_14  and  C_15
REMARK                            x       y       z     vdW  Elec       q    Type
REMARK                         _______ _______ _______ _____ _____    ______ ____
ROOT
ATOM      1  C   UNL     1       1.377   6.458  20.619  0.00  0.00    +0.000 C 
ATOM      2  C   UNL     1       2.266   5.253  20.392  0.00  0.00    +0.000 A 
ATOM      3  C   UNL     1       2.193   4.257  21.288  0.00  0.00    +0.000 A 
ATOM      4  C   UNL     1       3.049   3.079  21.111  0.00  0.00    +0.000 A 
ATOM      5  O   UNL     1       3.005   2.122  21.881  0.00  0.00    +0.000 OA
ATOM      6  C   UNL     1       3.998   3.063  19.969  0.00  0.00    +0.000 A 
ATOM      7  C   UNL     1       4.017   4.105  19.109  0.00  0.00    +0.000 A 
ATOM      8  N   UNL     1       3.126   5.213  19.269  0.00  0.00    +0.000 N 
ATOM      9  C   UNL     1       3.123   6.335  18.310  0.00  0.00    +0.000 C 
ENDROOT
BRANCH   6  10
ATOM     10  O   UNL     1       4.802   1.944  19.850  0.00  0.00    +0.000 OA
ATOM     11  H   UNL     1       5.618   2.177  20.344  0.00  0.00    +0.000 HD
ENDBRANCH   6  10
BRANCH   7  12
ATOM     12  C   UNL     1       4.979   4.030  17.912  0.00  0.00    +0.000 C 
BRANCH  12  13
ATOM     13  N   UNL     1       6.395   4.197  18.281  0.00  0.00    +0.000 NA
ATOM     14  H   UNL     1       6.949   3.770  17.537  0.00  0.00    +0.000 HD
BRANCH  13  15
ATOM     15  C   UNL     1       6.795   5.612  18.396  0.00  0.00    +0.000 C 
ATOM     16  C   UNL     1       8.041   5.828  19.258  0.00  0.00    +0.000 C 
ATOM     17  C   UNL     1       7.063   6.143  16.985  0.00  0.00    +0.000 C 
ENDBRANCH  13  15
ENDBRANCH  12  13
ENDBRANCH   7  12
TORSDOF 4
ENDMDL
MODEL 3
REMARK VINA RESULT:      -6.0      0.920      1.034
REMARK  Name = 
REMARK  8 active torsions:
REMARK  status: ('A' for Active; 'I' for Inactive)
REMARK    1  A    between atoms: C_1  and  C_2
REMARK    2  A    between atoms: C_6  and  O_7
REMARK    3  A    between atoms: C_8  and  C_9
REMARK    4  A    between atoms: C_9  and  N_10
REMARK    5  A    between atoms: N_10  and  C_11
REMARK    6  A    between atoms: C_11  and  C_12
REMARK    7  A    between atoms: C_11  and  C_13
REMARK    8  A    between atoms: N_14  and  C_15
REMARK                            x       y       z     vdW  Elec       q    Type
REMARK                         _______ _______ _______ _____ _____    ______ ____
ROOT
ATOM      1  C   UNL     1       1.964   7.861  19.557  0.00  0.00    +0.000 C 
ATOM      2  C   UNL     1       2.451   6.431  19.655  0.00  0.00    +0.000 A 
ATOM      3  C   UNL     1       1.924   5.666  20.623  0.00  0.00    +0.000 A 
ATOM      4  C   UNL     1       2.380   4.279  20.759  0.00  0.00    +0.000 A 
ATOM      5  O   UNL     1       1.913   3.521  21.607  0.00  0.00    +0.000 OA
ATOM      6  C   UNL     1       3.447   3.795  19.846  0.00  0.00    +0.000 A 
ATOM      7  C   UNL     1       3.933   4.625  18.897  0.00  0.00    +0.000 A 
ATOM      8  N   UNL     1       3.424   5.953  18.744  0.00  0.00    +0.000 N 
ATOM      9  C   UNL     1       3.930   6.848  17.686  0.00  0.00    +0.000 C 
ENDROOT
BRANCH   6  10
ATOM     10  O   UNL     1       3.865   2.488  20.023  0.00  0.00    +0.000 OA
ATOM     11  H   UNL     1       3.617   2.038  19.186  0.00  0.00    +0.000 HD
ENDBRANCH   6  10
BRANCH   7  12
ATOM     12  C   UNL     1       5.001   4.073  17.940  0.00  0.00    +0.000 C 
BRANCH  12  13
ATOM     13  N   UNL     1       6.342   3.981  18.541  0.00  0.00    +0.000 NA
ATOM     14  H   UNL     1       6.586   2.990  18.577  0.00  0.00    +0.000 HD
BRANCH  13  15
ATOM     15  C   UNL     1       7.374   4.679  17.753  0.00  0.00    +0.000 C 
ATOM     16  C   UNL     1       7.024   4.813  16.268  0.00  0.00    +0.000 C 
ATOM     17  C   UNL     1       7.561   6.076  18.352  0.00  0.00    +0.000 C 
ENDBRANCH  13  15
ENDBRANCH  12  13
ENDBRANCH   7  12
TORSDOF 4
ENDMDL
MODEL 4
REMARK VINA RESULT:      -5.9      2.307      2.948
REMARK  Name = 
REMARK  8 active torsions:
REMARK  status: ('A' for Active; 'I' for Inactive)
REMARK    1  A    between atoms: C_1  and  C_2
REMARK    2  A    between atoms: C_6  and  O_7
REMARK    3  A    between atoms: C_8  and  C_9
REMARK    4  A    between atoms: C_9  and  N_10
REMARK    5  A    between atoms: N_10  and  C_11
REMARK    6  A    between atoms: C_11  and  C_12
REMARK    7  A    between atoms: C_11  and  C_13
REMARK    8  A    between atoms: N_14  and  C_15
REMARK                            x       y       z     vdW  Elec       q    Type
REMARK                         _______ _______ _______ _____ _____    ______ ____
ROOT
ATOM      1  C   UNL     1       1.323   2.753  20.932  0.00  0.00    +0.000 C 
ATOM      2  C   UNL     1       2.032   3.791  20.090  0.00  0.00    +0.000 A 
ATOM      3  C   UNL     1       1.811   5.081  20.387  0.00  0.00    +0.000 A 
ATOM      4  C   UNL     1       2.469   6.118  19.585  0.00  0.00    +0.000 A 
ATOM      5  O   UNL     1       2.328   7.315  19.827  0.00  0.00    +0.000 OA
ATOM      6  C   UNL     1       3.317   5.692  18.443  0.00  0.00    +0.000 A 
ATOM      7  C   UNL     1       3.491   4.374  18.202  0.00  0.00    +0.000 A 
ATOM      8  N   UNL     1       2.889   3.383  19.040  0.00  0.00    +0.000 N 
ATOM      9  C   UNL     1       3.107   1.943  18.798  0.00  0.00    +0.000 C 
ENDROOT
BRANCH   6  10
ATOM     10  O   UNL     1       3.901   6.701  17.698  0.00  0.00    +0.000 OA
ATOM     11  H   UNL     1       3.393   7.506  17.937  0.00  0.00    +0.000 HD
ENDBRANCH   6  10
BRANCH   7  12
ATOM     12  C   UNL     1       4.415   3.973  17.041  0.00  0.00    +0.000 C 
BRANCH  12  13
ATOM     13  N   UNL     1       5.848   4.082  17.363  0.00  0.00    +0.000 NA
ATOM     14  H   UNL     1       6.211   3.130  17.436  0.00  0.00    +0.000 HD
BRANCH  13  15
ATOM     15  C   UNL     1       6.618   4.787  16.322  0.00  0.00    +0.000 C 
ATOM     16  C   UNL     1       5.794   5.132  15.078  0.00  0.00    +0.000 C 
ATOM     17  C   UNL     1       7.167   6.079  16.934  0.00  0.00    +0.000 C 
ENDBRANCH  13  15
ENDBRANCH  12  13
ENDBRANCH   7  12
TORSDOF 4
ENDMDL
MODEL 5
REMARK VINA RESULT:      -5.8      2.375      3.124
REMARK  Name = 
REMARK  8 active torsions:
REMARK  status: ('A' for Active; 'I' for Inactive)
REMARK    1  A    between atoms: C_1  and  C_2
REMARK    2  A    between atoms: C_6  and  O_7
REMARK    3  A    between atoms: C_8  and  C_9
REMARK    4  A    between atoms: C_9  and  N_10
REMARK    5  A    between atoms: N_10  and  C_11
REMARK    6  A    between atoms: C_11  and  C_12
REMARK    7  A    between atoms: C_11  and  C_13
REMARK    8  A    between atoms: N_14  and  C_15
REMARK                            x       y       z     vdW  Elec       q    Type
REMARK                         _______ _______ _______ _____ _____    ______ ____
ROOT
ATOM      1  C   UNL     1       1.208   2.872  21.259  0.00  0.00    +0.000 C 
ATOM      2  C   UNL     1       1.859   3.863  20.318  0.00  0.00    +0.000 A 
ATOM      3  C   UNL     1       1.734   5.166  20.614  0.00  0.00    +0.000 A 
ATOM      4  C   UNL     1       2.339   6.159  19.718  0.00  0.00    +0.000 A 
ATOM      5  O   UNL     1       2.284   7.364  19.952  0.00  0.00    +0.000 OA
ATOM      6  C   UNL     1       3.023   5.676  18.492  0.00  0.00    +0.000 A 
ATOM      7  C   UNL     1       3.105   4.348  18.258  0.00  0.00    +0.000 A 
ATOM      8  N   UNL     1       2.563   3.399  19.182  0.00  0.00    +0.000 N 
ATOM      9  C   UNL     1       2.683   1.947  18.944  0.00  0.00    +0.000 C 
ENDROOT
BRANCH   6  10
ATOM     10  O   UNL     1       3.560   6.645  17.663  0.00  0.00    +0.000 OA
ATOM     11  H   UNL     1       3.581   7.455  18.217  0.00  0.00    +0.000 HD
ENDBRANCH   6  10
BRANCH   7  12
ATOM     12  C   UNL     1       3.863   3.886  17.003  0.00  0.00    +0.000 C 
BRANCH  12  13
ATOM     13  N   UNL     1       5.279   3.567  17.254  0.00  0.00    +0.000 NA
ATOM     14  H   UNL     1       5.452   2.644  16.853  0.00  0.00    +0.000 HD
BRANCH  13  15
ATOM     15  C   UNL     1       6.205   4.523  16.618  0.00  0.00    +0.000 C 
ATOM     16  C   UNL     1       7.571   4.602  17.305  0.00  0.00    +0.000 C 
ATOM     17  C   UNL     1       6.400   4.094  15.161  0.00  0.00    +0.000 C 
ENDBRANCH  13  15
ENDBRANCH  12  13
ENDBRANCH   7  12
TORSDOF 4
ENDMDL
MODEL 6
REMARK VINA RESULT:      -5.8      2.288      3.161
REMARK  Name = 
REMARK  8 active torsions:
REMARK  status: ('A' for Active; 'I' for Inactive)
REMARK    1  A    between atoms: C_1  and  C_2
REMARK    2  A    between atoms: C_6  and  O_7
REMARK    3  A    between atoms: C_8  and  C_9
REMARK    4  A    between atoms: C_9  and  N_10
REMARK    5  A    between atoms: N_10  and  C_11
REMARK    6  A    between atoms: C_11  and  C_12
REMARK    7  A    between atoms: C_11  and  C_13
REMARK    8  A    between atoms: N_14  and  C_15
REMARK                            x       y       z     vdW  Elec       q    Type
REMARK                         _______ _______ _______ _____ _____    ______ ____
ROOT
ATOM      1  C   UNL     1       1.841   2.964  21.541  0.00  0.00    +0.000 C 
ATOM      2  C   UNL     1       2.496   3.976  20.626  0.00  0.00    +0.000 A 
ATOM      3  C   UNL     1       1.935   5.192  20.550  0.00  0.00    +0.000 A 
ATOM      4  C   UNL     1       2.533   6.196  19.663  0.00  0.00    +0.000 A 
ATOM      5  O   UNL     1       2.082   7.336  19.574  0.00  0.00    +0.000 OA
ATOM      6  C   UNL     1       3.710   5.804  18.847  0.00  0.00    +0.000 A 
ATOM      7  C   UNL     1       4.218   4.558  18.974  0.00  0.00    +0.000 A 
ATOM      8  N   UNL     1       3.655   3.619  19.895  0.00  0.00    +0.000 N 
ATOM      9  C   UNL     1       4.231   2.270  20.059  0.00  0.00    +0.000 C 
ENDROOT
BRANCH   6  10
ATOM     10  O   UNL     1       4.230   6.772  18.007  0.00  0.00    +0.000 OA
ATOM     11  H   UNL     1       5.202   6.702  18.126  0.00  0.00    +0.000 HD
ENDBRANCH   6  10
BRANCH   7  12
ATOM     12  C   UNL     1       5.466   4.205  18.149  0.00  0.00    +0.000 C 
BRANCH  12  13
ATOM     13  N   UNL     1       5.163   3.792  16.768  0.00  0.00    +0.000 NA
ATOM     14  H   UNL     1       4.147   3.809  16.667  0.00  0.00    +0.000 HD
BRANCH  13  15
ATOM     15  C   UNL     1       5.740   4.698  15.757  0.00  0.00    +0.000 C 
ATOM     16  C   UNL     1       6.987   5.442  16.242  0.00  0.00    +0.000 C 
ATOM     17  C   UNL     1       6.100   3.863  14.526  0.00  0.00    +0.000 C 
ENDBRANCH  13  15
ENDBRANCH  12  13
ENDBRANCH   7  12
TORSDOF 4
ENDMDL
MODEL 7
REMARK VINA RESULT:      -5.7      1.210      1.498
REMARK  Name = 
REMARK  8 active torsions:
REMARK  status: ('A' for Active; 'I' for Inactive)
REMARK    1  A    between atoms: C_1  and  C_2
REMARK    2  A    between atoms: C_6  and  O_7
REMARK    3  A    between atoms: C_8  and  C_9
REMARK    4  A    between atoms: C_9  and  N_10
REMARK    5  A    between atoms: N_10  and  C_11
REMARK    6  A    between atoms: C_11  and  C_12
REMARK    7  A    between atoms: C_11  and  C_13
REMARK    8  A    between atoms: N_14  and  C_15
REMARK                            x       y       z     vdW  Elec       q    Type
REMARK                         _______ _______ _______ _____ _____    ______ ____
ROOT
ATOM      1  C   UNL     1       1.797   7.029  20.574  0.00  0.00    +0.000 C 
ATOM      2  C   UNL     1       2.119   5.645  20.053  0.00  0.00    +0.000 A 
ATOM      3  C   UNL     1       1.725   4.600  20.797  0.00  0.00    +0.000 A 
ATOM      4  C   UNL     1       2.030   3.242  20.333  0.00  0.00    +0.000 A 
ATOM      5  O   UNL     1       1.670   2.246  20.956  0.00  0.00    +0.000 OA
ATOM      6  C   UNL     1       2.809   3.085  19.078  0.00  0.00    +0.000 A 
ATOM      7  C   UNL     1       3.175   4.185  18.384  0.00  0.00    +0.000 A 
ATOM      8  N   UNL     1       2.807   5.495  18.825  0.00  0.00    +0.000 N 
ATOM      9  C   UNL     1       3.177   6.694  18.048  0.00  0.00    +0.000 C 
ENDROOT
BRANCH   6  10
ATOM     10  O   UNL     1       3.095   1.789  18.688  0.00  0.00    +0.000 OA
ATOM     11  H   UNL     1       3.711   1.894  17.930  0.00  0.00    +0.000 HD
ENDBRANCH   6  10
BRANCH   7  12
ATOM     12  C   UNL     1       3.936   3.979  17.065  0.00  0.00    +0.000 C 
BRANCH  12  13
ATOM     13  N   UNL     1       5.340   3.575  17.251  0.00  0.00    +0.000 NA
ATOM     14  H   UNL     1       5.491   2.746  16.673  0.00  0.00    +0.000 HD
BRANCH  13  15
ATOM     15  C   UNL     1       6.298   4.612  16.824  0.00  0.00    +0.000 C 
ATOM     16  C   UNL     1       7.581   4.642  17.659  0.00  0.00    +0.000 C 
ATOM     17  C   UNL     1       6.660   4.346  15.360  0.00  0.00    +0.000 C 
ENDBRANCH  13  15
ENDBRANCH  12  13
ENDBRANCH   7  12
TORSDOF 4
ENDMDL
MODEL 8
REMARK VINA RESULT:      -5.6      1.414      2.066
REMARK  Name = 
REMARK  8 active torsions:
REMARK  status: ('A' for Active; 'I' for Inactive)
REMARK    1  A    between atoms: C_1  and  C_2
REMARK    2  A    between atoms: C_6  and  O_7
REMARK    3  A    between atoms: C_8  and  C_9
REMARK    4  A    between atoms: C_9  and  N_10
REMARK    5  A    between atoms: N_10  and  C_11
REMARK    6  A    between atoms: C_11  and  C_12
REMARK    7  A    between atoms: C_11  and  C_13
REMARK    8  A    between atoms: N_14  and  C_15
REMARK                            x       y       z     vdW  Elec       q    Type
REMARK                         _______ _______ _______ _____ _____    ______ ____
ROOT
ATOM      1  C   UNL     1       2.242   7.481  18.054  0.00  0.00    +0.000 C 
ATOM      2  C   UNL     1       2.991   6.197  18.338  0.00  0.00    +0.000 A 
ATOM      3  C   UNL     1       2.493   5.391  19.288  0.00  0.00    +0.000 A 
ATOM      4  C   UNL     1       3.198   4.144  19.603  0.00  0.00    +0.000 A 
ATOM      5  O   UNL     1       2.774   3.351  20.442  0.00  0.00    +0.000 OA
ATOM      6  C   UNL     1       4.465   3.851  18.886  0.00  0.00    +0.000 A 
ATOM      7  C   UNL     1       4.908   4.713  17.944  0.00  0.00    +0.000 A 
ATOM      8  N   UNL     1       4.166   5.890  17.611  0.00  0.00    +0.000 N 
ATOM      9  C   UNL     1       4.631   6.813  16.558  0.00  0.00    +0.000 C 
ENDROOT
BRANCH   6  10
ATOM     10  O   UNL     1       5.110   2.676  19.228  0.00  0.00    +0.000 OA
ATOM     11  H   UNL     1       5.065   2.127  18.415  0.00  0.00    +0.000 HD
ENDBRANCH   6  10
BRANCH   7  12
ATOM     12  C   UNL     1       6.197   4.350  17.190  0.00  0.00    +0.000 C 
BRANCH  12  13
ATOM     13  N   UNL     1       7.414   4.473  18.009  0.00  0.00    +0.000 NA
ATOM     14  H   UNL     1       8.199   4.577  17.364  0.00  0.00    +0.000 HD
BRANCH  13  15
ATOM     15  C   UNL     1       7.392   5.651  18.897  0.00  0.00    +0.000 C 
ATOM     16  C   UNL     1       8.314   5.518  20.113  0.00  0.00    +0.000 C 
ATOM     17  C   UNL     1       7.819   6.870  18.075  0.00  0.00    +0.000 C 
ENDBRANCH  13  15
ENDBRANCH  12  13
ENDBRANCH   7  12
TORSDOF 4
ENDMDL
MODEL 9
REMARK VINA RESULT:      -5.6      2.044      2.325
REMARK  Name = 
REMARK  8 active torsions:
REMARK  status: ('A' for Active; 'I' for Inactive)
REMARK    1  A    between atoms: C_1  and  C_2
REMARK    2  A    between atoms: C_6  and  O_7
REMARK    3  A    between atoms: C_8  and  C_9
REMARK    4  A    between atoms: C_9  and  N_10
REMARK    5  A    between atoms: N_10  and  C_11
REMARK    6  A    between atoms: C_11  and  C_12
REMARK    7  A    between atoms: C_11  and  C_13
REMARK    8  A    between atoms: N_14  and  C_15
REMARK                            x       y       z     vdW  Elec       q    Type
REMARK                         _______ _______ _______ _____ _____    ______ ____
ROOT
ATOM      1  C   UNL     1       1.728   6.174  20.843  0.00  0.00    +0.000 C 
ATOM      2  C   UNL     1       1.943   4.981  19.936  0.00  0.00    +0.000 A 
ATOM      3  C   UNL     1       0.952   4.082  19.856  0.00  0.00    +0.000 A 
ATOM      4  C   UNL     1       1.128   2.905  18.998  0.00  0.00    +0.000 A 
ATOM      5  O   UNL     1       0.244   2.061  18.861  0.00  0.00    +0.000 OA
ATOM      6  C   UNL     1       2.424   2.736  18.291  0.00  0.00    +0.000 A 
ATOM      7  C   UNL     1       3.378   3.683  18.424  0.00  0.00    +0.000 A 
ATOM      8  N   UNL     1       3.155   4.854  19.215  0.00  0.00    +0.000 N 
ATOM      9  C   UNL     1       4.185   5.905  19.332  0.00  0.00    +0.000 C 
ENDROOT
BRANCH   6  10
ATOM     10  O   UNL     1       2.558   1.602  17.511  0.00  0.00    +0.000 OA
ATOM     11  H   UNL     1       1.684   1.502  17.074  0.00  0.00    +0.000 HD
ENDBRANCH   6  10
BRANCH   7  12
ATOM     12  C   UNL     1       4.686   3.497  17.638  0.00  0.00    +0.000 C 
BRANCH  12  13
ATOM     13  N   UNL     1       4.601   3.944  16.237  0.00  0.00    +0.000 NA
ATOM     14  H   UNL     1       3.826   4.606  16.181  0.00  0.00    +0.000 HD
BRANCH  13  15
ATOM     15  C   UNL     1       5.824   4.630  15.777  0.00  0.00    +0.000 C 
ATOM     16  C   UNL     1       6.990   4.530  16.765  0.00  0.00    +0.000 C 
ATOM     17  C   UNL     1       6.242   4.005  14.443  0.00  0.00    +0.000 C 
ENDBRANCH  13  15
ENDBRANCH  12  13
ENDBRANCH   7  12
TORSDOF 4
ENDMDL
