MODEL 1
REMARK VINA RESULT:      -6.5      0.000      0.000
REMARK  Name = 
REMARK  5 active torsions:
REMARK  status: ('A' for Active; 'I' for Inactive)
REMARK    1  A    between atoms: C_1  and  O_2
REMARK    2  A    between atoms: O_2  and  C_3
REMARK    3  A    between atoms: C_5  and  C_6
REMARK    4  A    between atoms: C_19  and  C_21
REMARK    5  A    between atoms: C_31  and  C_32
REMARK                            x       y       z     vdW  Elec       q    Type
REMARK                         _______ _______ _______ _____ _____    ______ ____
ROOT
ATOM      1  C   UNL     1       7.815  13.933  22.290  0.00  0.00    +0.000 C 
ATOM      2  C   UNL     1       8.112  14.822  23.553  0.00  0.00    +0.000 A 
ATOM      3  C   UNL     1       7.425  15.985  23.944  0.00  0.00    +0.000 A 
ATOM      4  C   UNL     1       7.109  16.172  25.314  0.00  0.00    +0.000 A 
ATOM      5  C   UNL     1       7.626  15.330  26.312  0.00  0.00    +0.000 A 
ATOM      6  C   UNL     1       8.407  14.245  25.958  0.00  0.00    +0.000 A 
ATOM      7  C   UNL     1       8.447  13.939  24.603  0.00  0.00    +0.000 A 
ATOM      8  C   UNL     1       7.796  12.660  24.217  0.00  0.00    +0.000 C 
ATOM      9  O   UNL     1       7.781  11.653  24.896  0.00  0.00    +0.000 OA
ATOM     10  N   UNL     1       7.085  12.904  23.033  0.00  0.00    +0.000 N 
ATOM     11  C   UNL     1       5.687  13.303  23.130  0.00  0.00    +0.000 C 
ATOM     12  C   UNL     1       5.474  14.228  21.933  0.00  0.00    +0.000 C 
ATOM     13  N   UNL     1       6.807  14.485  21.371  0.00  0.00    +0.000 N 
ATOM     14  C   UNL     1       6.855  14.945  20.055  0.00  0.00    +0.000 C 
ATOM     15  O   UNL     1       5.825  15.346  19.501  0.00  0.00    +0.000 OA
ENDROOT
BRANCH  14  16
ATOM     16  C   UNL     1       8.060  14.873  19.180  0.00  0.00    +0.000 A 
ATOM     17  C   UNL     1       8.301  13.846  18.261  0.00  0.00    +0.000 A 
ATOM     18  C   UNL     1       9.391  13.924  17.384  0.00  0.00    +0.000 A 
ATOM     19  C   UNL     1      10.282  14.988  17.476  0.00  0.00    +0.000 A 
ATOM     20  F   UNL     1      11.341  15.028  16.646  0.00  0.00    +0.000 F 
ATOM     21  C   UNL     1      10.115  15.953  18.464  0.00  0.00    +0.000 A 
ATOM     22  F   UNL     1      11.004  16.958  18.574  0.00  0.00    +0.000 F 
ATOM     23  C   UNL     1       9.010  15.909  19.308  0.00  0.00    +0.000 A 
ENDBRANCH  14  16
BRANCH   1  26
ATOM     24  C   UNL     1       9.731  11.284  20.231  0.00  0.00    +0.000 A 
ATOM     25  C   UNL     1       8.751  11.850  21.057  0.00  0.00    +0.000 A 
ATOM     26  C   UNL     1       8.956  13.102  21.662  0.00  0.00    +0.000 A 
ATOM     27  C   UNL     1      10.209  13.729  21.470  0.00  0.00    +0.000 A 
ATOM     28  C   UNL     1      11.156  13.184  20.632  0.00  0.00    +0.000 A 
ATOM     29  C   UNL     1      10.909  11.995  19.951  0.00  0.00    +0.000 A 
ATOM     30  C   UNL     1      11.890  11.513  18.919  0.00  0.00    +0.000 C 
BRANCH  24  32
ATOM     31  C   UNL     1       8.717  10.032  18.489  0.00  0.00    +0.000 C 
ATOM     32  O   UNL     1       9.593  10.071  19.609  0.00  0.00    +0.000 OA
ENDBRANCH  24  32
ENDBRANCH   1  26
TORSDOF 3
ENDMDL
MODEL 2
REMARK VINA RESULT:      -6.5      2.324      5.076
REMARK  Name = 
REMARK  5 active torsions:
REMARK  status: ('A' for Active; 'I' for Inactive)
REMARK    1  A    between atoms: C_1  and  O_2
REMARK    2  A    between atoms: O_2  and  C_3
REMARK    3  A    between atoms: C_5  and  C_6
REMARK    4  A    between atoms: C_19  and  C_21
REMARK    5  A    between atoms: C_31  and  C_32
REMARK                            x       y       z     vdW  Elec       q    Type
REMARK                         _______ _______ _______ _____ _____    ______ ____
ROOT
ATOM      1  C   UNL     1       6.945  15.330  20.888  0.00  0.00    +0.000 C 
ATOM      2  C   UNL     1       5.444  14.890  20.724  0.00  0.00    +0.000 A 
ATOM      3  C   UNL     1       4.618  14.329  21.714  0.00  0.00    +0.000 A 
ATOM      4  C   UNL     1       3.276  14.772  21.826  0.00  0.00    +0.000 A 
ATOM      5  C   UNL     1       2.693  15.610  20.862  0.00  0.00    +0.000 A 
ATOM      6  C   UNL     1       3.456  16.079  19.808  0.00  0.00    +0.000 A 
ATOM      7  C   UNL     1       4.824  15.855  19.900  0.00  0.00    +0.000 A 
ATOM      8  C   UNL     1       5.659  17.071  20.082  0.00  0.00    +0.000 C 
ATOM      9  O   UNL     1       5.422  18.159  19.596  0.00  0.00    +0.000 OA
ATOM     10  N   UNL     1       6.641  16.755  21.032  0.00  0.00    +0.000 N 
ATOM     11  C   UNL     1       6.365  17.032  22.436  0.00  0.00    +0.000 C 
ATOM     12  C   UNL     1       7.107  15.930  23.191  0.00  0.00    +0.000 C 
ATOM     13  N   UNL     1       7.556  14.968  22.175  0.00  0.00    +0.000 N 
ATOM     14  C   UNL     1       8.593  14.109  22.540  0.00  0.00    +0.000 C 
ATOM     15  O   UNL     1       8.927  14.009  23.727  0.00  0.00    +0.000 OA
ENDROOT
BRANCH  14  16
ATOM     16  C   UNL     1       9.455  13.371  21.574  0.00  0.00    +0.000 A 
ATOM     17  C   UNL     1      10.669  13.855  21.077  0.00  0.00    +0.000 A 
ATOM     18  C   UNL     1      11.481  13.041  20.276  0.00  0.00    +0.000 A 
ATOM     19  C   UNL     1      11.046  11.771  19.911  0.00  0.00    +0.000 A 
ATOM     20  F   UNL     1      11.826  11.017  19.115  0.00  0.00    +0.000 F 
ATOM     21  C   UNL     1       9.789  11.326  20.305  0.00  0.00    +0.000 A 
ATOM     22  F   UNL     1       9.357  10.112  19.913  0.00  0.00    +0.000 F 
ATOM     23  C   UNL     1       8.997  12.109  21.138  0.00  0.00    +0.000 A 
ENDBRANCH  14  16
BRANCH   1  26
ATOM     24  C   UNL     1       9.921  16.044  18.528  0.00  0.00    +0.000 A 
ATOM     25  C   UNL     1       8.922  16.260  19.486  0.00  0.00    +0.000 A 
ATOM     26  C   UNL     1       7.871  15.341  19.650  0.00  0.00    +0.000 A 
ATOM     27  C   UNL     1       7.817  14.238  18.767  0.00  0.00    +0.000 A 
ATOM     28  C   UNL     1       8.818  14.012  17.849  0.00  0.00    +0.000 A 
ATOM     29  C   UNL     1       9.912  14.868  17.760  0.00  0.00    +0.000 A 
ATOM     30  C   UNL     1      11.067  14.506  16.867  0.00  0.00    +0.000 C 
BRANCH  24  32
ATOM     31  C   UNL     1      10.690  18.080  17.582  0.00  0.00    +0.000 C 
ATOM     32  O   UNL     1      10.973  16.897  18.320  0.00  0.00    +0.000 OA
ENDBRANCH  24  32
ENDBRANCH   1  26
TORSDOF 3
ENDMDL
MODEL 3
REMARK VINA RESULT:      -6.4      9.657     12.064
REMARK  Name = 
REMARK  5 active torsions:
REMARK  status: ('A' for Active; 'I' for Inactive)
REMARK    1  A    between atoms: C_1  and  O_2
REMARK    2  A    between atoms: O_2  and  C_3
REMARK    3  A    between atoms: C_5  and  C_6
REMARK    4  A    between atoms: C_19  and  C_21
REMARK    5  A    between atoms: C_31  and  C_32
REMARK                            x       y       z     vdW  Elec       q    Type
REMARK                         _______ _______ _______ _____ _____    ______ ____
ROOT
ATOM      1  C   UNL     1      -4.408  14.017  21.603  0.00  0.00    +0.000 C 
ATOM      2  C   UNL     1      -5.245  14.067  22.934  0.00  0.00    +0.000 A 
ATOM      3  C   UNL     1      -5.894  15.189  23.478  0.00  0.00    +0.000 A 
ATOM      4  C   UNL     1      -7.195  15.038  24.021  0.00  0.00    +0.000 A 
ATOM      5  C   UNL     1      -7.775  13.773  24.204  0.00  0.00    +0.000 A 
ATOM      6  C   UNL     1      -7.100  12.640  23.785  0.00  0.00    +0.000 A 
ATOM      7  C   UNL     1      -5.971  12.859  23.005  0.00  0.00    +0.000 A 
ATOM      8  C   UNL     1      -6.079  12.421  21.589  0.00  0.00    +0.000 C 
ATOM      9  O   UNL     1      -6.700  11.451  21.204  0.00  0.00    +0.000 OA
ATOM     10  N   UNL     1      -5.483  13.421  20.805  0.00  0.00    +0.000 N 
ATOM     11  C   UNL     1      -6.324  14.490  20.284  0.00  0.00    +0.000 C 
ATOM     12  C   UNL     1      -5.405  15.710  20.249  0.00  0.00    +0.000 C 
ATOM     13  N   UNL     1      -4.182  15.324  20.968  0.00  0.00    +0.000 N 
ATOM     14  C   UNL     1      -3.043  16.090  20.723  0.00  0.00    +0.000 C 
ATOM     15  O   UNL     1      -3.138  17.173  20.133  0.00  0.00    +0.000 OA
ENDROOT
BRANCH  14  16
ATOM     16  C   UNL     1      -1.649  15.642  21.006  0.00  0.00    +0.000 A 
ATOM     17  C   UNL     1      -1.087  15.588  22.285  0.00  0.00    +0.000 A 
ATOM     18  C   UNL     1       0.183  15.028  22.477  0.00  0.00    +0.000 A 
ATOM     19  C   UNL     1       0.922  14.592  21.381  0.00  0.00    +0.000 A 
ATOM     20  F   UNL     1       2.153  14.088  21.583  0.00  0.00    +0.000 F 
ATOM     21  C   UNL     1       0.419  14.749  20.095  0.00  0.00    +0.000 A 
ATOM     22  F   UNL     1       1.157  14.363  19.037  0.00  0.00    +0.000 F 
ATOM     23  C   UNL     1      -0.861  15.260  19.899  0.00  0.00    +0.000 A 
ENDBRANCH  14  16
BRANCH   1  26
ATOM     24  C   UNL     1      -1.587  11.841  20.109  0.00  0.00    +0.000 A 
ATOM     25  C   UNL     1      -2.793  12.547  20.200  0.00  0.00    +0.000 A 
ATOM     26  C   UNL     1      -3.292  12.959  21.448  0.00  0.00    +0.000 A 
ATOM     27  C   UNL     1      -2.578  12.569  22.605  0.00  0.00    +0.000 A 
ATOM     28  C   UNL     1      -1.377  11.903  22.508  0.00  0.00    +0.000 A 
ATOM     29  C   UNL     1      -0.833  11.588  21.266  0.00  0.00    +0.000 A 
ATOM     30  C   UNL     1       0.554  11.011  21.189  0.00  0.00    +0.000 C 
BRANCH  24  32
ATOM     31  C   UNL     1      -1.732  10.366  18.255  0.00  0.00    +0.000 C 
ATOM     32  O   UNL     1      -1.043  11.415  18.925  0.00  0.00    +0.000 OA
ENDBRANCH  24  32
ENDBRANCH   1  26
TORSDOF 3
ENDMDL
MODEL 4
REMARK VINA RESULT:      -6.3      1.079      1.168
REMARK  Name = 
REMARK  5 active torsions:
REMARK  status: ('A' for Active; 'I' for Inactive)
REMARK    1  A    between atoms: C_1  and  O_2
REMARK    2  A    between atoms: O_2  and  C_3
REMARK    3  A    between atoms: C_5  and  C_6
REMARK    4  A    between atoms: C_19  and  C_21
REMARK    5  A    between atoms: C_31  and  C_32
REMARK                            x       y       z     vdW  Elec       q    Type
REMARK                         _______ _______ _______ _____ _____    ______ ____
ROOT
ATOM      1  C   UNL     1       8.018  14.090  22.078  0.00  0.00    +0.000 C 
ATOM      2  C   UNL     1       8.373  14.469  23.563  0.00  0.00    +0.000 A 
ATOM      3  C   UNL     1       7.764  15.464  24.347  0.00  0.00    +0.000 A 
ATOM      4  C   UNL     1       7.463  15.186  25.704  0.00  0.00    +0.000 A 
ATOM      5  C   UNL     1       7.925  14.021  26.338  0.00  0.00    +0.000 A 
ATOM      6  C   UNL     1       8.634  13.080  25.614  0.00  0.00    +0.000 A 
ATOM      7  C   UNL     1       8.652  13.259  24.236  0.00  0.00    +0.000 A 
ATOM      8  C   UNL     1       7.919  12.234  23.449  0.00  0.00    +0.000 C 
ATOM      9  O   UNL     1       7.840  11.057  23.740  0.00  0.00    +0.000 OA
ATOM     10  N   UNL     1       7.224  12.913  22.438  0.00  0.00    +0.000 N 
ATOM     11  C   UNL     1       5.855  13.338  22.700  0.00  0.00    +0.000 C 
ATOM     12  C   UNL     1       5.701  14.630  21.900  0.00  0.00    +0.000 C 
ATOM     13  N   UNL     1       7.047  14.985  21.430  0.00  0.00    +0.000 N 
ATOM     14  C   UNL     1       7.123  15.867  20.352  0.00  0.00    +0.000 C 
ATOM     15  O   UNL     1       6.120  16.495  19.993  0.00  0.00    +0.000 OA
ENDROOT
BRANCH  14  16
ATOM     16  C   UNL     1       8.320  16.028  19.477  0.00  0.00    +0.000 A 
ATOM     17  C   UNL     1       8.475  15.401  18.237  0.00  0.00    +0.000 A 
ATOM     18  C   UNL     1       9.570  15.711  17.419  0.00  0.00    +0.000 A 
ATOM     19  C   UNL     1      10.548  16.590  17.873  0.00  0.00    +0.000 A 
ATOM     20  F   UNL     1      11.609  16.850  17.087  0.00  0.00    +0.000 F 
ATOM     21  C   UNL     1      10.462  17.128  19.153  0.00  0.00    +0.000 A 
ATOM     22  F   UNL     1      11.433  17.945  19.601  0.00  0.00    +0.000 F 
ATOM     23  C   UNL     1       9.354  16.862  19.952  0.00  0.00    +0.000 A 
ENDBRANCH  14  16
BRANCH   1  26
ATOM     24  C   UNL     1       9.760  12.240  19.167  0.00  0.00    +0.000 A 
ATOM     25  C   UNL     1       8.812  12.539  20.154  0.00  0.00    +0.000 A 
ATOM     26  C   UNL     1       9.103  13.459  21.176  0.00  0.00    +0.000 A 
ATOM     27  C   UNL     1      10.405  14.010  21.215  0.00  0.00    +0.000 A 
ATOM     28  C   UNL     1      11.322  13.737  20.225  0.00  0.00    +0.000 A 
ATOM     29  C   UNL     1      10.996  12.906  19.157  0.00  0.00    +0.000 A 
ATOM     30  C   UNL     1      11.957  12.761  18.010  0.00  0.00    +0.000 C 
BRANCH  24  32
ATOM     31  C   UNL     1       8.965  10.105  18.502  0.00  0.00    +0.000 C 
ATOM     32  O   UNL     1       9.539  11.357  18.143  0.00  0.00    +0.000 OA
ENDBRANCH  24  32
ENDBRANCH   1  26
TORSDOF 3
ENDMDL
MODEL 5
REMARK VINA RESULT:      -6.3      8.346     10.471
REMARK  Name = 
REMARK  5 active torsions:
REMARK  status: ('A' for Active; 'I' for Inactive)
REMARK    1  A    between atoms: C_1  and  O_2
REMARK    2  A    between atoms: O_2  and  C_3
REMARK    3  A    between atoms: C_5  and  C_6
REMARK    4  A    between atoms: C_19  and  C_21
REMARK    5  A    between atoms: C_31  and  C_32
REMARK                            x       y       z     vdW  Elec       q    Type
REMARK                         _______ _______ _______ _____ _____    ______ ____
ROOT
ATOM      1  C   UNL     1      -2.469  13.704  21.467  0.00  0.00    +0.000 C 
ATOM      2  C   UNL     1      -2.525  13.565  23.032  0.00  0.00    +0.000 A 
ATOM      3  C   UNL     1      -2.384  14.599  23.975  0.00  0.00    +0.000 A 
ATOM      4  C   UNL     1      -3.249  14.631  25.098  0.00  0.00    +0.000 A 
ATOM      5  C   UNL     1      -4.109  13.563  25.397  0.00  0.00    +0.000 A 
ATOM      6  C   UNL     1      -4.176  12.475  24.545  0.00  0.00    +0.000 A 
ATOM      7  C   UNL     1      -3.533  12.620  23.322  0.00  0.00    +0.000 A 
ATOM      8  C   UNL     1      -4.425  12.672  22.134  0.00  0.00    +0.000 C 
ATOM      9  O   UNL     1      -5.465  12.055  22.015  0.00  0.00    +0.000 OA
ATOM     10  N   UNL     1      -3.922  13.672  21.288  0.00  0.00    +0.000 N 
ATOM     11  C   UNL     1      -4.439  15.027  21.430  0.00  0.00    +0.000 C 
ATOM     12  C   UNL     1      -3.254  15.922  21.071  0.00  0.00    +0.000 C 
ATOM     13  N   UNL     1      -2.084  15.037  20.980  0.00  0.00    +0.000 N 
ATOM     14  C   UNL     1      -0.985  15.522  20.270  0.00  0.00    +0.000 C 
ATOM     15  O   UNL     1      -0.924  16.719  19.963  0.00  0.00    +0.000 OA
ENDROOT
BRANCH  14  16
ATOM     16  C   UNL     1       0.103  14.668  19.715  0.00  0.00    +0.000 A 
ATOM     17  C   UNL     1       0.154  14.227  18.388  0.00  0.00    +0.000 A 
ATOM     18  C   UNL     1       1.280  13.539  17.915  0.00  0.00    +0.000 A 
ATOM     19  C   UNL     1       2.319  13.225  18.785  0.00  0.00    +0.000 A 
ATOM     20  F   UNL     1       3.376  12.536  18.318  0.00  0.00    +0.000 F 
ATOM     21  C   UNL     1       2.223  13.557  20.132  0.00  0.00    +0.000 A 
ATOM     22  F   UNL     1       3.215  13.214  20.976  0.00  0.00    +0.000 F 
ATOM     23  C   UNL     1       1.132  14.282  20.601  0.00  0.00    +0.000 A 
ENDBRANCH  14  16
BRANCH   1  26
ATOM     24  C   UNL     1      -1.814  11.372  18.456  0.00  0.00    +0.000 A 
ATOM     25  C   UNL     1      -2.468  12.286  19.293  0.00  0.00    +0.000 A 
ATOM     26  C   UNL     1      -2.031  12.492  20.613  0.00  0.00    +0.000 A 
ATOM     27  C   UNL     1      -0.966  11.693  21.087  0.00  0.00    +0.000 A 
ATOM     28  C   UNL     1      -0.306  10.819  20.252  0.00  0.00    +0.000 A 
ATOM     29  C   UNL     1      -0.674  10.692  18.915  0.00  0.00    +0.000 A 
ATOM     30  C   UNL     1       0.168   9.858  17.990  0.00  0.00    +0.000 C 
BRANCH  24  32
ATOM     31  C   UNL     1      -3.575  11.226  16.872  0.00  0.00    +0.000 C 
ATOM     32  O   UNL     1      -2.185  11.127  17.160  0.00  0.00    +0.000 OA
ENDBRANCH  24  32
ENDBRANCH   1  26
TORSDOF 3
ENDMDL
MODEL 6
REMARK VINA RESULT:      -6.2      2.209      4.921
REMARK  Name = 
REMARK  5 active torsions:
REMARK  status: ('A' for Active; 'I' for Inactive)
REMARK    1  A    between atoms: C_1  and  O_2
REMARK    2  A    between atoms: O_2  and  C_3
REMARK    3  A    between atoms: C_5  and  C_6
REMARK    4  A    between atoms: C_19  and  C_21
REMARK    5  A    between atoms: C_31  and  C_32
REMARK                            x       y       z     vdW  Elec       q    Type
REMARK                         _______ _______ _______ _____ _____    ______ ____
ROOT
ATOM      1  C   UNL     1       6.667  15.146  20.597  0.00  0.00    +0.000 C 
ATOM      2  C   UNL     1       5.159  14.724  20.455  0.00  0.00    +0.000 A 
ATOM      3  C   UNL     1       4.285  14.359  21.495  0.00  0.00    +0.000 A 
ATOM      4  C   UNL     1       2.954  14.848  21.482  0.00  0.00    +0.000 A 
ATOM      5  C   UNL     1       2.428  15.526  20.371  0.00  0.00    +0.000 A 
ATOM      6  C   UNL     1       3.238  15.791  19.281  0.00  0.00    +0.000 A 
ATOM      7  C   UNL     1       4.596  15.551  19.459  0.00  0.00    +0.000 A 
ATOM      8  C   UNL     1       5.462  16.759  19.465  0.00  0.00    +0.000 C 
ATOM      9  O   UNL     1       5.273  17.755  18.796  0.00  0.00    +0.000 OA
ATOM     10  N   UNL     1       6.403  16.583  20.490  0.00  0.00    +0.000 N 
ATOM     11  C   UNL     1       6.092  17.099  21.816  0.00  0.00    +0.000 C 
ATOM     12  C   UNL     1       6.775  16.121  22.772  0.00  0.00    +0.000 C 
ATOM     13  N   UNL     1       7.226  14.991  21.948  0.00  0.00    +0.000 N 
ATOM     14  C   UNL     1       8.224  14.180  22.489  0.00  0.00    +0.000 C 
ATOM     15  O   UNL     1       8.517  14.272  23.687  0.00  0.00    +0.000 OA
ENDROOT
BRANCH  14  16
ATOM     16  C   UNL     1       9.092  13.268  21.691  0.00  0.00    +0.000 A 
ATOM     17  C   UNL     1       8.760  11.946  21.375  0.00  0.00    +0.000 A 
ATOM     18  C   UNL     1       9.571  11.201  20.509  0.00  0.00    +0.000 A 
ATOM     19  C   UNL     1      10.753  11.749  20.020  0.00  0.00    +0.000 A 
ATOM     20  F   UNL     1      11.534  11.005  19.215  0.00  0.00    +0.000 F 
ATOM     21  C   UNL     1      11.149  13.020  20.422  0.00  0.00    +0.000 A 
ATOM     22  F   UNL     1      12.315  13.528  19.978  0.00  0.00    +0.000 F 
ATOM     23  C   UNL     1      10.327  13.784  21.244  0.00  0.00    +0.000 A 
ENDBRANCH  14  16
BRANCH   1  26
ATOM     24  C   UNL     1       9.770  15.312  18.299  0.00  0.00    +0.000 A 
ATOM     25  C   UNL     1       8.761  15.729  19.178  0.00  0.00    +0.000 A 
ATOM     26  C   UNL     1       7.631  14.926  19.409  0.00  0.00    +0.000 A 
ATOM     27  C   UNL     1       7.513  13.727  18.668  0.00  0.00    +0.000 A 
ATOM     28  C   UNL     1       8.521  13.307  17.830  0.00  0.00    +0.000 A 
ATOM     29  C   UNL     1       9.686  14.053  17.682  0.00  0.00    +0.000 A 
ATOM     30  C   UNL     1      10.835  13.489  16.893  0.00  0.00    +0.000 C 
BRANCH  24  32
ATOM     31  C   UNL     1      10.712  17.238  17.281  0.00  0.00    +0.000 C 
ATOM     32  O   UNL     1      10.897  16.045  18.034  0.00  0.00    +0.000 OA
ENDBRANCH  24  32
ENDBRANCH   1  26
TORSDOF 3
ENDMDL
MODEL 7
REMARK VINA RESULT:      -6.1      9.781     12.181
REMARK  Name = 
REMARK  5 active torsions:
REMARK  status: ('A' for Active; 'I' for Inactive)
REMARK    1  A    between atoms: C_1  and  O_2
REMARK    2  A    between atoms: O_2  and  C_3
REMARK    3  A    between atoms: C_5  and  C_6
REMARK    4  A    between atoms: C_19  and  C_21
REMARK    5  A    between atoms: C_31  and  C_32
REMARK                            x       y       z     vdW  Elec       q    Type
REMARK                         _______ _______ _______ _____ _____    ______ ____
ROOT
ATOM      1  C   UNL     1      -4.496  14.142  21.587  0.00  0.00    +0.000 C 
ATOM      2  C   UNL     1      -5.327  14.181  22.922  0.00  0.00    +0.000 A 
ATOM      3  C   UNL     1      -6.034  15.279  23.442  0.00  0.00    +0.000 A 
ATOM      4  C   UNL     1      -7.322  15.072  23.997  0.00  0.00    +0.000 A 
ATOM      5  C   UNL     1      -7.832  13.782  24.215  0.00  0.00    +0.000 A 
ATOM      6  C   UNL     1      -7.099  12.678  23.820  0.00  0.00    +0.000 A 
ATOM      7  C   UNL     1      -5.987  12.937  23.028  0.00  0.00    +0.000 A 
ATOM      8  C   UNL     1      -6.078  12.459  21.623  0.00  0.00    +0.000 C 
ATOM      9  O   UNL     1      -6.648  11.447  21.267  0.00  0.00    +0.000 OA
ATOM     10  N   UNL     1      -5.541  13.469  20.812  0.00  0.00    +0.000 N 
ATOM     11  C   UNL     1      -6.441  14.478  20.269  0.00  0.00    +0.000 C 
ATOM     12  C   UNL     1      -5.589  15.745  20.199  0.00  0.00    +0.000 C 
ATOM     13  N   UNL     1      -4.344  15.443  20.919  0.00  0.00    +0.000 N 
ATOM     14  C   UNL     1      -3.249  16.263  20.648  0.00  0.00    +0.000 C 
ATOM     15  O   UNL     1      -3.406  17.324  20.032  0.00  0.00    +0.000 OA
ENDROOT
BRANCH  14  16
ATOM     16  C   UNL     1      -1.832  15.897  20.933  0.00  0.00    +0.000 A 
ATOM     17  C   UNL     1      -0.942  15.401  19.974  0.00  0.00    +0.000 A 
ATOM     18  C   UNL     1       0.408  15.209  20.295  0.00  0.00    +0.000 A 
ATOM     19  C   UNL     1       0.854  15.441  21.593  0.00  0.00    +0.000 A 
ATOM     20  F   UNL     1       2.147  15.219  21.888  0.00  0.00    +0.000 F 
ATOM     21  C   UNL     1      -0.048  15.823  22.580  0.00  0.00    +0.000 A 
ATOM     22  F   UNL     1       0.383  16.005  23.843  0.00  0.00    +0.000 F 
ATOM     23  C   UNL     1      -1.381  16.061  22.260  0.00  0.00    +0.000 A 
ENDBRANCH  14  16
BRANCH   1  26
ATOM     24  C   UNL     1      -1.654  11.988  20.100  0.00  0.00    +0.000 A 
ATOM     25  C   UNL     1      -2.895  12.627  20.216  0.00  0.00    +0.000 A 
ATOM     26  C   UNL     1      -3.326  13.142  21.452  0.00  0.00    +0.000 A 
ATOM     27  C   UNL     1      -2.501  12.923  22.580  0.00  0.00    +0.000 A 
ATOM     28  C   UNL     1      -1.269  12.324  22.454  0.00  0.00    +0.000 A 
ATOM     29  C   UNL     1      -0.799  11.908  21.211  0.00  0.00    +0.000 A 
ATOM     30  C   UNL     1       0.614  11.411  21.080  0.00  0.00    +0.000 C 
BRANCH  24  32
ATOM     31  C   UNL     1      -2.060  11.497  17.814  0.00  0.00    +0.000 C 
ATOM     32  O   UNL     1      -1.173  11.469  18.926  0.00  0.00    +0.000 OA
ENDBRANCH  24  32
ENDBRANCH   1  26
TORSDOF 3
ENDMDL
MODEL 8
REMARK VINA RESULT:      -6.1      1.527      2.180
REMARK  Name = 
REMARK  5 active torsions:
REMARK  status: ('A' for Active; 'I' for Inactive)
REMARK    1  A    between atoms: C_1  and  O_2
REMARK    2  A    between atoms: O_2  and  C_3
REMARK    3  A    between atoms: C_5  and  C_6
REMARK    4  A    between atoms: C_19  and  C_21
REMARK    5  A    between atoms: C_31  and  C_32
REMARK                            x       y       z     vdW  Elec       q    Type
REMARK                         _______ _______ _______ _____ _____    ______ ____
ROOT
ATOM      1  C   UNL     1       7.237  14.994  21.275  0.00  0.00    +0.000 C 
ATOM      2  C   UNL     1       7.170  16.319  22.120  0.00  0.00    +0.000 A 
ATOM      3  C   UNL     1       6.334  17.426  21.886  0.00  0.00    +0.000 A 
ATOM      4  C   UNL     1       5.695  18.053  22.985  0.00  0.00    +0.000 A 
ATOM      5  C   UNL     1       6.018  17.725  24.311  0.00  0.00    +0.000 A 
ATOM      6  C   UNL     1       6.931  16.718  24.567  0.00  0.00    +0.000 A 
ATOM      7  C   UNL     1       7.307  15.946  23.475  0.00  0.00    +0.000 A 
ATOM      8  C   UNL     1       6.851  14.531  23.505  0.00  0.00    +0.000 C 
ATOM      9  O   UNL     1       6.745  13.855  24.508  0.00  0.00    +0.000 OA
ATOM     10  N   UNL     1       6.423  14.212  22.208  0.00  0.00    +0.000 N 
ATOM     11  C   UNL     1       5.018  14.401  21.873  0.00  0.00    +0.000 C 
ATOM     12  C   UNL     1       5.031  14.778  20.392  0.00  0.00    +0.000 C 
ATOM     13  N   UNL     1       6.439  15.010  20.040  0.00  0.00    +0.000 N 
ATOM     14  C   UNL     1       6.763  14.956  18.684  0.00  0.00    +0.000 C 
ATOM     15  O   UNL     1       5.867  14.963  17.832  0.00  0.00    +0.000 OA
ENDROOT
BRANCH  14  16
ATOM     16  C   UNL     1       8.142  14.750  18.156  0.00  0.00    +0.000 A 
ATOM     17  C   UNL     1       9.079  15.775  17.991  0.00  0.00    +0.000 A 
ATOM     18  C   UNL     1      10.395  15.476  17.614  0.00  0.00    +0.000 A 
ATOM     19  C   UNL     1      10.755  14.163  17.329  0.00  0.00    +0.000 A 
ATOM     20  F   UNL     1      12.015  13.901  16.937  0.00  0.00    +0.000 F 
ATOM     21  C   UNL     1       9.799  13.154  17.377  0.00  0.00    +0.000 A 
ATOM     22  F   UNL     1      10.144  11.891  17.059  0.00  0.00    +0.000 F 
ATOM     23  C   UNL     1       8.502  13.434  17.795  0.00  0.00    +0.000 A 
ENDBRANCH  14  16
BRANCH   1  26
ATOM     24  C   UNL     1       9.765  12.115  20.774  0.00  0.00    +0.000 A 
ATOM     25  C   UNL     1       8.575  12.777  21.105  0.00  0.00    +0.000 A 
ATOM     26  C   UNL     1       8.547  14.174  21.254  0.00  0.00    +0.000 A 
ATOM     27  C   UNL     1       9.770  14.875  21.134  0.00  0.00    +0.000 A 
ATOM     28  C   UNL     1      10.929  14.224  20.776  0.00  0.00    +0.000 A 
ATOM     29  C   UNL     1      10.934  12.854  20.528  0.00  0.00    +0.000 A 
ATOM     30  C   UNL     1      12.173  12.204  19.979  0.00  0.00    +0.000 C 
BRANCH  24  32
ATOM     31  C   UNL     1       9.160  10.205  19.502  0.00  0.00    +0.000 C 
ATOM     32  O   UNL     1       9.860  10.758  20.610  0.00  0.00    +0.000 OA
ENDBRANCH  24  32
ENDBRANCH   1  26
TORSDOF 3
ENDMDL
MODEL 9
REMARK VINA RESULT:      -6.1      0.921      1.428
REMARK  Name = 
REMARK  5 active torsions:
REMARK  status: ('A' for Active; 'I' for Inactive)
REMARK    1  A    between atoms: C_1  and  O_2
REMARK    2  A    between atoms: O_2  and  C_3
REMARK    3  A    between atoms: C_5  and  C_6
REMARK    4  A    between atoms: C_19  and  C_21
REMARK    5  A    between atoms: C_31  and  C_32
REMARK                            x       y       z     vdW  Elec       q    Type
REMARK                         _______ _______ _______ _____ _____    ______ ____
ROOT
ATOM      1  C   UNL     1       7.790  14.364  22.562  0.00  0.00    +0.000 C 
ATOM      2  C   UNL     1       7.866  15.399  23.744  0.00  0.00    +0.000 A 
ATOM      3  C   UNL     1       6.890  16.347  24.097  0.00  0.00    +0.000 A 
ATOM      4  C   UNL     1       6.585  16.547  25.468  0.00  0.00    +0.000 A 
ATOM      5  C   UNL     1       7.358  15.968  26.487  0.00  0.00    +0.000 A 
ATOM      6  C   UNL     1       8.404  15.124  26.161  0.00  0.00    +0.000 A 
ATOM      7  C   UNL     1       8.480  14.735  24.829  0.00  0.00    +0.000 A 
ATOM      8  C   UNL     1       8.209  13.297  24.568  0.00  0.00    +0.000 C 
ATOM      9  O   UNL     1       8.509  12.385  25.312  0.00  0.00    +0.000 OA
ATOM     10  N   UNL     1       7.415  13.233  23.414  0.00  0.00    +0.000 N 
ATOM     11  C   UNL     1       5.966  13.226  23.566  0.00  0.00    +0.000 C 
ATOM     12  C   UNL     1       5.452  13.954  22.325  0.00  0.00    +0.000 C 
ATOM     13  N   UNL     1       6.633  14.532  21.670  0.00  0.00    +0.000 N 
ATOM     14  C   UNL     1       6.498  14.879  20.326  0.00  0.00    +0.000 C 
ATOM     15  O   UNL     1       5.376  14.926  19.807  0.00  0.00    +0.000 OA
ENDROOT
BRANCH  14  16
ATOM     16  C   UNL     1       7.640  15.081  19.389  0.00  0.00    +0.000 A 
ATOM     17  C   UNL     1       8.339  16.285  19.252  0.00  0.00    +0.000 A 
ATOM     18  C   UNL     1       9.483  16.351  18.446  0.00  0.00    +0.000 A 
ATOM     19  C   UNL     1       9.886  15.235  17.719  0.00  0.00    +0.000 A 
ATOM     20  F   UNL     1      10.969  15.328  16.926  0.00  0.00    +0.000 F 
ATOM     21  C   UNL     1       9.130  14.069  17.759  0.00  0.00    +0.000 A 
ATOM     22  F   UNL     1       9.503  13.006  17.020  0.00  0.00    +0.000 F 
ATOM     23  C   UNL     1       8.019  13.980  18.592  0.00  0.00    +0.000 A 
ENDBRANCH  14  16
BRANCH   1  26
ATOM     24  C   UNL     1      10.299  12.243  20.528  0.00  0.00    +0.000 A 
ATOM     25  C   UNL     1       9.222  12.559  21.366  0.00  0.00    +0.000 A 
ATOM     26  C   UNL     1       9.099  13.843  21.925  0.00  0.00    +0.000 A 
ATOM     27  C   UNL     1      10.134  14.773  21.675  0.00  0.00    +0.000 A 
ATOM     28  C   UNL     1      11.173  14.468  20.825  0.00  0.00    +0.000 A 
ATOM     29  C   UNL     1      11.238  13.230  20.190  0.00  0.00    +0.000 A 
ATOM     30  C   UNL     1      12.290  12.988  19.143  0.00  0.00    +0.000 C 
BRANCH  24  32
ATOM     31  C   UNL     1       9.333  10.440  19.325  0.00  0.00    +0.000 C 
ATOM     32  O   UNL     1      10.476  11.014  19.949  0.00  0.00    +0.000 OA
ENDBRANCH  24  32
ENDBRANCH   1  26
TORSDOF 3
ENDMDL
