MODEL 1
REMARK VINA RESULT:      -6.7      0.000      0.000
REMARK  Name = 
REMARK  2 active torsions:
REMARK  status: ('A' for Active; 'I' for Inactive)
REMARK    1  A    between atoms: C_1  and  N_2
REMARK    2  A    between atoms: C_7  and  C_8
REMARK                            x       y       z     vdW  Elec       q    Type
REMARK                         _______ _______ _______ _____ _____    ______ ____
ROOT
ATOM      1  C   UNL     1       4.223   6.732  17.353  0.00  0.00    +0.000 C 
ATOM      2  N   UNL     1       5.319   5.941  16.841  0.00  0.00    +0.000 N 
ATOM      3  N   UNL     1       5.779   6.183  15.597  0.00  0.00    +0.000 NA
ATOM      4  C   UNL     1       6.799   5.348  15.464  0.00  0.00    +0.000 A 
ATOM      5  N   UNL     1       7.539   5.238  14.357  0.00  0.00    +0.000 N 
ATOM      6  C   UNL     1       6.984   4.561  16.610  0.00  0.00    +0.000 A 
ATOM      7  C   UNL     1       5.931   4.872  17.454  0.00  0.00    +0.000 A 
ATOM      8  H   UNL     1       7.175   5.688  13.525  0.00  0.00    +0.000 HD
ATOM      9  H   UNL     1       8.076   4.401  14.168  0.00  0.00    +0.000 HD
ENDROOT
BRANCH   7  10
ATOM     10  C   UNL     1       5.521   4.321  18.726  0.00  0.00    +0.000 C 
ATOM     11  O   UNL     1       5.977   4.763  19.779  0.00  0.00    +0.000 OA
ATOM     12  N   UNL     1       4.556   3.314  18.738  0.00  0.00    +0.000 N 
ATOM     13  C   UNL     1       3.782   2.822  17.592  0.00  0.00    +0.000 C 
ATOM     14  C   UNL     1       2.278   2.851  17.883  0.00  0.00    +0.000 C 
ATOM     15  O   UNL     1       1.967   2.157  19.098  0.00  0.00    +0.000 OA
ATOM     16  C   UNL     1       2.652   2.759  20.207  0.00  0.00    +0.000 C 
ATOM     17  C   UNL     1       4.171   2.696  20.011  0.00  0.00    +0.000 C 
ENDBRANCH   7  10
TORSDOF 1
ENDMDL
MODEL 2
REMARK VINA RESULT:      -6.5      1.620      1.957
REMARK  Name = 
REMARK  2 active torsions:
REMARK  status: ('A' for Active; 'I' for Inactive)
REMARK    1  A    between atoms: C_1  and  N_2
REMARK    2  A    between atoms: C_7  and  C_8
REMARK                            x       y       z     vdW  Elec       q    Type
REMARK                         _______ _______ _______ _____ _____    ______ ____
ROOT
ATOM      1  C   UNL     1       6.699   5.503  19.151  0.00  0.00    +0.000 C 
ATOM      2  N   UNL     1       6.415   5.404  17.738  0.00  0.00    +0.000 N 
ATOM      3  N   UNL     1       7.437   5.436  16.859  0.00  0.00    +0.000 NA
ATOM      4  C   UNL     1       6.853   5.266  15.682  0.00  0.00    +0.000 A 
ATOM      5  N   UNL     1       7.505   5.254  14.516  0.00  0.00    +0.000 N 
ATOM      6  C   UNL     1       5.461   5.142  15.801  0.00  0.00    +0.000 A 
ATOM      7  C   UNL     1       5.177   5.360  17.138  0.00  0.00    +0.000 A 
ATOM      8  H   UNL     1       8.466   5.577  14.534  0.00  0.00    +0.000 HD
ATOM      9  H   UNL     1       7.025   5.446  13.646  0.00  0.00    +0.000 HD
ENDROOT
BRANCH   7  10
ATOM     10  C   UNL     1       3.925   5.463  17.853  0.00  0.00    +0.000 C 
ATOM     11  O   UNL     1       3.305   6.524  17.884  0.00  0.00    +0.000 OA
ATOM     12  N   UNL     1       3.407   4.320  18.460  0.00  0.00    +0.000 N 
ATOM     13  C   UNL     1       3.923   2.950  18.347  0.00  0.00    +0.000 C 
ATOM     14  C   UNL     1       2.822   1.974  17.919  0.00  0.00    +0.000 C 
ATOM     15  O   UNL     1       1.680   2.064  18.779  0.00  0.00    +0.000 OA
ATOM     16  C   UNL     1       1.138   3.394  18.755  0.00  0.00    +0.000 C 
ATOM     17  C   UNL     1       2.170   4.415  19.245  0.00  0.00    +0.000 C 
ENDBRANCH   7  10
TORSDOF 1
ENDMDL
MODEL 3
REMARK VINA RESULT:      -6.3      0.992      1.013
REMARK  Name = 
REMARK  2 active torsions:
REMARK  status: ('A' for Active; 'I' for Inactive)
REMARK    1  A    between atoms: C_1  and  N_2
REMARK    2  A    between atoms: C_7  and  C_8
REMARK                            x       y       z     vdW  Elec       q    Type
REMARK                         _______ _______ _______ _____ _____    ______ ____
ROOT
ATOM      1  C   UNL     1       4.813   6.870  17.219  0.00  0.00    +0.000 C 
ATOM      2  N   UNL     1       5.355   5.734  16.507  0.00  0.00    +0.000 N 
ATOM      3  N   UNL     1       5.678   5.869  15.205  0.00  0.00    +0.000 NA
ATOM      4  C   UNL     1       6.191   4.692  14.879  0.00  0.00    +0.000 A 
ATOM      5  N   UNL     1       6.628   4.376  13.656  0.00  0.00    +0.000 N 
ATOM      6  C   UNL     1       6.183   3.799  15.961  0.00  0.00    +0.000 A 
ATOM      7  C   UNL     1       5.519   4.454  16.984  0.00  0.00    +0.000 A 
ATOM      8  H   UNL     1       6.377   5.015  12.910  0.00  0.00    +0.000 HD
ATOM      9  H   UNL     1       6.704   3.411  13.361  0.00  0.00    +0.000 HD
ENDROOT
BRANCH   7  10
ATOM     10  C   UNL     1       5.109   4.019  18.300  0.00  0.00    +0.000 C 
ATOM     11  O   UNL     1       5.847   4.170  19.270  0.00  0.00    +0.000 OA
ATOM     12  N   UNL     1       3.834   3.475  18.455  0.00  0.00    +0.000 N 
ATOM     13  C   UNL     1       2.773   3.410  17.442  0.00  0.00    +0.000 C 
ATOM     14  C   UNL     1       1.464   4.007  17.969  0.00  0.00    +0.000 C 
ATOM     15  O   UNL     1       1.078   3.406  19.211  0.00  0.00    +0.000 OA
ATOM     16  C   UNL     1       2.097   3.608  20.203  0.00  0.00    +0.000 C 
ATOM     17  C   UNL     1       3.419   2.968  19.768  0.00  0.00    +0.000 C 
ENDBRANCH   7  10
TORSDOF 1
ENDMDL
MODEL 4
REMARK VINA RESULT:      -6.3      1.865      2.210
REMARK  Name = 
REMARK  2 active torsions:
REMARK  status: ('A' for Active; 'I' for Inactive)
REMARK    1  A    between atoms: C_1  and  N_2
REMARK    2  A    between atoms: C_7  and  C_8
REMARK                            x       y       z     vdW  Elec       q    Type
REMARK                         _______ _______ _______ _____ _____    ______ ____
ROOT
ATOM      1  C   UNL     1       7.363   6.559  17.391  0.00  0.00    +0.000 C 
ATOM      2  N   UNL     1       6.652   5.682  16.489  0.00  0.00    +0.000 N 
ATOM      3  N   UNL     1       7.277   5.230  15.383  0.00  0.00    +0.000 NA
ATOM      4  C   UNL     1       6.391   4.422  14.821  0.00  0.00    +0.000 A 
ATOM      5  N   UNL     1       6.594   3.767  13.674  0.00  0.00    +0.000 N 
ATOM      6  C   UNL     1       5.196   4.365  15.552  0.00  0.00    +0.000 A 
ATOM      7  C   UNL     1       5.335   5.291  16.572  0.00  0.00    +0.000 A 
ATOM      8  H   UNL     1       7.395   4.059  13.125  0.00  0.00    +0.000 HD
ATOM      9  H   UNL     1       5.817   3.433  13.119  0.00  0.00    +0.000 HD
ENDROOT
BRANCH   7  10
ATOM     10  C   UNL     1       4.412   5.759  17.582  0.00  0.00    +0.000 C 
ATOM     11  O   UNL     1       3.722   6.757  17.388  0.00  0.00    +0.000 OA
ATOM     12  N   UNL     1       4.280   5.022  18.758  0.00  0.00    +0.000 N 
ATOM     13  C   UNL     1       4.881   3.715  19.052  0.00  0.00    +0.000 C 
ATOM     14  C   UNL     1       3.823   2.708  19.514  0.00  0.00    +0.000 C 
ATOM     15  O   UNL     1       3.055   3.221  20.610  0.00  0.00    +0.000 OA
ATOM     16  C   UNL     1       2.386   4.433  20.228  0.00  0.00    +0.000 C 
ATOM     17  C   UNL     1       3.397   5.511  19.823  0.00  0.00    +0.000 C 
ENDBRANCH   7  10
TORSDOF 1
ENDMDL
MODEL 5
REMARK VINA RESULT:      -6.2      1.979      2.447
REMARK  Name = 
REMARK  2 active torsions:
REMARK  status: ('A' for Active; 'I' for Inactive)
REMARK    1  A    between atoms: C_1  and  N_2
REMARK    2  A    between atoms: C_7  and  C_8
REMARK                            x       y       z     vdW  Elec       q    Type
REMARK                         _______ _______ _______ _____ _____    ______ ____
ROOT
ATOM      1  C   UNL     1       7.288   5.694  19.397  0.00  0.00    +0.000 C 
ATOM      2  N   UNL     1       6.875   5.246  18.086  0.00  0.00    +0.000 N 
ATOM      3  N   UNL     1       7.523   5.711  16.999  0.00  0.00    +0.000 NA
ATOM      4  C   UNL     1       6.952   5.072  15.988  0.00  0.00    +0.000 A 
ATOM      5  N   UNL     1       7.281   5.252  14.706  0.00  0.00    +0.000 N 
ATOM      6  C   UNL     1       5.932   4.213  16.421  0.00  0.00    +0.000 A 
ATOM      7  C   UNL     1       5.809   4.431  17.783  0.00  0.00    +0.000 A 
ATOM      8  H   UNL     1       7.866   6.054  14.499  0.00  0.00    +0.000 HD
ATOM      9  H   UNL     1       6.636   5.013  13.963  0.00  0.00    +0.000 HD
ENDROOT
BRANCH   7  10
ATOM     10  C   UNL     1       4.871   3.924  18.759  0.00  0.00    +0.000 C 
ATOM     11  O   UNL     1       5.165   2.972  19.478  0.00  0.00    +0.000 OA
ATOM     12  N   UNL     1       3.646   4.574  18.907  0.00  0.00    +0.000 N 
ATOM     13  C   UNL     1       3.230   5.830  18.270  0.00  0.00    +0.000 C 
ATOM     14  C   UNL     1       2.727   6.840  19.306  0.00  0.00    +0.000 C 
ATOM     15  O   UNL     1       1.702   6.275  20.132  0.00  0.00    +0.000 OA
ATOM     16  C   UNL     1       2.199   5.123  20.830  0.00  0.00    +0.000 C 
ATOM     17  C   UNL     1       2.652   4.039  19.846  0.00  0.00    +0.000 C 
ENDBRANCH   7  10
TORSDOF 1
ENDMDL
MODEL 6
REMARK VINA RESULT:      -6.2      1.853      2.207
REMARK  Name = 
REMARK  2 active torsions:
REMARK  status: ('A' for Active; 'I' for Inactive)
REMARK    1  A    between atoms: C_1  and  N_2
REMARK    2  A    between atoms: C_7  and  C_8
REMARK                            x       y       z     vdW  Elec       q    Type
REMARK                         _______ _______ _______ _____ _____    ______ ____
ROOT
ATOM      1  C   UNL     1       6.837   5.398  18.988  0.00  0.00    +0.000 C 
ATOM      2  N   UNL     1       6.174   4.900  17.804  0.00  0.00    +0.000 N 
ATOM      3  N   UNL     1       6.917   4.538  16.739  0.00  0.00    +0.000 NA
ATOM      4  C   UNL     1       6.029   4.081  15.869  0.00  0.00    +0.000 A 
ATOM      5  N   UNL     1       6.336   3.631  14.649  0.00  0.00    +0.000 N 
ATOM      6  C   UNL     1       4.719   4.162  16.365  0.00  0.00    +0.000 A 
ATOM      7  C   UNL     1       4.819   4.815  17.582  0.00  0.00    +0.000 A 
ATOM      8  H   UNL     1       7.274   3.830  14.319  0.00  0.00    +0.000 HD
ATOM      9  H   UNL     1       5.642   3.600  13.913  0.00  0.00    +0.000 HD
ENDROOT
BRANCH   7  10
ATOM     10  C   UNL     1       3.813   5.280  18.510  0.00  0.00    +0.000 C 
ATOM     11  O   UNL     1       3.375   6.426  18.440  0.00  0.00    +0.000 OA
ATOM     12  N   UNL     1       3.311   4.385  19.454  0.00  0.00    +0.000 N 
ATOM     13  C   UNL     1       3.586   2.945  19.537  0.00  0.00    +0.000 C 
ATOM     14  C   UNL     1       2.289   2.132  19.585  0.00  0.00    +0.000 C 
ATOM     15  O   UNL     1       1.423   2.589  20.632  0.00  0.00    +0.000 OA
ATOM     16  C   UNL     1       1.083   3.970  20.432  0.00  0.00    +0.000 C 
ATOM     17  C   UNL     1       2.337   4.851  20.447  0.00  0.00    +0.000 C 
ENDBRANCH   7  10
TORSDOF 1
ENDMDL
MODEL 7
REMARK VINA RESULT:      -6.2      2.213      2.972
REMARK  Name = 
REMARK  2 active torsions:
REMARK  status: ('A' for Active; 'I' for Inactive)
REMARK    1  A    between atoms: C_1  and  N_2
REMARK    2  A    between atoms: C_7  and  C_8
REMARK                            x       y       z     vdW  Elec       q    Type
REMARK                         _______ _______ _______ _____ _____    ______ ____
ROOT
ATOM      1  C   UNL     1       5.290   6.602  16.247  0.00  0.00    +0.000 C 
ATOM      2  N   UNL     1       5.795   5.983  17.452  0.00  0.00    +0.000 N 
ATOM      3  N   UNL     1       7.009   6.343  17.916  0.00  0.00    +0.000 NA
ATOM      4  C   UNL     1       7.141   5.652  19.039  0.00  0.00    +0.000 A 
ATOM      5  N   UNL     1       8.222   5.692  19.822  0.00  0.00    +0.000 N 
ATOM      6  C   UNL     1       6.025   4.839  19.287  0.00  0.00    +0.000 A 
ATOM      7  C   UNL     1       5.208   4.971  18.177  0.00  0.00    +0.000 A 
ATOM      8  H   UNL     1       9.046   6.133  19.429  0.00  0.00    +0.000 HD
ATOM      9  H   UNL     1       8.428   4.940  20.468  0.00  0.00    +0.000 HD
ENDROOT
BRANCH   7  10
ATOM     10  C   UNL     1       3.979   4.311  17.801  0.00  0.00    +0.000 C 
ATOM     11  O   UNL     1       3.961   3.486  16.891  0.00  0.00    +0.000 OA
ATOM     12  N   UNL     1       2.822   4.589  18.529  0.00  0.00    +0.000 N 
ATOM     13  C   UNL     1       2.723   5.392  19.755  0.00  0.00    +0.000 C 
ATOM     14  C   UNL     1       2.007   4.622  20.868  0.00  0.00    +0.000 C 
ATOM     15  O   UNL     1       0.735   4.128  20.428  0.00  0.00    +0.000 OA
ATOM     16  C   UNL     1       0.902   3.248  19.306  0.00  0.00    +0.000 C 
ATOM     17  C   UNL     1       1.550   3.980  18.127  0.00  0.00    +0.000 C 
ENDBRANCH   7  10
TORSDOF 1
ENDMDL
MODEL 8
REMARK VINA RESULT:      -6.1      2.031      2.607
REMARK  Name = 
REMARK  2 active torsions:
REMARK  status: ('A' for Active; 'I' for Inactive)
REMARK    1  A    between atoms: C_1  and  N_2
REMARK    2  A    between atoms: C_7  and  C_8
REMARK                            x       y       z     vdW  Elec       q    Type
REMARK                         _______ _______ _______ _____ _____    ______ ____
ROOT
ATOM      1  C   UNL     1       5.116   3.931  16.324  0.00  0.00    +0.000 C 
ATOM      2  N   UNL     1       5.770   4.630  17.407  0.00  0.00    +0.000 N 
ATOM      3  N   UNL     1       6.754   5.507  17.123  0.00  0.00    +0.000 NA
ATOM      4  C   UNL     1       7.090   6.005  18.304  0.00  0.00    +0.000 A 
ATOM      5  N   UNL     1       8.056   6.909  18.489  0.00  0.00    +0.000 N 
ATOM      6  C   UNL     1       6.337   5.440  19.344  0.00  0.00    +0.000 A 
ATOM      7  C   UNL     1       5.566   4.452  18.756  0.00  0.00    +0.000 A 
ATOM      8  H   UNL     1       8.677   7.072  17.705  0.00  0.00    +0.000 HD
ATOM      9  H   UNL     1       8.499   7.023  19.392  0.00  0.00    +0.000 HD
ENDROOT
BRANCH   7  10
ATOM     10  C   UNL     1       4.673   3.465  19.318  0.00  0.00    +0.000 C 
ATOM     11  O   UNL     1       5.106   2.400  19.752  0.00  0.00    +0.000 OA
ATOM     12  N   UNL     1       3.315   3.768  19.409  0.00  0.00    +0.000 N 
ATOM     13  C   UNL     1       2.678   5.059  19.119  0.00  0.00    +0.000 C 
ATOM     14  C   UNL     1       1.811   5.527  20.292  0.00  0.00    +0.000 C 
ATOM     15  O   UNL     1       0.867   4.521  20.680  0.00  0.00    +0.000 OA
ATOM     16  C   UNL     1       1.549   3.321  21.075  0.00  0.00    +0.000 C 
ATOM     17  C   UNL     1       2.380   2.757  19.917  0.00  0.00    +0.000 C 
ENDBRANCH   7  10
TORSDOF 1
ENDMDL
MODEL 9
REMARK VINA RESULT:      -6.1      2.314      5.447
REMARK  Name = 
REMARK  2 active torsions:
REMARK  status: ('A' for Active; 'I' for Inactive)
REMARK    1  A    between atoms: C_1  and  N_2
REMARK    2  A    between atoms: C_7  and  C_8
REMARK                            x       y       z     vdW  Elec       q    Type
REMARK                         _______ _______ _______ _____ _____    ______ ____
ROOT
ATOM      1  C   UNL     1       2.427   6.136  19.415  0.00  0.00    +0.000 C 
ATOM      2  N   UNL     1       2.324   4.758  19.842  0.00  0.00    +0.000 N 
ATOM      3  N   UNL     1       1.974   4.491  21.117  0.00  0.00    +0.000 NA
ATOM      4  C   UNL     1       1.913   3.168  21.161  0.00  0.00    +0.000 A 
ATOM      5  N   UNL     1       1.617   2.467  22.259  0.00  0.00    +0.000 N 
ATOM      6  C   UNL     1       2.236   2.587  19.926  0.00  0.00    +0.000 A 
ATOM      7  C   UNL     1       2.624   3.634  19.108  0.00  0.00    +0.000 A 
ATOM      8  H   UNL     1       1.625   2.978  23.135  0.00  0.00    +0.000 HD
ATOM      9  H   UNL     1       1.888   1.496  22.349  0.00  0.00    +0.000 HD
ENDROOT
BRANCH   7  10
ATOM     10  C   UNL     1       3.162   3.661  17.767  0.00  0.00    +0.000 C 
ATOM     11  O   UNL     1       2.428   3.509  16.792  0.00  0.00    +0.000 OA
ATOM     12  N   UNL     1       4.522   3.917  17.597  0.00  0.00    +0.000 N 
ATOM     13  C   UNL     1       5.482   4.309  18.638  0.00  0.00    +0.000 C 
ATOM     14  C   UNL     1       6.241   5.579  18.243  0.00  0.00    +0.000 C 
ATOM     15  O   UNL     1       6.850   5.445  16.953  0.00  0.00    +0.000 OA
ATOM     16  C   UNL     1       5.853   5.188  15.953  0.00  0.00    +0.000 C 
ATOM     17  C   UNL     1       5.102   3.885  16.250  0.00  0.00    +0.000 C 
ENDBRANCH   7  10
TORSDOF 1
ENDMDL
