MODEL 1
REMARK VINA RESULT:      -6.7      0.000      0.000
REMARK  Name = 
REMARK  5 active torsions:
REMARK  status: ('A' for Active; 'I' for Inactive)
REMARK    1  A    between atoms: C_1  and  N_2
REMARK    2  A    between atoms: C_3  and  C_5
REMARK    3  A    between atoms: C_8  and  SE_9
REMARK    4  A    between atoms: SE_9  and  C_10
REMARK    5  A    between atoms: C_10  and  C_11
REMARK                            x       y       z     vdW  Elec       q    Type
REMARK                         _______ _______ _______ _____ _____    ______ ____
ROOT
ATOM      1  C   UNL     1       6.102   5.253  17.479  0.00  0.00    +0.000 A 
ATOM      2  C   UNL     1       5.392   4.537  16.489  0.00  0.00    +0.000 A 
ATOM      3  C   UNL     1       4.492   3.525  16.841  0.00  0.00    +0.000 A 
ATOM      4  C   UNL     1       4.285   3.196  18.182  0.00  0.00    +0.000 A 
ATOM      5  C   UNL     1       4.990   3.884  19.174  0.00  0.00    +0.000 A 
ATOM      6  C   UNL     1       5.889   4.901  18.830  0.00  0.00    +0.000 A 
ENDROOT
BRANCH   1   9
ATOM      7  C   UNL     1       8.138   8.524  17.649  0.00  0.00    +0.000 C 
ATOM      8  N   UNL     1       7.208   7.458  17.959  0.00  0.00    +0.000 N 
ATOM      9  C   UNL     1       7.049   6.370  17.147  0.00  0.00    +0.000 C 
ATOM     10  O   UNL     1       7.716   6.293  16.122  0.00  0.00    +0.000 OA
ATOM     11  H   UNL     1       6.676   7.555  18.832  0.00  0.00    +0.000 HD
ENDBRANCH   1   9
BRANCH   4  12
ATOM     12 SE   UNL     1       2.982   1.865  18.690  0.00  0.00    +0.000 Se
BRANCH  12  13
ATOM     13  C   UNL     1       1.376   2.943  18.373  0.00  0.00    +0.000 C 
BRANCH  13  14
ATOM     14  C   UNL     1       1.645   4.347  18.860  0.00  0.00    +0.000 A 
ATOM     15  C   UNL     1       1.938   5.368  17.939  0.00  0.00    +0.000 A 
ATOM     16  C   UNL     1       2.211   6.667  18.382  0.00  0.00    +0.000 A 
ATOM     17  C   UNL     1       2.194   6.957  19.748  0.00  0.00    +0.000 A 
ATOM     18  C   UNL     1       1.897   5.952  20.673  0.00  0.00    +0.000 A 
ATOM     19  C   UNL     1       1.621   4.652  20.232  0.00  0.00    +0.000 A 
ENDBRANCH  13  14
ENDBRANCH  12  13
ENDBRANCH   4  12
TORSDOF 4
ENDMDL
MODEL 2
REMARK VINA RESULT:      -6.7      0.084      1.144
REMARK  Name = 
REMARK  5 active torsions:
REMARK  status: ('A' for Active; 'I' for Inactive)
REMARK    1  A    between atoms: C_1  and  N_2
REMARK    2  A    between atoms: C_3  and  C_5
REMARK    3  A    between atoms: C_8  and  SE_9
REMARK    4  A    between atoms: SE_9  and  C_10
REMARK    5  A    between atoms: C_10  and  C_11
REMARK                            x       y       z     vdW  Elec       q    Type
REMARK                         _______ _______ _______ _____ _____    ______ ____
ROOT
ATOM      1  C   UNL     1       6.037   5.192  17.456  0.00  0.00    +0.000 A 
ATOM      2  C   UNL     1       5.321   4.467  16.476  0.00  0.00    +0.000 A 
ATOM      3  C   UNL     1       4.423   3.460  16.842  0.00  0.00    +0.000 A 
ATOM      4  C   UNL     1       4.221   3.145  18.187  0.00  0.00    +0.000 A 
ATOM      5  C   UNL     1       4.931   3.842  19.169  0.00  0.00    +0.000 A 
ATOM      6  C   UNL     1       5.829   4.854  18.811  0.00  0.00    +0.000 A 
ENDROOT
BRANCH   1   9
ATOM      7  C   UNL     1       8.097   8.450  17.596  0.00  0.00    +0.000 C 
ATOM      8  N   UNL     1       7.168   7.388  17.922  0.00  0.00    +0.000 N 
ATOM      9  C   UNL     1       6.983   6.305  17.108  0.00  0.00    +0.000 C 
ATOM     10  O   UNL     1       7.627   6.229  16.068  0.00  0.00    +0.000 OA
ATOM     11  H   UNL     1       6.656   7.484  18.807  0.00  0.00    +0.000 HD
ENDBRANCH   1   9
BRANCH   4  12
ATOM     12 SE   UNL     1       2.919   1.820  18.714  0.00  0.00    +0.000 Se
BRANCH  12  13
ATOM     13  C   UNL     1       1.317   2.924  18.472  0.00  0.00    +0.000 C 
BRANCH  13  14
ATOM     14  C   UNL     1       1.648   4.336  18.891  0.00  0.00    +0.000 A 
ATOM     15  C   UNL     1       1.653   4.685  20.253  0.00  0.00    +0.000 A 
ATOM     16  C   UNL     1       1.935   5.997  20.649  0.00  0.00    +0.000 A 
ATOM     17  C   UNL     1       2.214   6.972  19.689  0.00  0.00    +0.000 A 
ATOM     18  C   UNL     1       2.219   6.636  18.333  0.00  0.00    +0.000 A 
ATOM     19  C   UNL     1       1.938   5.323  17.933  0.00  0.00    +0.000 A 
ENDBRANCH  13  14
ENDBRANCH  12  13
ENDBRANCH   4  12
TORSDOF 4
ENDMDL
MODEL 3
REMARK VINA RESULT:      -6.6      2.650      3.825
REMARK  Name = 
REMARK  5 active torsions:
REMARK  status: ('A' for Active; 'I' for Inactive)
REMARK    1  A    between atoms: C_1  and  N_2
REMARK    2  A    between atoms: C_3  and  C_5
REMARK    3  A    between atoms: C_8  and  SE_9
REMARK    4  A    between atoms: SE_9  and  C_10
REMARK    5  A    between atoms: C_10  and  C_11
REMARK                            x       y       z     vdW  Elec       q    Type
REMARK                         _______ _______ _______ _____ _____    ______ ____
ROOT
ATOM      1  C   UNL     1       6.366   4.919  15.141  0.00  0.00    +0.000 A 
ATOM      2  C   UNL     1       6.891   4.309  16.303  0.00  0.00    +0.000 A 
ATOM      3  C   UNL     1       6.395   4.633  17.571  0.00  0.00    +0.000 A 
ATOM      4  C   UNL     1       5.374   5.575  17.712  0.00  0.00    +0.000 A 
ATOM      5  C   UNL     1       4.853   6.199  16.575  0.00  0.00    +0.000 A 
ATOM      6  C   UNL     1       5.341   5.876  15.302  0.00  0.00    +0.000 A 
ENDROOT
BRANCH   1   9
ATOM      7  C   UNL     1       6.832   3.156  11.742  0.00  0.00    +0.000 C 
ATOM      8  N   UNL     1       6.387   3.476  13.083  0.00  0.00    +0.000 N 
ATOM      9  C   UNL     1       6.844   4.572  13.761  0.00  0.00    +0.000 C 
ATOM     10  O   UNL     1       7.656   5.310  13.215  0.00  0.00    +0.000 OA
ATOM     11  H   UNL     1       5.698   2.839  13.501  0.00  0.00    +0.000 HD
ENDBRANCH   1   9
BRANCH   4  12
ATOM     12 SE   UNL     1       4.616   5.968  19.444  0.00  0.00    +0.000 Se
BRANCH  12  13
ATOM     13  C   UNL     1       2.745   6.110  18.880  0.00  0.00    +0.000 C 
BRANCH  13  14
ATOM     14  C   UNL     1       2.120   4.738  18.961  0.00  0.00    +0.000 A 
ATOM     15  C   UNL     1       2.292   3.822  17.908  0.00  0.00    +0.000 A 
ATOM     16  C   UNL     1       1.698   2.556  17.963  0.00  0.00    +0.000 A 
ATOM     17  C   UNL     1       0.928   2.194  19.070  0.00  0.00    +0.000 A 
ATOM     18  C   UNL     1       0.755   3.093  20.126  0.00  0.00    +0.000 A 
ATOM     19  C   UNL     1       1.350   4.360  20.074  0.00  0.00    +0.000 A 
ENDBRANCH  13  14
ENDBRANCH  12  13
ENDBRANCH   4  12
TORSDOF 4
ENDMDL
MODEL 4
REMARK VINA RESULT:      -6.5      3.195      4.331
REMARK  Name = 
REMARK  5 active torsions:
REMARK  status: ('A' for Active; 'I' for Inactive)
REMARK    1  A    between atoms: C_1  and  N_2
REMARK    2  A    between atoms: C_3  and  C_5
REMARK    3  A    between atoms: C_8  and  SE_9
REMARK    4  A    between atoms: SE_9  and  C_10
REMARK    5  A    between atoms: C_10  and  C_11
REMARK                            x       y       z     vdW  Elec       q    Type
REMARK                         _______ _______ _______ _____ _____    ______ ____
ROOT
ATOM      1  C   UNL     1       6.318   4.198  14.051  0.00  0.00    +0.000 A 
ATOM      2  C   UNL     1       7.237   4.946  14.821  0.00  0.00    +0.000 A 
ATOM      3  C   UNL     1       6.902   5.393  16.103  0.00  0.00    +0.000 A 
ATOM      4  C   UNL     1       5.645   5.115  16.645  0.00  0.00    +0.000 A 
ATOM      5  C   UNL     1       4.719   4.389  15.892  0.00  0.00    +0.000 A 
ATOM      6  C   UNL     1       5.048   3.934  14.609  0.00  0.00    +0.000 A 
ENDROOT
BRANCH   1   9
ATOM      7  C   UNL     1       6.543   1.932  10.937  0.00  0.00    +0.000 C 
ATOM      8  N   UNL     1       6.241   2.433  12.262  0.00  0.00    +0.000 N 
ATOM      9  C   UNL     1       6.650   3.667  12.686  0.00  0.00    +0.000 C 
ATOM     10  O   UNL     1       7.293   4.374  11.918  0.00  0.00    +0.000 OA
ATOM     11  H   UNL     1       5.691   1.815  12.871  0.00  0.00    +0.000 HD
ENDBRANCH   1   9
BRANCH   4  12
ATOM     12 SE   UNL     1       5.199   5.647  18.446  0.00  0.00    +0.000 Se
BRANCH  12  13
ATOM     13  C   UNL     1       3.317   6.090  18.126  0.00  0.00    +0.000 C 
BRANCH  13  14
ATOM     14  C   UNL     1       2.463   5.035  18.788  0.00  0.00    +0.000 A 
ATOM     15  C   UNL     1       1.856   4.031  18.013  0.00  0.00    +0.000 A 
ATOM     16  C   UNL     1       1.044   3.063  18.615  0.00  0.00    +0.000 A 
ATOM     17  C   UNL     1       0.831   3.090  19.994  0.00  0.00    +0.000 A 
ATOM     18  C   UNL     1       1.435   4.078  20.776  0.00  0.00    +0.000 A 
ATOM     19  C   UNL     1       2.249   5.047  20.177  0.00  0.00    +0.000 A 
ENDBRANCH  13  14
ENDBRANCH  12  13
ENDBRANCH   4  12
TORSDOF 4
ENDMDL
MODEL 5
REMARK VINA RESULT:      -6.5      0.201      1.156
REMARK  Name = 
REMARK  5 active torsions:
REMARK  status: ('A' for Active; 'I' for Inactive)
REMARK    1  A    between atoms: C_1  and  N_2
REMARK    2  A    between atoms: C_3  and  C_5
REMARK    3  A    between atoms: C_8  and  SE_9
REMARK    4  A    between atoms: SE_9  and  C_10
REMARK    5  A    between atoms: C_10  and  C_11
REMARK                            x       y       z     vdW  Elec       q    Type
REMARK                         _______ _______ _______ _____ _____    ______ ____
ROOT
ATOM      1  C   UNL     1       6.087   5.356  17.505  0.00  0.00    +0.000 A 
ATOM      2  C   UNL     1       5.882   4.924  18.834  0.00  0.00    +0.000 A 
ATOM      3  C   UNL     1       5.006   3.871  19.121  0.00  0.00    +0.000 A 
ATOM      4  C   UNL     1       4.309   3.231  18.094  0.00  0.00    +0.000 A 
ATOM      5  C   UNL     1       4.489   3.654  16.774  0.00  0.00    +0.000 A 
ATOM      6  C   UNL     1       5.367   4.704  16.479  0.00  0.00    +0.000 A 
ENDROOT
BRANCH   1   9
ATOM      7  C   UNL     1       8.194   8.584  17.634  0.00  0.00    +0.000 C 
ATOM      8  N   UNL     1       7.253   7.534  17.967  0.00  0.00    +0.000 N 
ATOM      9  C   UNL     1       7.045   6.457  17.150  0.00  0.00    +0.000 C 
ATOM     10  O   UNL     1       7.676   6.376  16.103  0.00  0.00    +0.000 OA
ATOM     11  H   UNL     1       6.753   7.634  18.857  0.00  0.00    +0.000 HD
ENDBRANCH   1   9
BRANCH   4  12
ATOM     12 SE   UNL     1       3.167   1.718  18.461  0.00  0.00    +0.000 Se
BRANCH  12  13
ATOM     13  C   UNL     1       1.452   2.665  18.383  0.00  0.00    +0.000 C 
BRANCH  13  14
ATOM     14  C   UNL     1       1.669   4.077  18.873  0.00  0.00    +0.000 A 
ATOM     15  C   UNL     1       1.889   5.117  17.953  0.00  0.00    +0.000 A 
ATOM     16  C   UNL     1       2.113   6.424  18.398  0.00  0.00    +0.000 A 
ATOM     17  C   UNL     1       2.121   6.704  19.766  0.00  0.00    +0.000 A 
ATOM     18  C   UNL     1       1.896   5.681  20.691  0.00  0.00    +0.000 A 
ATOM     19  C   UNL     1       1.669   4.372  20.248  0.00  0.00    +0.000 A 
ENDBRANCH  13  14
ENDBRANCH  12  13
ENDBRANCH   4  12
TORSDOF 4
ENDMDL
MODEL 6
REMARK VINA RESULT:      -6.5      2.857      4.132
REMARK  Name = 
REMARK  5 active torsions:
REMARK  status: ('A' for Active; 'I' for Inactive)
REMARK    1  A    between atoms: C_1  and  N_2
REMARK    2  A    between atoms: C_3  and  C_5
REMARK    3  A    between atoms: C_8  and  SE_9
REMARK    4  A    between atoms: SE_9  and  C_10
REMARK    5  A    between atoms: C_10  and  C_11
REMARK                            x       y       z     vdW  Elec       q    Type
REMARK                         _______ _______ _______ _____ _____    ______ ____
ROOT
ATOM      1  C   UNL     1       6.391   4.438  14.693  0.00  0.00    +0.000 A 
ATOM      2  C   UNL     1       7.223   5.266  15.480  0.00  0.00    +0.000 A 
ATOM      3  C   UNL     1       6.876   5.588  16.796  0.00  0.00    +0.000 A 
ATOM      4  C   UNL     1       5.693   5.103  17.356  0.00  0.00    +0.000 A 
ATOM      5  C   UNL     1       4.851   4.295  16.587  0.00  0.00    +0.000 A 
ATOM      6  C   UNL     1       5.193   3.964  15.270  0.00  0.00    +0.000 A 
ENDROOT
BRANCH   1   9
ATOM      7  C   UNL     1       6.605   2.510  11.359  0.00  0.00    +0.000 C 
ATOM      8  N   UNL     1       6.282   2.883  12.721  0.00  0.00    +0.000 N 
ATOM      9  C   UNL     1       6.744   4.038  13.289  0.00  0.00    +0.000 C 
ATOM     10  O   UNL     1       7.452   4.784  12.623  0.00  0.00    +0.000 OA
ATOM     11  H   UNL     1       5.678   2.237  13.241  0.00  0.00    +0.000 HD
ENDBRANCH   1   9
BRANCH   4  12
ATOM     12 SE   UNL     1       5.244   5.464  19.199  0.00  0.00    +0.000 Se
BRANCH  12  13
ATOM     13  C   UNL     1       3.409   6.084  18.900  0.00  0.00    +0.000 C 
BRANCH  13  14
ATOM     14  C   UNL     1       2.465   4.963  19.264  0.00  0.00    +0.000 A 
ATOM     15  C   UNL     1       2.236   4.644  20.614  0.00  0.00    +0.000 A 
ATOM     16  C   UNL     1       1.381   3.592  20.960  0.00  0.00    +0.000 A 
ATOM     17  C   UNL     1       0.748   2.849  19.961  0.00  0.00    +0.000 A 
ATOM     18  C   UNL     1       0.961   3.161  18.616  0.00  0.00    +0.000 A 
ATOM     19  C   UNL     1       1.815   4.215  18.267  0.00  0.00    +0.000 A 
ENDBRANCH  13  14
ENDBRANCH  12  13
ENDBRANCH   4  12
TORSDOF 4
ENDMDL
MODEL 7
REMARK VINA RESULT:      -6.4      0.188      1.623
REMARK  Name = 
REMARK  5 active torsions:
REMARK  status: ('A' for Active; 'I' for Inactive)
REMARK    1  A    between atoms: C_1  and  N_2
REMARK    2  A    between atoms: C_3  and  C_5
REMARK    3  A    between atoms: C_8  and  SE_9
REMARK    4  A    between atoms: SE_9  and  C_10
REMARK    5  A    between atoms: C_10  and  C_11
REMARK                            x       y       z     vdW  Elec       q    Type
REMARK                         _______ _______ _______ _____ _____    ______ ____
ROOT
ATOM      1  C   UNL     1       6.087   5.350  17.488  0.00  0.00    +0.000 A 
ATOM      2  C   UNL     1       5.867   4.923  18.817  0.00  0.00    +0.000 A 
ATOM      3  C   UNL     1       4.982   3.877  19.097  0.00  0.00    +0.000 A 
ATOM      4  C   UNL     1       4.290   3.238  18.066  0.00  0.00    +0.000 A 
ATOM      5  C   UNL     1       4.485   3.657  16.747  0.00  0.00    +0.000 A 
ATOM      6  C   UNL     1       5.373   4.701  16.457  0.00  0.00    +0.000 A 
ENDROOT
BRANCH   1   9
ATOM      7  C   UNL     1       8.214   8.565  17.629  0.00  0.00    +0.000 C 
ATOM      8  N   UNL     1       7.263   7.522  17.955  0.00  0.00    +0.000 N 
ATOM      9  C   UNL     1       7.056   6.444  17.140  0.00  0.00    +0.000 C 
ATOM     10  O   UNL     1       7.697   6.355  16.100  0.00  0.00    +0.000 OA
ATOM     11  H   UNL     1       6.754   7.628  18.840  0.00  0.00    +0.000 HD
ENDBRANCH   1   9
BRANCH   4  12
ATOM     12 SE   UNL     1       3.134   1.735  18.426  0.00  0.00    +0.000 Se
BRANCH  12  13
ATOM     13  C   UNL     1       1.431   2.703  18.385  0.00  0.00    +0.000 C 
BRANCH  13  14
ATOM     14  C   UNL     1       1.675   4.112  18.872  0.00  0.00    +0.000 A 
ATOM     15  C   UNL     1       1.662   4.393  20.250  0.00  0.00    +0.000 A 
ATOM     16  C   UNL     1       1.864   5.699  20.710  0.00  0.00    +0.000 A 
ATOM     17  C   UNL     1       2.081   6.735  19.799  0.00  0.00    +0.000 A 
ATOM     18  C   UNL     1       2.103   6.467  18.428  0.00  0.00    +0.000 A 
ATOM     19  C   UNL     1       1.903   5.160  17.964  0.00  0.00    +0.000 A 
ENDBRANCH  13  14
ENDBRANCH  12  13
ENDBRANCH   4  12
TORSDOF 4
ENDMDL
MODEL 8
REMARK VINA RESULT:      -6.4      2.875      4.043
REMARK  Name = 
REMARK  5 active torsions:
REMARK  status: ('A' for Active; 'I' for Inactive)
REMARK    1  A    between atoms: C_1  and  N_2
REMARK    2  A    between atoms: C_3  and  C_5
REMARK    3  A    between atoms: C_8  and  SE_9
REMARK    4  A    between atoms: SE_9  and  C_10
REMARK    5  A    between atoms: C_10  and  C_11
REMARK                            x       y       z     vdW  Elec       q    Type
REMARK                         _______ _______ _______ _____ _____    ______ ____
ROOT
ATOM      1  C   UNL     1       6.351   4.325  14.791  0.00  0.00    +0.000 A 
ATOM      2  C   UNL     1       5.020   4.212  15.250  0.00  0.00    +0.000 A 
ATOM      3  C   UNL     1       4.686   4.528  16.571  0.00  0.00    +0.000 A 
ATOM      4  C   UNL     1       5.668   4.955  17.467  0.00  0.00    +0.000 A 
ATOM      5  C   UNL     1       6.993   5.059  17.035  0.00  0.00    +0.000 A 
ATOM      6  C   UNL     1       7.334   4.749  15.713  0.00  0.00    +0.000 A 
ENDROOT
BRANCH   1   9
ATOM      7  C   UNL     1       6.697   2.632  11.343  0.00  0.00    +0.000 C 
ATOM      8  N   UNL     1       6.335   2.903  12.719  0.00  0.00    +0.000 N 
ATOM      9  C   UNL     1       6.746   4.032  13.373  0.00  0.00    +0.000 C 
ATOM     10  O   UNL     1       7.443   4.843  12.774  0.00  0.00    +0.000 OA
ATOM     11  H   UNL     1       5.741   2.205  13.181  0.00  0.00    +0.000 HD
ENDBRANCH   1   9
BRANCH   4  12
ATOM     12 SE   UNL     1       5.211   5.481  19.268  0.00  0.00    +0.000 Se
BRANCH  12  13
ATOM     13  C   UNL     1       3.330   5.925  18.937  0.00  0.00    +0.000 C 
BRANCH  13  14
ATOM     14  C   UNL     1       2.476   4.805  19.480  0.00  0.00    +0.000 A 
ATOM     15  C   UNL     1       2.467   4.530  20.859  0.00  0.00    +0.000 A 
ATOM     16  C   UNL     1       1.697   3.479  21.368  0.00  0.00    +0.000 A 
ATOM     17  C   UNL     1       0.930   2.693  20.506  0.00  0.00    +0.000 A 
ATOM     18  C   UNL     1       0.925   2.960  19.134  0.00  0.00    +0.000 A 
ATOM     19  C   UNL     1       1.694   4.013  18.621  0.00  0.00    +0.000 A 
ENDBRANCH  13  14
ENDBRANCH  12  13
ENDBRANCH   4  12
TORSDOF 4
ENDMDL
MODEL 9
REMARK VINA RESULT:      -6.3      2.924      4.145
REMARK  Name = 
REMARK  5 active torsions:
REMARK  status: ('A' for Active; 'I' for Inactive)
REMARK    1  A    between atoms: C_1  and  N_2
REMARK    2  A    between atoms: C_3  and  C_5
REMARK    3  A    between atoms: C_8  and  SE_9
REMARK    4  A    between atoms: SE_9  and  C_10
REMARK    5  A    between atoms: C_10  and  C_11
REMARK                            x       y       z     vdW  Elec       q    Type
REMARK                         _______ _______ _______ _____ _____    ______ ____
ROOT
ATOM      1  C   UNL     1       6.398   4.341  14.610  0.00  0.00    +0.000 A 
ATOM      2  C   UNL     1       7.332   4.930  15.491  0.00  0.00    +0.000 A 
ATOM      3  C   UNL     1       6.985   5.228  16.813  0.00  0.00    +0.000 A 
ATOM      4  C   UNL     1       5.700   4.956  17.286  0.00  0.00    +0.000 A 
ATOM      5  C   UNL     1       4.758   4.386  16.425  0.00  0.00    +0.000 A 
ATOM      6  C   UNL     1       5.099   4.081  15.102  0.00  0.00    +0.000 A 
ENDROOT
BRANCH   1   9
ATOM      7  C   UNL     1       6.622   2.466  11.247  0.00  0.00    +0.000 C 
ATOM      8  N   UNL     1       6.309   2.810  12.619  0.00  0.00    +0.000 N 
ATOM      9  C   UNL     1       6.741   3.972  13.196  0.00  0.00    +0.000 C 
ATOM     10  O   UNL     1       7.413   4.750  12.530  0.00  0.00    +0.000 OA
ATOM     11  H   UNL     1       5.734   2.137  13.140  0.00  0.00    +0.000 HD
ENDBRANCH   1   9
BRANCH   4  12
ATOM     12 SE   UNL     1       5.230   5.276  19.131  0.00  0.00    +0.000 Se
BRANCH  12  13
ATOM     13  C   UNL     1       4.789   3.428  19.610  0.00  0.00    +0.000 C 
BRANCH  13  14
ATOM     14  C   UNL     1       3.285   3.293  19.646  0.00  0.00    +0.000 A 
ATOM     15  C   UNL     1       2.641   2.364  18.810  0.00  0.00    +0.000 A 
ATOM     16  C   UNL     1       1.246   2.250  18.819  0.00  0.00    +0.000 A 
ATOM     17  C   UNL     1       0.484   3.061  19.662  0.00  0.00    +0.000 A 
ATOM     18  C   UNL     1       1.113   3.983  20.502  0.00  0.00    +0.000 A 
ATOM     19  C   UNL     1       2.509   4.099  20.497  0.00  0.00    +0.000 A 
ENDBRANCH  13  14
ENDBRANCH  12  13
ENDBRANCH   4  12
TORSDOF 4
ENDMDL
