MODEL 1
REMARK VINA RESULT:      -7.4      0.000      0.000
REMARK  Name = 
REMARK  1 active torsions:
REMARK  status: ('A' for Active; 'I' for Inactive)
REMARK    1  A    between atoms: C_7  and  C_8
REMARK                            x       y       z     vdW  Elec       q    Type
REMARK                         _______ _______ _______ _____ _____    ______ ____
ROOT
ATOM      1  N   UNL     1       6.347   3.582  13.642  0.00  0.00    +0.000 N 
ATOM      2  C   UNL     1       6.377   4.325  14.770  0.00  0.00    +0.000 C 
ATOM      3  N   UNL     1       7.201   5.284  15.011  0.00  0.00    +0.000 NA
ATOM      4  C   UNL     1       7.008   5.845  16.257  0.00  0.00    +0.000 C 
ATOM      5  O   UNL     1       7.662   6.767  16.723  0.00  0.00    +0.000 OA
ATOM      6  C   UNL     1       5.891   5.179  16.994  0.00  0.00    +0.000 C 
ATOM      7  C   UNL     1       5.545   5.517  18.245  0.00  0.00    +0.000 C 
ATOM      8  S   UNL     1       5.197   3.960  15.999  0.00  0.00    +0.000 S 
ATOM      9  H   UNL     1       6.836   3.990  12.853  0.00  0.00    +0.000 HD
ATOM     10  H   UNL     1       5.470   3.130  13.420  0.00  0.00    +0.000 HD
ENDROOT
BRANCH   7  11
ATOM     11  C   UNL     1       4.450   4.890  18.997  0.00  0.00    +0.000 A 
ATOM     12  C   UNL     1       4.647   3.601  19.514  0.00  0.00    +0.000 A 
ATOM     13  C   UNL     1       3.616   2.950  20.197  0.00  0.00    +0.000 A 
ATOM     14  C   UNL     1       2.388   3.584  20.367  0.00  0.00    +0.000 A 
ATOM     15 CL   UNL     1       1.115   2.771  21.190  0.00  0.00    +0.000 Cl
ATOM     16  C   UNL     1       2.179   4.868  19.871  0.00  0.00    +0.000 A 
ATOM     17  C   UNL     1       3.208   5.520  19.188  0.00  0.00    +0.000 A 
ATOM     18 CL   UNL     1       2.898   7.112  18.588  0.00  0.00    +0.000 Cl
ENDBRANCH   7  11
TORSDOF 1
ENDMDL
MODEL 2
REMARK VINA RESULT:      -6.9      1.989      2.454
REMARK  Name = 
REMARK  1 active torsions:
REMARK  status: ('A' for Active; 'I' for Inactive)
REMARK    1  A    between atoms: C_7  and  C_8
REMARK                            x       y       z     vdW  Elec       q    Type
REMARK                         _______ _______ _______ _____ _____    ______ ____
ROOT
ATOM      1  N   UNL     1       7.400   7.549  17.104  0.00  0.00    +0.000 N 
ATOM      2  C   UNL     1       6.703   6.436  16.784  0.00  0.00    +0.000 C 
ATOM      3  N   UNL     1       6.738   5.834  15.647  0.00  0.00    +0.000 NA
ATOM      4  C   UNL     1       5.901   4.738  15.604  0.00  0.00    +0.000 C 
ATOM      5  O   UNL     1       5.752   4.003  14.638  0.00  0.00    +0.000 OA
ATOM      6  C   UNL     1       5.174   4.550  16.897  0.00  0.00    +0.000 C 
ATOM      7  C   UNL     1       4.268   3.578  17.084  0.00  0.00    +0.000 C 
ATOM      8  S   UNL     1       5.676   5.755  18.016  0.00  0.00    +0.000 S 
ATOM      9  H   UNL     1       8.182   7.750  16.490  0.00  0.00    +0.000 HD
ATOM     10  H   UNL     1       7.571   7.710  18.088  0.00  0.00    +0.000 HD
ENDROOT
BRANCH   7  11
ATOM     11  C   UNL     1       3.540   3.359  18.340  0.00  0.00    +0.000 A 
ATOM     12  C   UNL     1       4.195   2.690  19.384  0.00  0.00    +0.000 A 
ATOM     13  C   UNL     1       3.524   2.419  20.580  0.00  0.00    +0.000 A 
ATOM     14  C   UNL     1       2.199   2.818  20.737  0.00  0.00    +0.000 A 
ATOM     15 CL   UNL     1       1.370   2.465  22.202  0.00  0.00    +0.000 Cl
ATOM     16  C   UNL     1       1.536   3.494  19.715  0.00  0.00    +0.000 A 
ATOM     17  C   UNL     1       2.206   3.764  18.520  0.00  0.00    +0.000 A 
ATOM     18 CL   UNL     1       1.339   4.603  17.280  0.00  0.00    +0.000 Cl
ENDBRANCH   7  11
TORSDOF 1
ENDMDL
MODEL 3
REMARK VINA RESULT:      -6.9      2.501      3.065
REMARK  Name = 
REMARK  1 active torsions:
REMARK  status: ('A' for Active; 'I' for Inactive)
REMARK    1  A    between atoms: C_7  and  C_8
REMARK                            x       y       z     vdW  Elec       q    Type
REMARK                         _______ _______ _______ _____ _____    ______ ____
ROOT
ATOM      1  N   UNL     1       8.410   6.828  18.834  0.00  0.00    +0.000 N 
ATOM      2  C   UNL     1       7.246   6.556  18.203  0.00  0.00    +0.000 C 
ATOM      3  N   UNL     1       6.943   6.920  17.006  0.00  0.00    +0.000 NA
ATOM      4  C   UNL     1       5.675   6.519  16.638  0.00  0.00    +0.000 C 
ATOM      5  O   UNL     1       5.152   6.743  15.556  0.00  0.00    +0.000 OA
ATOM      6  C   UNL     1       4.993   5.771  17.738  0.00  0.00    +0.000 C 
ATOM      7  C   UNL     1       3.734   5.320  17.635  0.00  0.00    +0.000 C 
ATOM      8  S   UNL     1       6.060   5.629  19.079  0.00  0.00    +0.000 S 
ATOM      9  H   UNL     1       9.169   7.107  18.223  0.00  0.00    +0.000 HD
ATOM     10  H   UNL     1       8.671   6.210  19.591  0.00  0.00    +0.000 HD
ENDROOT
BRANCH   7  11
ATOM     11  C   UNL     1       3.034   4.576  18.691  0.00  0.00    +0.000 A 
ATOM     12  C   UNL     1       2.386   5.301  19.702  0.00  0.00    +0.000 A 
ATOM     13  C   UNL     1       1.747   4.634  20.750  0.00  0.00    +0.000 A 
ATOM     14  C   UNL     1       1.751   3.242  20.790  0.00  0.00    +0.000 A 
ATOM     15 CL   UNL     1       0.981   2.425  22.093  0.00  0.00    +0.000 Cl
ATOM     16  C   UNL     1       2.380   2.506  19.789  0.00  0.00    +0.000 A 
ATOM     17  C   UNL     1       3.019   3.172  18.742  0.00  0.00    +0.000 A 
ATOM     18 CL   UNL     1       3.788   2.213  17.524  0.00  0.00    +0.000 Cl
ENDBRANCH   7  11
TORSDOF 1
ENDMDL
MODEL 4
REMARK VINA RESULT:      -6.8      2.090      2.537
REMARK  Name = 
REMARK  1 active torsions:
REMARK  status: ('A' for Active; 'I' for Inactive)
REMARK    1  A    between atoms: C_7  and  C_8
REMARK                            x       y       z     vdW  Elec       q    Type
REMARK                         _______ _______ _______ _____ _____    ______ ____
ROOT
ATOM      1  N   UNL     1       8.430   7.216  18.601  0.00  0.00    +0.000 N 
ATOM      2  C   UNL     1       7.301   6.789  17.993  0.00  0.00    +0.000 C 
ATOM      3  N   UNL     1       6.994   6.995  16.760  0.00  0.00    +0.000 NA
ATOM      4  C   UNL     1       5.766   6.461  16.426  0.00  0.00    +0.000 C 
ATOM      5  O   UNL     1       5.247   6.525  15.320  0.00  0.00    +0.000 OA
ATOM      6  C   UNL     1       5.121   5.789  17.596  0.00  0.00    +0.000 C 
ATOM      7  C   UNL     1       3.901   5.236  17.532  0.00  0.00    +0.000 C 
ATOM      8  S   UNL     1       6.171   5.878  18.955  0.00  0.00    +0.000 S 
ATOM      9  H   UNL     1       9.177   7.482  17.969  0.00  0.00    +0.000 HD
ATOM     10  H   UNL     1       8.722   6.706  19.424  0.00  0.00    +0.000 HD
ENDROOT
BRANCH   7  11
ATOM     11  C   UNL     1       3.239   4.563  18.656  0.00  0.00    +0.000 A 
ATOM     12  C   UNL     1       3.319   3.165  18.739  0.00  0.00    +0.000 A 
ATOM     13  C   UNL     1       2.666   2.480  19.767  0.00  0.00    +0.000 A 
ATOM     14  C   UNL     1       1.934   3.189  20.716  0.00  0.00    +0.000 A 
ATOM     15 CL   UNL     1       1.114   2.340  21.968  0.00  0.00    +0.000 Cl
ATOM     16  C   UNL     1       1.853   4.577  20.657  0.00  0.00    +0.000 A 
ATOM     17  C   UNL     1       2.505   5.262  19.629  0.00  0.00    +0.000 A 
ATOM     18 CL   UNL     1       2.372   6.987  19.597  0.00  0.00    +0.000 Cl
ENDBRANCH   7  11
TORSDOF 1
ENDMDL
MODEL 5
REMARK VINA RESULT:      -6.7      1.328      1.328
REMARK  Name = 
REMARK  1 active torsions:
REMARK  status: ('A' for Active; 'I' for Inactive)
REMARK    1  A    between atoms: C_7  and  C_8
REMARK                            x       y       z     vdW  Elec       q    Type
REMARK                         _______ _______ _______ _____ _____    ______ ____
ROOT
ATOM      1  N   UNL     1       6.948   4.138  12.866  0.00  0.00    +0.000 N 
ATOM      2  C   UNL     1       6.761   4.637  14.109  0.00  0.00    +0.000 C 
ATOM      3  N   UNL     1       7.536   5.479  14.699  0.00  0.00    +0.000 NA
ATOM      4  C   UNL     1       7.106   5.789  15.973  0.00  0.00    +0.000 C 
ATOM      5  O   UNL     1       7.669   6.558  16.738  0.00  0.00    +0.000 OA
ATOM      6  C   UNL     1       5.852   5.054  16.324  0.00  0.00    +0.000 C 
ATOM      7  C   UNL     1       5.267   5.154  17.526  0.00  0.00    +0.000 C 
ATOM      8  S   UNL     1       5.352   4.103  14.982  0.00  0.00    +0.000 S 
ATOM      9  H   UNL     1       7.592   4.667  12.289  0.00  0.00    +0.000 HD
ATOM     10  H   UNL     1       6.125   3.792  12.389  0.00  0.00    +0.000 HD
ENDROOT
BRANCH   7  11
ATOM     11  C   UNL     1       4.033   4.455  17.905  0.00  0.00    +0.000 A 
ATOM     12  C   UNL     1       4.069   3.058  18.035  0.00  0.00    +0.000 A 
ATOM     13  C   UNL     1       2.907   2.348  18.349  0.00  0.00    +0.000 A 
ATOM     14  C   UNL     1       1.707   3.030  18.537  0.00  0.00    +0.000 A 
ATOM     15 CL   UNL     1       0.275   2.151  18.903  0.00  0.00    +0.000 Cl
ATOM     16  C   UNL     1       1.655   4.417  18.424  0.00  0.00    +0.000 A 
ATOM     17  C   UNL     1       2.815   5.127  18.109  0.00  0.00    +0.000 A 
ATOM     18 CL   UNL     1       2.698   6.848  17.976  0.00  0.00    +0.000 Cl
ENDBRANCH   7  11
TORSDOF 1
ENDMDL
MODEL 6
REMARK VINA RESULT:      -6.6      1.298      1.366
REMARK  Name = 
REMARK  1 active torsions:
REMARK  status: ('A' for Active; 'I' for Inactive)
REMARK    1  A    between atoms: C_7  and  C_8
REMARK                            x       y       z     vdW  Elec       q    Type
REMARK                         _______ _______ _______ _____ _____    ______ ____
ROOT
ATOM      1  N   UNL     1       7.368   5.291  14.097  0.00  0.00    +0.000 N 
ATOM      2  C   UNL     1       7.048   5.545  15.385  0.00  0.00    +0.000 C 
ATOM      3  N   UNL     1       7.727   6.284  16.191  0.00  0.00    +0.000 NA
ATOM      4  C   UNL     1       7.169   6.340  17.452  0.00  0.00    +0.000 C 
ATOM      5  O   UNL     1       7.625   6.970  18.396  0.00  0.00    +0.000 OA
ATOM      6  C   UNL     1       5.924   5.518  17.540  0.00  0.00    +0.000 C 
ATOM      7  C   UNL     1       5.229   5.376  18.679  0.00  0.00    +0.000 C 
ATOM      8  S   UNL     1       5.592   4.817  16.006  0.00  0.00    +0.000 S 
ATOM      9  H   UNL     1       8.037   5.936  13.691  0.00  0.00    +0.000 HD
ATOM     10  H   UNL     1       6.609   5.015  13.487  0.00  0.00    +0.000 HD
ENDROOT
BRANCH   7  11
ATOM     11  C   UNL     1       3.999   4.583  18.802  0.00  0.00    +0.000 A 
ATOM     12  C   UNL     1       4.108   3.231  19.160  0.00  0.00    +0.000 A 
ATOM     13  C   UNL     1       2.968   2.429  19.244  0.00  0.00    +0.000 A 
ATOM     14  C   UNL     1       1.715   2.974  18.974  0.00  0.00    +0.000 A 
ATOM     15 CL   UNL     1       0.315   1.977  19.059  0.00  0.00    +0.000 Cl
ATOM     16  C   UNL     1       1.586   4.317  18.629  0.00  0.00    +0.000 A 
ATOM     17  C   UNL     1       2.725   5.119  18.544  0.00  0.00    +0.000 A 
ATOM     18 CL   UNL     1       2.513   6.780  18.108  0.00  0.00    +0.000 Cl
ENDBRANCH   7  11
TORSDOF 1
ENDMDL
MODEL 7
REMARK VINA RESULT:      -6.6      2.184      2.695
REMARK  Name = 
REMARK  1 active torsions:
REMARK  status: ('A' for Active; 'I' for Inactive)
REMARK    1  A    between atoms: C_7  and  C_8
REMARK                            x       y       z     vdW  Elec       q    Type
REMARK                         _______ _______ _______ _____ _____    ______ ____
ROOT
ATOM      1  N   UNL     1       8.387   6.930  19.105  0.00  0.00    +0.000 N 
ATOM      2  C   UNL     1       7.607   6.396  18.139  0.00  0.00    +0.000 C 
ATOM      3  N   UNL     1       7.834   6.464  16.874  0.00  0.00    +0.000 NA
ATOM      4  C   UNL     1       6.850   5.847  16.128  0.00  0.00    +0.000 C 
ATOM      5  O   UNL     1       6.832   5.777  14.907  0.00  0.00    +0.000 OA
ATOM      6  C   UNL     1       5.780   5.270  16.997  0.00  0.00    +0.000 C 
ATOM      7  C   UNL     1       4.693   4.662  16.501  0.00  0.00    +0.000 C 
ATOM      8  S   UNL     1       6.178   5.539  18.648  0.00  0.00    +0.000 S 
ATOM      9  H   UNL     1       9.328   7.163  18.809  0.00  0.00    +0.000 HD
ATOM     10  H   UNL     1       8.313   6.519  20.026  0.00  0.00    +0.000 HD
ENDROOT
BRANCH   7  11
ATOM     11  C   UNL     1       3.625   4.077  17.323  0.00  0.00    +0.000 A 
ATOM     12  C   UNL     1       3.575   2.682  17.460  0.00  0.00    +0.000 A 
ATOM     13  C   UNL     1       2.550   2.081  18.195  0.00  0.00    +0.000 A 
ATOM     14  C   UNL     1       1.574   2.871  18.797  0.00  0.00    +0.000 A 
ATOM     15 CL   UNL     1       0.302   2.127  19.684  0.00  0.00    +0.000 Cl
ATOM     16  C   UNL     1       1.614   4.258  18.681  0.00  0.00    +0.000 A 
ATOM     17  C   UNL     1       2.638   4.859  17.946  0.00  0.00    +0.000 A 
ATOM     18 CL   UNL     1       2.643   6.586  17.829  0.00  0.00    +0.000 Cl
ENDBRANCH   7  11
TORSDOF 1
ENDMDL
MODEL 8
REMARK VINA RESULT:      -6.6      2.640      3.035
REMARK  Name = 
REMARK  1 active torsions:
REMARK  status: ('A' for Active; 'I' for Inactive)
REMARK    1  A    between atoms: C_7  and  C_8
REMARK                            x       y       z     vdW  Elec       q    Type
REMARK                         _______ _______ _______ _____ _____    ______ ____
ROOT
ATOM      1  N   UNL     1       8.765   5.444  20.247  0.00  0.00    +0.000 N 
ATOM      2  C   UNL     1       7.846   5.768  19.311  0.00  0.00    +0.000 C 
ATOM      3  N   UNL     1       7.988   6.673  18.407  0.00  0.00    +0.000 NA
ATOM      4  C   UNL     1       6.872   6.798  17.606  0.00  0.00    +0.000 C 
ATOM      5  O   UNL     1       6.755   7.588  16.679  0.00  0.00    +0.000 OA
ATOM      6  C   UNL     1       5.793   5.847  18.012  0.00  0.00    +0.000 C 
ATOM      7  C   UNL     1       4.593   5.813  17.413  0.00  0.00    +0.000 C 
ATOM      8  S   UNL     1       6.345   4.883  19.324  0.00  0.00    +0.000 S 
ATOM      9  H   UNL     1       9.707   5.759  20.044  0.00  0.00    +0.000 HD
ATOM     10  H   UNL     1       8.697   4.517  20.648  0.00  0.00    +0.000 HD
ENDROOT
BRANCH   7  11
ATOM     11  C   UNL     1       3.512   4.889  17.779  0.00  0.00    +0.000 A 
ATOM     12  C   UNL     1       3.466   3.634  17.155  0.00  0.00    +0.000 A 
ATOM     13  C   UNL     1       2.429   2.741  17.440  0.00  0.00    +0.000 A 
ATOM     14  C   UNL     1       1.438   3.099  18.351  0.00  0.00    +0.000 A 
ATOM     15 CL   UNL     1       0.152   2.006  18.684  0.00  0.00    +0.000 Cl
ATOM     16  C   UNL     1       1.474   4.336  18.989  0.00  0.00    +0.000 A 
ATOM     17  C   UNL     1       2.510   5.228  18.704  0.00  0.00    +0.000 A 
ATOM     18 CL   UNL     1       2.509   6.754  19.520  0.00  0.00    +0.000 Cl
ENDBRANCH   7  11
TORSDOF 1
ENDMDL
MODEL 9
REMARK VINA RESULT:      -6.6      4.104      6.148
REMARK  Name = 
REMARK  1 active torsions:
REMARK  status: ('A' for Active; 'I' for Inactive)
REMARK    1  A    between atoms: C_7  and  C_8
REMARK                            x       y       z     vdW  Elec       q    Type
REMARK                         _______ _______ _______ _____ _____    ______ ____
ROOT
ATOM      1  N   UNL     1       2.201   7.275  20.196  0.00  0.00    +0.000 N 
ATOM      2  C   UNL     1       2.746   6.103  19.800  0.00  0.00    +0.000 C 
ATOM      3  N   UNL     1       2.605   4.974  20.401  0.00  0.00    +0.000 NA
ATOM      4  C   UNL     1       3.298   3.955  19.779  0.00  0.00    +0.000 C 
ATOM      5  O   UNL     1       3.328   2.792  20.155  0.00  0.00    +0.000 OA
ATOM      6  C   UNL     1       4.032   4.446  18.573  0.00  0.00    +0.000 C 
ATOM      7  C   UNL     1       4.816   3.651  17.829  0.00  0.00    +0.000 C 
ATOM      8  S   UNL     1       3.714   6.121  18.352  0.00  0.00    +0.000 S 
ATOM      9  H   UNL     1       1.433   7.186  20.852  0.00  0.00    +0.000 HD
ATOM     10  H   UNL     1       2.079   7.982  19.483  0.00  0.00    +0.000 HD
ENDROOT
BRANCH   7  11
ATOM     11  C   UNL     1       5.546   4.095  16.634  0.00  0.00    +0.000 A 
ATOM     12  C   UNL     1       4.934   3.942  15.381  0.00  0.00    +0.000 A 
ATOM     13  C   UNL     1       5.612   4.309  14.216  0.00  0.00    +0.000 A 
ATOM     14  C   UNL     1       6.900   4.831  14.298  0.00  0.00    +0.000 A 
ATOM     15 CL   UNL     1       7.738   5.262  12.859  0.00  0.00    +0.000 Cl
ATOM     16  C   UNL     1       7.518   5.001  15.534  0.00  0.00    +0.000 A 
ATOM     17  C   UNL     1       6.843   4.634  16.699  0.00  0.00    +0.000 A 
ATOM     18 CL   UNL     1       7.654   4.862  18.210  0.00  0.00    +0.000 Cl
ENDBRANCH   7  11
TORSDOF 1
ENDMDL
