MODEL 1
REMARK VINA RESULT:      -7.8      0.000      0.000
REMARK  Name = 
REMARK  7 active torsions:
REMARK  status: ('A' for Active; 'I' for Inactive)
REMARK    1  A    between atoms: C_1  and  C_2
REMARK    2  A    between atoms: C_2  and  C_3
REMARK    3  A    between atoms: C_2  and  N_4
REMARK    4  A    between atoms: C_10  and  N_11
REMARK    5  A    between atoms: C_12  and  C_14
REMARK    6  A    between atoms: C_18  and  N_19
REMARK    7  A    between atoms: C_26  and  C_27
REMARK                            x       y       z     vdW  Elec       q    Type
REMARK                         _______ _______ _______ _____ _____    ______ ____
ROOT
ATOM      1  N   UNL     1      -2.030  13.799  22.553  0.00  0.00    +0.000 NA
ATOM      2  C   UNL     1      -1.625  14.176  21.164  0.00  0.00    +0.000 C 
ATOM      3  C   UNL     1      -1.911  13.065  20.125  0.00  0.00    +0.000 C 
ATOM      4  C   UNL     1      -1.302  11.776  20.595  0.00  0.00    +0.000 A 
ATOM      5  C   UNL     1      -0.928  11.623  21.917  0.00  0.00    +0.000 A 
ATOM      6  S   UNL     1      -0.101  10.147  22.168  0.00  0.00    +0.000 S 
ATOM      7  C   UNL     1      -0.211   9.753  20.511  0.00  0.00    +0.000 A 
ATOM      8  C   UNL     1      -1.078  10.587  19.821  0.00  0.00    +0.000 A 
ATOM      9  C   UNL     1      -1.132  12.676  22.988  0.00  0.00    +0.000 C 
ENDROOT
BRANCH   8  10
ATOM     10  C   UNL     1      -1.649  10.345  18.497  0.00  0.00    +0.000 C 
ATOM     11  N   UNL     1      -0.953  10.864  17.441  0.00  0.00    +0.000 N 
ATOM     12  O   UNL     1      -2.610   9.606  18.288  0.00  0.00    +0.000 OA
ATOM     13  H   UNL     1      -0.055  11.306  17.561  0.00  0.00    +0.000 HD
ATOM     14  H   UNL     1      -1.246  10.578  16.518  0.00  0.00    +0.000 HD
ENDBRANCH   8  10
BRANCH   7  15
ATOM     15  N   UNL     1       0.585   8.694  20.083  0.00  0.00    +0.000 N 
ATOM     16  C   UNL     1       1.572   8.965  19.131  0.00  0.00    +0.000 C 
ATOM     17  O   UNL     1       1.792  10.104  18.717  0.00  0.00    +0.000 OA
ATOM     18  H   UNL     1       0.754   7.929  20.723  0.00  0.00    +0.000 HD
BRANCH  16  19
ATOM     19  C   UNL     1       2.409   7.864  18.665  0.00  0.00    +0.000 A 
ATOM     20  C   UNL     1       3.305   7.966  17.617  0.00  0.00    +0.000 A 
ATOM     21  C   UNL     1       3.976   6.747  17.302  0.00  0.00    +0.000 A 
ATOM     22  C   UNL     1       4.963   6.481  16.321  0.00  0.00    +0.000 A 
ATOM     23  C   UNL     1       5.490   5.189  16.196  0.00  0.00    +0.000 A 
ATOM     24  C   UNL     1       5.035   4.154  17.012  0.00  0.00    +0.000 A 
ATOM     25  C   UNL     1       4.049   4.400  17.980  0.00  0.00    +0.000 A 
ATOM     26  C   UNL     1       3.537   5.709  18.125  0.00  0.00    +0.000 A 
ATOM     27  S   UNL     1       2.355   6.272  19.264  0.00  0.00    +0.000 S 
BRANCH  23  28
ATOM     28  N   UNL     1       6.542   4.936  15.200  0.00  0.00    +0.000 N 
ATOM     29  O   UNL     1       7.523   5.694  15.193  0.00  0.00    +0.000 OA
ATOM     30  O   UNL     1       6.389   3.977  14.432  0.00  0.00    +0.000 OA
ENDBRANCH  23  28
ENDBRANCH  16  19
ENDBRANCH   7  15
BRANCH   1  32
ATOM     31  C   UNL     1      -3.879  12.668  23.878  0.00  0.00    +0.000 C 
ATOM     32  C   UNL     1      -3.485  13.496  22.644  0.00  0.00    +0.000 C 
ATOM     33  C   UNL     1      -4.361  14.771  22.694  0.00  0.00    +0.000 C 
ENDBRANCH   1  32
TORSDOF 5
ENDMDL
MODEL 2
REMARK VINA RESULT:      -7.7      1.349      1.785
REMARK  Name = 
REMARK  7 active torsions:
REMARK  status: ('A' for Active; 'I' for Inactive)
REMARK    1  A    between atoms: C_1  and  C_2
REMARK    2  A    between atoms: C_2  and  C_3
REMARK    3  A    between atoms: C_2  and  N_4
REMARK    4  A    between atoms: C_10  and  N_11
REMARK    5  A    between atoms: C_12  and  C_14
REMARK    6  A    between atoms: C_18  and  N_19
REMARK    7  A    between atoms: C_26  and  C_27
REMARK                            x       y       z     vdW  Elec       q    Type
REMARK                         _______ _______ _______ _____ _____    ______ ____
ROOT
ATOM      1  N   UNL     1      -2.260  13.227  23.209  0.00  0.00    +0.000 NA
ATOM      2  C   UNL     1      -0.946  13.931  23.099  0.00  0.00    +0.000 C 
ATOM      3  C   UNL     1      -0.246  13.704  21.737  0.00  0.00    +0.000 C 
ATOM      4  C   UNL     1      -0.159  12.230  21.462  0.00  0.00    +0.000 A 
ATOM      5  C   UNL     1      -0.950  11.342  22.167  0.00  0.00    +0.000 A 
ATOM      6  S   UNL     1      -0.545   9.720  21.807  0.00  0.00    +0.000 S 
ATOM      7  C   UNL     1       0.704  10.218  20.757  0.00  0.00    +0.000 A 
ATOM      8  C   UNL     1       0.655  11.576  20.477  0.00  0.00    +0.000 A 
ATOM      9  C   UNL     1      -1.976  11.752  23.206  0.00  0.00    +0.000 C 
ENDROOT
BRANCH   8  10
ATOM     10  C   UNL     1       1.348  12.266  19.390  0.00  0.00    +0.000 C 
ATOM     11  N   UNL     1       0.689  12.312  18.194  0.00  0.00    +0.000 N 
ATOM     12  O   UNL     1       2.392  12.901  19.535  0.00  0.00    +0.000 OA
ATOM     13  H   UNL     1      -0.256  11.974  18.092  0.00  0.00    +0.000 HD
ATOM     14  H   UNL     1       1.080  12.913  17.481  0.00  0.00    +0.000 HD
ENDBRANCH   8  10
BRANCH   7  15
ATOM     15  N   UNL     1       1.595   9.227  20.357  0.00  0.00    +0.000 N 
ATOM     16  C   UNL     1       1.503   8.759  19.044  0.00  0.00    +0.000 C 
ATOM     17  O   UNL     1       0.711   9.235  18.230  0.00  0.00    +0.000 OA
ATOM     18  H   UNL     1       2.504   9.189  20.801  0.00  0.00    +0.000 HD
BRANCH  16  19
ATOM     19  C   UNL     1       2.424   7.713  18.612  0.00  0.00    +0.000 A 
ATOM     20  C   UNL     1       3.269   7.829  17.523  0.00  0.00    +0.000 A 
ATOM     21  C   UNL     1       4.043   6.660  17.258  0.00  0.00    +0.000 A 
ATOM     22  C   UNL     1       5.015   6.423  16.256  0.00  0.00    +0.000 A 
ATOM     23  C   UNL     1       5.660   5.181  16.190  0.00  0.00    +0.000 A 
ATOM     24  C   UNL     1       5.336   4.164  17.088  0.00  0.00    +0.000 A 
ATOM     25  C   UNL     1       4.366   4.381  18.079  0.00  0.00    +0.000 A 
ATOM     26  C   UNL     1       3.736   5.642  18.163  0.00  0.00    +0.000 A 
ATOM     27  S   UNL     1       2.547   6.166  19.312  0.00  0.00    +0.000 S 
BRANCH  23  28
ATOM     28  N   UNL     1       6.695   4.963  15.168  0.00  0.00    +0.000 N 
ATOM     29  O   UNL     1       6.497   4.074  14.328  0.00  0.00    +0.000 OA
ATOM     30  O   UNL     1       7.700   5.685  15.204  0.00  0.00    +0.000 OA
ENDBRANCH  23  28
ENDBRANCH  16  19
ENDBRANCH   7  15
BRANCH   1  32
ATOM     31  C   UNL     1      -4.513  12.846  22.098  0.00  0.00    +0.000 C 
ATOM     32  C   UNL     1      -3.218  13.672  22.159  0.00  0.00    +0.000 C 
ATOM     33  C   UNL     1      -3.664  15.144  22.341  0.00  0.00    +0.000 C 
ENDBRANCH   1  32
TORSDOF 5
ENDMDL
MODEL 3
REMARK VINA RESULT:      -7.2      1.130      1.259
REMARK  Name = 
REMARK  7 active torsions:
REMARK  status: ('A' for Active; 'I' for Inactive)
REMARK    1  A    between atoms: C_1  and  C_2
REMARK    2  A    between atoms: C_2  and  C_3
REMARK    3  A    between atoms: C_2  and  N_4
REMARK    4  A    between atoms: C_10  and  N_11
REMARK    5  A    between atoms: C_12  and  C_14
REMARK    6  A    between atoms: C_18  and  N_19
REMARK    7  A    between atoms: C_26  and  C_27
REMARK                            x       y       z     vdW  Elec       q    Type
REMARK                         _______ _______ _______ _____ _____    ______ ____
ROOT
ATOM      1  N   UNL     1      -1.596  13.946  21.891  0.00  0.00    +0.000 NA
ATOM      2  C   UNL     1      -1.734  14.240  20.432  0.00  0.00    +0.000 C 
ATOM      3  C   UNL     1      -2.039  12.982  19.583  0.00  0.00    +0.000 C 
ATOM      4  C   UNL     1      -1.021  11.920  19.885  0.00  0.00    +0.000 A 
ATOM      5  C   UNL     1      -0.241  12.006  21.023  0.00  0.00    +0.000 A 
ATOM      6  S   UNL     1       0.958  10.787  21.055  0.00  0.00    +0.000 S 
ATOM      7  C   UNL     1       0.456  10.191  19.537  0.00  0.00    +0.000 A 
ATOM      8  C   UNL     1      -0.756  10.729  19.128  0.00  0.00    +0.000 A 
ATOM      9  C   UNL     1      -0.364  13.105  22.061  0.00  0.00    +0.000 C 
ENDROOT
BRANCH   8  10
ATOM     10  C   UNL     1      -1.621  10.217  18.067  0.00  0.00    +0.000 C 
ATOM     11  N   UNL     1      -2.953  10.495  18.195  0.00  0.00    +0.000 N 
ATOM     12  O   UNL     1      -1.206   9.691  17.035  0.00  0.00    +0.000 OA
ATOM     13  H   UNL     1      -3.305  11.094  18.925  0.00  0.00    +0.000 HD
ATOM     14  H   UNL     1      -3.541  10.284  17.400  0.00  0.00    +0.000 HD
ENDBRANCH   8  10
BRANCH   7  15
ATOM     15  N   UNL     1       1.319   9.291  18.919  0.00  0.00    +0.000 N 
ATOM     16  C   UNL     1       1.625   8.110  19.600  0.00  0.00    +0.000 C 
ATOM     17  O   UNL     1       1.112   7.822  20.682  0.00  0.00    +0.000 OA
ATOM     18  H   UNL     1       1.344   9.265  17.908  0.00  0.00    +0.000 HD
BRANCH  16  19
ATOM     19  C   UNL     1       2.537   7.161  18.970  0.00  0.00    +0.000 A 
ATOM     20  C   UNL     1       3.302   7.450  17.855  0.00  0.00    +0.000 A 
ATOM     21  C   UNL     1       4.081   6.352  17.381  0.00  0.00    +0.000 A 
ATOM     22  C   UNL     1       4.987   6.285  16.294  0.00  0.00    +0.000 A 
ATOM     23  C   UNL     1       5.653   5.084  16.016  0.00  0.00    +0.000 A 
ATOM     24  C   UNL     1       5.413   3.945  16.784  0.00  0.00    +0.000 A 
ATOM     25  C   UNL     1       4.510   3.994  17.857  0.00  0.00    +0.000 A 
ATOM     26  C   UNL     1       3.859   5.212  18.154  0.00  0.00    +0.000 A 
ATOM     27  S   UNL     1       2.741   5.538  19.440  0.00  0.00    +0.000 S 
BRANCH  23  28
ATOM     28  N   UNL     1       6.620   5.038  14.909  0.00  0.00    +0.000 N 
ATOM     29  O   UNL     1       6.316   4.378  13.905  0.00  0.00    +0.000 OA
ATOM     30  O   UNL     1       7.677   5.669  15.042  0.00  0.00    +0.000 OA
ENDBRANCH  23  28
ENDBRANCH  16  19
ENDBRANCH   7  15
BRANCH   1  32
ATOM     31  C   UNL     1      -2.583  12.184  23.433  0.00  0.00    +0.000 C 
ATOM     32  C   UNL     1      -2.836  13.342  22.455  0.00  0.00    +0.000 C 
ATOM     33  C   UNL     1      -3.702  14.367  23.228  0.00  0.00    +0.000 C 
ENDBRANCH   1  32
TORSDOF 5
ENDMDL
MODEL 4
REMARK VINA RESULT:      -7.2      2.489      2.965
REMARK  Name = 
REMARK  7 active torsions:
REMARK  status: ('A' for Active; 'I' for Inactive)
REMARK    1  A    between atoms: C_1  and  C_2
REMARK    2  A    between atoms: C_2  and  C_3
REMARK    3  A    between atoms: C_2  and  N_4
REMARK    4  A    between atoms: C_10  and  N_11
REMARK    5  A    between atoms: C_12  and  C_14
REMARK    6  A    between atoms: C_18  and  N_19
REMARK    7  A    between atoms: C_26  and  C_27
REMARK                            x       y       z     vdW  Elec       q    Type
REMARK                         _______ _______ _______ _____ _____    ______ ____
ROOT
ATOM      1  N   UNL     1      -2.019  15.473  22.990  0.00  0.00    +0.000 NA
ATOM      2  C   UNL     1      -1.376  15.785  21.676  0.00  0.00    +0.000 C 
ATOM      3  C   UNL     1      -1.791  14.808  20.549  0.00  0.00    +0.000 C 
ATOM      4  C   UNL     1      -1.562  13.397  21.006  0.00  0.00    +0.000 A 
ATOM      5  C   UNL     1      -1.393  13.117  22.349  0.00  0.00    +0.000 A 
ATOM      6  S   UNL     1      -0.972  11.479  22.600  0.00  0.00    +0.000 S 
ATOM      7  C   UNL     1      -0.975  11.174  20.922  0.00  0.00    +0.000 A 
ATOM      8  C   UNL     1      -1.534  12.213  20.193  0.00  0.00    +0.000 A 
ATOM      9  C   UNL     1      -1.468  14.155  23.452  0.00  0.00    +0.000 C 
ENDROOT
BRANCH   8  10
ATOM     10  C   UNL     1      -1.986  12.156  18.803  0.00  0.00    +0.000 C 
ATOM     11  N   UNL     1      -1.108  12.632  17.869  0.00  0.00    +0.000 N 
ATOM     12  O   UNL     1      -3.018  11.595  18.439  0.00  0.00    +0.000 OA
ATOM     13  H   UNL     1      -0.173  12.917  18.113  0.00  0.00    +0.000 HD
ATOM     14  H   UNL     1      -1.338  12.460  16.900  0.00  0.00    +0.000 HD
ENDBRANCH   8  10
BRANCH   7  15
ATOM     15  N   UNL     1      -0.405   9.970  20.520  0.00  0.00    +0.000 N 
ATOM     16  C   UNL     1       0.884  10.006  19.982  0.00  0.00    +0.000 C 
ATOM     17  O   UNL     1       1.539  11.047  19.913  0.00  0.00    +0.000 OA
ATOM     18  H   UNL     1      -0.686   9.122  20.995  0.00  0.00    +0.000 HD
BRANCH  16  19
ATOM     19  C   UNL     1       1.492   8.753  19.547  0.00  0.00    +0.000 A 
ATOM     20  C   UNL     1       1.613   7.634  20.351  0.00  0.00    +0.000 A 
ATOM     21  C   UNL     1       2.288   6.540  19.730  0.00  0.00    +0.000 A 
ATOM     22  C   UNL     1       2.571   5.247  20.232  0.00  0.00    +0.000 A 
ATOM     23  C   UNL     1       3.251   4.321  19.429  0.00  0.00    +0.000 A 
ATOM     24  C   UNL     1       3.674   4.670  18.147  0.00  0.00    +0.000 A 
ATOM     25  C   UNL     1       3.410   5.952  17.641  0.00  0.00    +0.000 A 
ATOM     26  C   UNL     1       2.701   6.876  18.440  0.00  0.00    +0.000 A 
ATOM     27  S   UNL     1       2.220   8.492  18.031  0.00  0.00    +0.000 S 
BRANCH  23  28
ATOM     28  N   UNL     1       3.504   2.969  19.949  0.00  0.00    +0.000 N 
ATOM     29  O   UNL     1       3.154   2.724  21.112  0.00  0.00    +0.000 OA
ATOM     30  O   UNL     1       4.045   2.153  19.190  0.00  0.00    +0.000 OA
ENDBRANCH  23  28
ENDBRANCH  16  19
ENDBRANCH   7  15
BRANCH   1  32
ATOM     31  C   UNL     1      -4.225  14.870  24.096  0.00  0.00    +0.000 C 
ATOM     32  C   UNL     1      -3.505  15.526  22.907  0.00  0.00    +0.000 C 
ATOM     33  C   UNL     1      -4.050  16.973  22.829  0.00  0.00    +0.000 C 
ENDBRANCH   1  32
TORSDOF 5
ENDMDL
MODEL 5
REMARK VINA RESULT:      -7.0      1.683      2.308
REMARK  Name = 
REMARK  7 active torsions:
REMARK  status: ('A' for Active; 'I' for Inactive)
REMARK    1  A    between atoms: C_1  and  C_2
REMARK    2  A    between atoms: C_2  and  C_3
REMARK    3  A    between atoms: C_2  and  N_4
REMARK    4  A    between atoms: C_10  and  N_11
REMARK    5  A    between atoms: C_12  and  C_14
REMARK    6  A    between atoms: C_18  and  N_19
REMARK    7  A    between atoms: C_26  and  C_27
REMARK                            x       y       z     vdW  Elec       q    Type
REMARK                         _______ _______ _______ _____ _____    ______ ____
ROOT
ATOM      1  N   UNL     1      -1.875  14.376  20.853  0.00  0.00    +0.000 NA
ATOM      2  C   UNL     1      -2.804  13.207  20.784  0.00  0.00    +0.000 C 
ATOM      3  C   UNL     1      -2.290  11.974  21.566  0.00  0.00    +0.000 C 
ATOM      4  C   UNL     1      -0.892  11.652  21.122  0.00  0.00    +0.000 A 
ATOM      5  C   UNL     1      -0.146  12.590  20.433  0.00  0.00    +0.000 A 
ATOM      6  S   UNL     1       1.333  11.933  19.882  0.00  0.00    +0.000 S 
ATOM      7  C   UNL     1       0.944  10.402  20.526  0.00  0.00    +0.000 A 
ATOM      8  C   UNL     1      -0.159  10.442  21.365  0.00  0.00    +0.000 A 
ATOM      9  C   UNL     1      -0.624  13.993  20.114  0.00  0.00    +0.000 C 
ENDROOT
BRANCH   8  10
ATOM     10  C   UNL     1      -0.564   9.410  22.319  0.00  0.00    +0.000 C 
ATOM     11  N   UNL     1      -0.796   9.835  23.598  0.00  0.00    +0.000 N 
ATOM     12  O   UNL     1      -0.831   8.251  22.006  0.00  0.00    +0.000 OA
ATOM     13  H   UNL     1      -0.780  10.812  23.846  0.00  0.00    +0.000 HD
ATOM     14  H   UNL     1      -1.222   9.170  24.228  0.00  0.00    +0.000 HD
ENDBRANCH   8  10
BRANCH   7  15
ATOM     15  N   UNL     1       1.747   9.344  20.110  0.00  0.00    +0.000 N 
ATOM     16  C   UNL     1       1.654   8.941  18.775  0.00  0.00    +0.000 C 
ATOM     17  O   UNL     1       0.940   9.525  17.959  0.00  0.00    +0.000 OA
ATOM     18  H   UNL     1       2.632   9.198  20.579  0.00  0.00    +0.000 HD
BRANCH  16  19
ATOM     19  C   UNL     1       2.482   7.826  18.327  0.00  0.00    +0.000 A 
ATOM     20  C   UNL     1       3.402   7.913  17.297  0.00  0.00    +0.000 A 
ATOM     21  C   UNL     1       4.060   6.683  16.997  0.00  0.00    +0.000 A 
ATOM     22  C   UNL     1       5.062   6.401  16.037  0.00  0.00    +0.000 A 
ATOM     23  C   UNL     1       5.572   5.101  15.924  0.00  0.00    +0.000 A 
ATOM     24  C   UNL     1       5.084   4.074  16.731  0.00  0.00    +0.000 A 
ATOM     25  C   UNL     1       4.083   4.337  17.679  0.00  0.00    +0.000 A 
ATOM     26  C   UNL     1       3.588   5.653  17.812  0.00  0.00    +0.000 A 
ATOM     27  S   UNL     1       2.392   6.236  18.926  0.00  0.00    +0.000 S 
BRANCH  23  28
ATOM     28  N   UNL     1       6.640   4.831  14.949  0.00  0.00    +0.000 N 
ATOM     29  O   UNL     1       6.461   3.911  14.139  0.00  0.00    +0.000 OA
ATOM     30  O   UNL     1       7.651   5.544  14.991  0.00  0.00    +0.000 OA
ENDBRANCH  23  28
ENDBRANCH  16  19
ENDBRANCH   7  15
BRANCH   1  32
ATOM     31  C   UNL     1      -0.314  15.555  22.475  0.00  0.00    +0.000 C 
ATOM     32  C   UNL     1      -1.649  14.825  22.255  0.00  0.00    +0.000 C 
ATOM     33  C   UNL     1      -2.748  15.793  22.758  0.00  0.00    +0.000 C 
ENDBRANCH   1  32
TORSDOF 5
ENDMDL
MODEL 6
REMARK VINA RESULT:      -7.0      2.507      3.099
REMARK  Name = 
REMARK  7 active torsions:
REMARK  status: ('A' for Active; 'I' for Inactive)
REMARK    1  A    between atoms: C_1  and  C_2
REMARK    2  A    between atoms: C_2  and  C_3
REMARK    3  A    between atoms: C_2  and  N_4
REMARK    4  A    between atoms: C_10  and  N_11
REMARK    5  A    between atoms: C_12  and  C_14
REMARK    6  A    between atoms: C_18  and  N_19
REMARK    7  A    between atoms: C_26  and  C_27
REMARK                            x       y       z     vdW  Elec       q    Type
REMARK                         _______ _______ _______ _____ _____    ______ ____
ROOT
ATOM      1  N   UNL     1      -1.813  14.401  23.253  0.00  0.00    +0.000 NA
ATOM      2  C   UNL     1      -0.424  14.927  23.087  0.00  0.00    +0.000 C 
ATOM      3  C   UNL     1       0.220  14.530  21.736  0.00  0.00    +0.000 C 
ATOM      4  C   UNL     1       0.119  13.043  21.556  0.00  0.00    +0.000 A 
ATOM      5  C   UNL     1      -0.764  12.306  22.323  0.00  0.00    +0.000 A 
ATOM      6  S   UNL     1      -0.569  10.627  22.064  0.00  0.00    +0.000 S 
ATOM      7  C   UNL     1       0.715  10.898  20.974  0.00  0.00    +0.000 A 
ATOM      8  C   UNL     1       0.830  12.231  20.608  0.00  0.00    +0.000 A 
ATOM      9  C   UNL     1      -1.714  12.905  23.341  0.00  0.00    +0.000 C 
ENDROOT
BRANCH   8  10
ATOM     10  C   UNL     1       1.586  12.760  19.474  0.00  0.00    +0.000 C 
ATOM     11  N   UNL     1       0.987  12.647  18.251  0.00  0.00    +0.000 N 
ATOM     12  O   UNL     1       2.631  13.400  19.583  0.00  0.00    +0.000 OA
ATOM     13  H   UNL     1       0.043  12.306  18.148  0.00  0.00    +0.000 HD
ATOM     14  H   UNL     1       1.421  13.141  17.483  0.00  0.00    +0.000 HD
ENDBRANCH   8  10
BRANCH   7  15
ATOM     15  N   UNL     1       1.470   9.781  20.632  0.00  0.00    +0.000 N 
ATOM     16  C   UNL     1       1.216   9.177  19.397  0.00  0.00    +0.000 C 
ATOM     17  O   UNL     1       0.402   9.635  18.595  0.00  0.00    +0.000 OA
ATOM     18  H   UNL     1       2.407   9.700  21.005  0.00  0.00    +0.000 HD
BRANCH  16  19
ATOM     19  C   UNL     1       1.993   7.998  19.028  0.00  0.00    +0.000 A 
ATOM     20  C   UNL     1       2.009   6.824  19.759  0.00  0.00    +0.000 A 
ATOM     21  C   UNL     1       2.882   5.823  19.236  0.00  0.00    +0.000 A 
ATOM     22  C   UNL     1       3.136   4.509  19.699  0.00  0.00    +0.000 A 
ATOM     23  C   UNL     1       4.043   3.691  19.012  0.00  0.00    +0.000 A 
ATOM     24  C   UNL     1       4.719   4.168  17.889  0.00  0.00    +0.000 A 
ATOM     25  C   UNL     1       4.486   5.472  17.426  0.00  0.00    +0.000 A 
ATOM     26  C   UNL     1       3.551   6.287  18.102  0.00  0.00    +0.000 A 
ATOM     27  S   UNL     1       3.062   7.904  17.707  0.00  0.00    +0.000 S 
BRANCH  23  28
ATOM     28  N   UNL     1       4.267   2.316  19.481  0.00  0.00    +0.000 N 
ATOM     29  O   UNL     1       3.799   1.391  18.801  0.00  0.00    +0.000 OA
ATOM     30  O   UNL     1       4.917   2.162  20.524  0.00  0.00    +0.000 OA
ENDBRANCH  23  28
ENDBRANCH  16  19
ENDBRANCH   7  15
BRANCH   1  32
ATOM     31  C   UNL     1      -4.047  14.117  22.075  0.00  0.00    +0.000 C 
ATOM     32  C   UNL     1      -2.726  14.896  22.184  0.00  0.00    +0.000 C 
ATOM     33  C   UNL     1      -3.124  16.379  22.377  0.00  0.00    +0.000 C 
ENDBRANCH   1  32
TORSDOF 5
ENDMDL
MODEL 7
REMARK VINA RESULT:      -7.0      1.444      1.851
REMARK  Name = 
REMARK  7 active torsions:
REMARK  status: ('A' for Active; 'I' for Inactive)
REMARK    1  A    between atoms: C_1  and  C_2
REMARK    2  A    between atoms: C_2  and  C_3
REMARK    3  A    between atoms: C_2  and  N_4
REMARK    4  A    between atoms: C_10  and  N_11
REMARK    5  A    between atoms: C_12  and  C_14
REMARK    6  A    between atoms: C_18  and  N_19
REMARK    7  A    between atoms: C_26  and  C_27
REMARK                            x       y       z     vdW  Elec       q    Type
REMARK                         _______ _______ _______ _____ _____    ______ ____
ROOT
ATOM      1  N   UNL     1      -2.731  14.851  22.823  0.00  0.00    +0.000 NA
ATOM      2  C   UNL     1      -1.627  15.599  22.148  0.00  0.00    +0.000 C 
ATOM      3  C   UNL     1      -1.223  14.987  20.785  0.00  0.00    +0.000 C 
ATOM      4  C   UNL     1      -0.932  13.525  20.963  0.00  0.00    +0.000 A 
ATOM      5  C   UNL     1      -1.368  12.860  22.094  0.00  0.00    +0.000 A 
ATOM      6  S   UNL     1      -0.765  11.261  22.153  0.00  0.00    +0.000 S 
ATOM      7  C   UNL     1       0.102  11.487  20.701  0.00  0.00    +0.000 A 
ATOM      8  C   UNL     1      -0.256  12.654  20.043  0.00  0.00    +0.000 A 
ATOM      9  C   UNL     1      -2.191  13.500  23.195  0.00  0.00    +0.000 C 
ENDROOT
BRANCH   8  10
ATOM     10  C   UNL     1       0.037  12.993  18.651  0.00  0.00    +0.000 C 
ATOM     11  N   UNL     1      -0.980  12.793  17.760  0.00  0.00    +0.000 N 
ATOM     12  O   UNL     1       1.066  13.557  18.283  0.00  0.00    +0.000 OA
ATOM     13  H   UNL     1      -1.903  12.518  18.057  0.00  0.00    +0.000 HD
ATOM     14  H   UNL     1      -0.849  13.163  16.828  0.00  0.00    +0.000 HD
ENDBRANCH   8  10
BRANCH   7  15
ATOM     15  N   UNL     1       1.047  10.511  20.397  0.00  0.00    +0.000 N 
ATOM     16  C   UNL     1       0.757   9.627  19.354  0.00  0.00    +0.000 C 
ATOM     17  O   UNL     1      -0.263   9.726  18.671  0.00  0.00    +0.000 OA
ATOM     18  H   UNL     1       2.022  10.711  20.580  0.00  0.00    +0.000 HD
BRANCH  16  19
ATOM     19  C   UNL     1       1.733   8.591  19.030  0.00  0.00    +0.000 A 
ATOM     20  C   UNL     1       2.522   8.603  17.895  0.00  0.00    +0.000 A 
ATOM     21  C   UNL     1       3.367   7.461  17.759  0.00  0.00    +0.000 A 
ATOM     22  C   UNL     1       4.312   7.145  16.753  0.00  0.00    +0.000 A 
ATOM     23  C   UNL     1       5.041   5.951  16.832  0.00  0.00    +0.000 A 
ATOM     24  C   UNL     1       4.827   5.057  17.880  0.00  0.00    +0.000 A 
ATOM     25  C   UNL     1       3.886   5.351  18.878  0.00  0.00    +0.000 A 
ATOM     26  C   UNL     1       3.170   6.567  18.813  0.00  0.00    +0.000 A 
ATOM     27  S   UNL     1       1.994   7.174  19.935  0.00  0.00    +0.000 S 
BRANCH  23  28
ATOM     28  N   UNL     1       6.047   5.655  15.801  0.00  0.00    +0.000 N 
ATOM     29  O   UNL     1       7.217   6.001  16.020  0.00  0.00    +0.000 OA
ATOM     30  O   UNL     1       5.667   5.071  14.777  0.00  0.00    +0.000 OA
ENDBRANCH  23  28
ENDBRANCH  16  19
ENDBRANCH   7  15
BRANCH   1  32
ATOM     31  C   UNL     1      -4.962  13.713  22.393  0.00  0.00    +0.000 C 
ATOM     32  C   UNL     1      -3.966  14.813  21.991  0.00  0.00    +0.000 C 
ATOM     33  C   UNL     1      -4.761  16.141  22.039  0.00  0.00    +0.000 C 
ENDBRANCH   1  32
TORSDOF 5
ENDMDL
MODEL 8
REMARK VINA RESULT:      -6.8      3.130      4.344
REMARK  Name = 
REMARK  7 active torsions:
REMARK  status: ('A' for Active; 'I' for Inactive)
REMARK    1  A    between atoms: C_1  and  C_2
REMARK    2  A    between atoms: C_2  and  C_3
REMARK    3  A    between atoms: C_2  and  N_4
REMARK    4  A    between atoms: C_10  and  N_11
REMARK    5  A    between atoms: C_12  and  C_14
REMARK    6  A    between atoms: C_18  and  N_19
REMARK    7  A    between atoms: C_26  and  C_27
REMARK                            x       y       z     vdW  Elec       q    Type
REMARK                         _______ _______ _______ _____ _____    ______ ____
ROOT
ATOM      1  N   UNL     1      -3.361  15.288  25.256  0.00  0.00    +0.000 NA
ATOM      2  C   UNL     1      -1.887  15.439  25.456  0.00  0.00    +0.000 C 
ATOM      3  C   UNL     1      -1.099  15.534  24.127  0.00  0.00    +0.000 C 
ATOM      4  C   UNL     1      -1.467  14.374  23.248  0.00  0.00    +0.000 A 
ATOM      5  C   UNL     1      -2.608  13.638  23.505  0.00  0.00    +0.000 A 
ATOM      6  S   UNL     1      -2.716  12.270  22.485  0.00  0.00    +0.000 S 
ATOM      7  C   UNL     1      -1.224  12.647  21.747  0.00  0.00    +0.000 A 
ATOM      8  C   UNL     1      -0.774  13.918  22.075  0.00  0.00    +0.000 A 
ATOM      9  C   UNL     1      -3.587  13.946  24.621  0.00  0.00    +0.000 C 
ENDROOT
BRANCH   8  10
ATOM     10  C   UNL     1       0.271  14.675  21.388  0.00  0.00    +0.000 C 
ATOM     11  N   UNL     1       1.558  14.330  21.691  0.00  0.00    +0.000 N 
ATOM     12  O   UNL     1       0.053  15.478  20.482  0.00  0.00    +0.000 OA
ATOM     13  H   UNL     1       1.774  13.542  22.281  0.00  0.00    +0.000 HD
ATOM     14  H   UNL     1       2.285  14.733  21.116  0.00  0.00    +0.000 HD
ENDBRANCH   8  10
BRANCH   7  15
ATOM     15  N   UNL     1      -0.663  11.646  20.960  0.00  0.00    +0.000 N 
ATOM     16  C   UNL     1       0.142  10.695  21.593  0.00  0.00    +0.000 C 
ATOM     17  O   UNL     1       0.313  10.684  22.813  0.00  0.00    +0.000 OA
ATOM     18  H   UNL     1      -1.156  11.356  20.125  0.00  0.00    +0.000 HD
BRANCH  16  19
ATOM     19  C   UNL     1       0.746   9.644  20.780  0.00  0.00    +0.000 A 
ATOM     20  C   UNL     1       1.062   8.385  21.257  0.00  0.00    +0.000 A 
ATOM     21  C   UNL     1       1.693   7.539  20.296  0.00  0.00    +0.000 A 
ATOM     22  C   UNL     1       2.131   6.198  20.417  0.00  0.00    +0.000 A 
ATOM     23  C   UNL     1       2.727   5.558  19.322  0.00  0.00    +0.000 A 
ATOM     24  C   UNL     1       2.918   6.239  18.120  0.00  0.00    +0.000 A 
ATOM     25  C   UNL     1       2.499   7.572  17.989  0.00  0.00    +0.000 A 
ATOM     26  C   UNL     1       1.873   8.208  19.084  0.00  0.00    +0.000 A 
ATOM     27  S   UNL     1       1.236   9.820  19.160  0.00  0.00    +0.000 S 
BRANCH  23  28
ATOM     28  N   UNL     1       3.142   4.153  19.450  0.00  0.00    +0.000 N 
ATOM     29  O   UNL     1       3.687   3.622  18.472  0.00  0.00    +0.000 OA
ATOM     30  O   UNL     1       2.928   3.586  20.530  0.00  0.00    +0.000 OA
ENDBRANCH  23  28
ENDBRANCH  16  19
ENDBRANCH   7  15
BRANCH   1  32
ATOM     31  C   UNL     1      -5.397  16.224  24.061  0.00  0.00    +0.000 C 
ATOM     32  C   UNL     1      -3.939  16.433  24.500  0.00  0.00    +0.000 C 
ATOM     33  C   UNL     1      -3.926  17.753  25.309  0.00  0.00    +0.000 C 
ENDBRANCH   1  32
TORSDOF 5
ENDMDL
MODEL 9
REMARK VINA RESULT:      -6.7      2.731      3.064
REMARK  Name = 
REMARK  7 active torsions:
REMARK  status: ('A' for Active; 'I' for Inactive)
REMARK    1  A    between atoms: C_1  and  C_2
REMARK    2  A    between atoms: C_2  and  C_3
REMARK    3  A    between atoms: C_2  and  N_4
REMARK    4  A    between atoms: C_10  and  N_11
REMARK    5  A    between atoms: C_12  and  C_14
REMARK    6  A    between atoms: C_18  and  N_19
REMARK    7  A    between atoms: C_26  and  C_27
REMARK                            x       y       z     vdW  Elec       q    Type
REMARK                         _______ _______ _______ _____ _____    ______ ____
ROOT
ATOM      1  N   UNL     1      -0.305  16.021  21.374  0.00  0.00    +0.000 NA
ATOM      2  C   UNL     1      -0.606  16.048  19.910  0.00  0.00    +0.000 C 
ATOM      3  C   UNL     1      -1.201  14.718  19.386  0.00  0.00    +0.000 C 
ATOM      4  C   UNL     1      -0.307  13.581  19.791  0.00  0.00    +0.000 A 
ATOM      5  C   UNL     1       0.632  13.755  20.790  0.00  0.00    +0.000 A 
ATOM      6  S   UNL     1       1.642  12.384  20.946  0.00  0.00    +0.000 S 
ATOM      7  C   UNL     1       0.850  11.598  19.655  0.00  0.00    +0.000 A 
ATOM      8  C   UNL     1      -0.321  12.240  19.278  0.00  0.00    +0.000 A 
ATOM      9  C   UNL     1       0.811  15.037  21.579  0.00  0.00    +0.000 C 
ENDROOT
BRANCH   8  10
ATOM     10  C   UNL     1      -1.391  11.683  18.453  0.00  0.00    +0.000 C 
ATOM     11  N   UNL     1      -1.521  12.217  17.201  0.00  0.00    +0.000 N 
ATOM     12  O   UNL     1      -2.062  10.701  18.768  0.00  0.00    +0.000 OA
ATOM     13  H   UNL     1      -0.861  12.887  16.836  0.00  0.00    +0.000 HD
ATOM     14  H   UNL     1      -2.149  11.743  16.567  0.00  0.00    +0.000 HD
ENDBRANCH   8  10
BRANCH   7  15
ATOM     15  N   UNL     1       1.484  10.467  19.149  0.00  0.00    +0.000 N 
ATOM     16  C   UNL     1       1.281   9.255  19.815  0.00  0.00    +0.000 C 
ATOM     17  O   UNL     1       0.523   9.152  20.780  0.00  0.00    +0.000 OA
ATOM     18  H   UNL     1       1.676  10.426  18.157  0.00  0.00    +0.000 HD
BRANCH  16  19
ATOM     19  C   UNL     1       1.947   8.061  19.303  0.00  0.00    +0.000 A 
ATOM     20  C   UNL     1       2.060   6.877  20.009  0.00  0.00    +0.000 A 
ATOM     21  C   UNL     1       2.798   5.861  19.330  0.00  0.00    +0.000 A 
ATOM     22  C   UNL     1       3.093   4.535  19.729  0.00  0.00    +0.000 A 
ATOM     23  C   UNL     1       3.839   3.704  18.884  0.00  0.00    +0.000 A 
ATOM     24  C   UNL     1       4.318   4.177  17.663  0.00  0.00    +0.000 A 
ATOM     25  C   UNL     1       4.043   5.493  17.260  0.00  0.00    +0.000 A 
ATOM     26  C   UNL     1       3.266   6.323  18.099  0.00  0.00    +0.000 A 
ATOM     27  S   UNL     1       2.760   7.957  17.811  0.00  0.00    +0.000 S 
BRANCH  23  28
ATOM     28  N   UNL     1       4.106   2.316  19.294  0.00  0.00    +0.000 N 
ATOM     29  O   UNL     1       3.581   1.409  18.633  0.00  0.00    +0.000 OA
ATOM     30  O   UNL     1       4.844   2.137  20.271  0.00  0.00    +0.000 OA
ENDBRANCH  23  28
ENDBRANCH  16  19
ENDBRANCH   7  15
BRANCH   1  32
ATOM     31  C   UNL     1      -1.230  15.246  23.609  0.00  0.00    +0.000 C 
ATOM     32  C   UNL     1      -1.523  15.750  22.187  0.00  0.00    +0.000 C 
ATOM     33  C   UNL     1      -2.419  17.001  22.358  0.00  0.00    +0.000 C 
ENDBRANCH   1  32
TORSDOF 5
ENDMDL
