MODEL 1
REMARK VINA RESULT:      -4.8      0.000      0.000
REMARK  Name = 
REMARK  3 active torsions:
REMARK  status: ('A' for Active; 'I' for Inactive)
REMARK    1  A    between atoms: C_1  and  C_2
REMARK    2  A    between atoms: C_2  and  C_3
REMARK    3  A    between atoms: C_4  and  C_5
REMARK                            x       y       z     vdW  Elec       q    Type
REMARK                         _______ _______ _______ _____ _____    ______ ____
ROOT
ATOM      1  C   UNL     1       1.700   3.133  21.582  0.00  0.00    +0.000 C 
ATOM      2  C   UNL     1       2.105   4.034  20.432  0.00  0.00    +0.000 C 
ATOM      3  C   UNL     1       1.708   5.474  20.672  0.00  0.00    +0.000 C 
ATOM      4  C   UNL     1       3.397   3.762  19.666  0.00  0.00    +0.000 C 
ATOM      5  C   UNL     1       2.068   3.489  19.006  0.00  0.00    +0.000 C 
ATOM      6 CL   UNL     1       1.502   1.843  18.727  0.00  0.00    +0.000 Cl
ATOM      7 CL   UNL     1       1.620   4.559  17.664  0.00  0.00    +0.000 Cl
ENDROOT
BRANCH   4   8
ATOM      8  C   UNL     1       4.265   2.671  20.003  0.00  0.00    +0.000 C 
ATOM      9  N   UNL     1       4.958   1.779  20.255  0.00  0.00    +0.000 NA
ENDBRANCH   4   8
TORSDOF 1
ENDMDL
MODEL 2
REMARK VINA RESULT:      -4.7      1.972      3.008
REMARK  Name = 
REMARK  3 active torsions:
REMARK  status: ('A' for Active; 'I' for Inactive)
REMARK    1  A    between atoms: C_1  and  C_2
REMARK    2  A    between atoms: C_2  and  C_3
REMARK    3  A    between atoms: C_4  and  C_5
REMARK                            x       y       z     vdW  Elec       q    Type
REMARK                         _______ _______ _______ _____ _____    ______ ____
ROOT
ATOM      1  C   UNL     1       1.859   4.341  17.877  0.00  0.00    +0.000 C 
ATOM      2  C   UNL     1       1.861   3.257  18.937  0.00  0.00    +0.000 C 
ATOM      3  C   UNL     1       0.874   2.154  18.622  0.00  0.00    +0.000 C 
ATOM      4  C   UNL     1       3.160   2.880  19.642  0.00  0.00    +0.000 C 
ATOM      5  C   UNL     1       2.097   3.638  20.396  0.00  0.00    +0.000 C 
ATOM      6 CL   UNL     1       2.305   5.337  20.821  0.00  0.00    +0.000 Cl
ATOM      7 CL   UNL     1       1.262   2.751  21.686  0.00  0.00    +0.000 Cl
ENDROOT
BRANCH   4   8
ATOM      8  C   UNL     1       4.407   3.518  19.330  0.00  0.00    +0.000 C 
ATOM      9  N   UNL     1       5.420   4.013  19.067  0.00  0.00    +0.000 NA
ENDBRANCH   4   8
TORSDOF 1
ENDMDL
MODEL 3
REMARK VINA RESULT:      -4.7      2.204      2.849
REMARK  Name = 
REMARK  3 active torsions:
REMARK  status: ('A' for Active; 'I' for Inactive)
REMARK    1  A    between atoms: C_1  and  C_2
REMARK    2  A    between atoms: C_2  and  C_3
REMARK    3  A    between atoms: C_4  and  C_5
REMARK                            x       y       z     vdW  Elec       q    Type
REMARK                         _______ _______ _______ _____ _____    ______ ____
ROOT
ATOM      1  C   UNL     1       1.699   2.301  18.452  0.00  0.00    +0.000 C 
ATOM      2  C   UNL     1       2.154   3.688  18.864  0.00  0.00    +0.000 C 
ATOM      3  C   UNL     1       1.748   4.741  17.856  0.00  0.00    +0.000 C 
ATOM      4  C   UNL     1       2.181   4.077  20.339  0.00  0.00    +0.000 C 
ATOM      5  C   UNL     1       3.479   3.851  19.604  0.00  0.00    +0.000 C 
ATOM      6 CL   UNL     1       4.475   2.429  19.913  0.00  0.00    +0.000 Cl
ATOM      7 CL   UNL     1       4.481   5.287  19.315  0.00  0.00    +0.000 Cl
ENDROOT
BRANCH   4   8
ATOM      8  C   UNL     1       1.778   3.167  21.372  0.00  0.00    +0.000 C 
ATOM      9  N   UNL     1       1.439   2.450  22.216  0.00  0.00    +0.000 NA
ENDBRANCH   4   8
TORSDOF 1
ENDMDL
MODEL 4
REMARK VINA RESULT:      -4.6      1.971      2.422
REMARK  Name = 
REMARK  3 active torsions:
REMARK  status: ('A' for Active; 'I' for Inactive)
REMARK    1  A    between atoms: C_1  and  C_2
REMARK    2  A    between atoms: C_2  and  C_3
REMARK    3  A    between atoms: C_4  and  C_5
REMARK                            x       y       z     vdW  Elec       q    Type
REMARK                         _______ _______ _______ _____ _____    ______ ____
ROOT
ATOM      1  C   UNL     1       0.778   2.402  18.701  0.00  0.00    +0.000 C 
ATOM      2  C   UNL     1       1.890   3.418  18.529  0.00  0.00    +0.000 C 
ATOM      3  C   UNL     1       1.473   4.572  17.642  0.00  0.00    +0.000 C 
ATOM      4  C   UNL     1       2.847   3.708  19.681  0.00  0.00    +0.000 C 
ATOM      5  C   UNL     1       3.339   2.941  18.479  0.00  0.00    +0.000 C 
ATOM      6 CL   UNL     1       3.681   1.213  18.568  0.00  0.00    +0.000 Cl
ATOM      7 CL   UNL     1       4.509   3.775  17.438  0.00  0.00    +0.000 Cl
ENDROOT
BRANCH   4   8
ATOM      8  C   UNL     1       2.730   3.049  20.950  0.00  0.00    +0.000 C 
ATOM      9  N   UNL     1       2.641   2.537  21.985  0.00  0.00    +0.000 NA
ENDBRANCH   4   8
TORSDOF 1
ENDMDL
MODEL 5
REMARK VINA RESULT:      -4.6      5.274      6.108
REMARK  Name = 
REMARK  3 active torsions:
REMARK  status: ('A' for Active; 'I' for Inactive)
REMARK    1  A    between atoms: C_1  and  C_2
REMARK    2  A    between atoms: C_2  and  C_3
REMARK    3  A    between atoms: C_4  and  C_5
REMARK                            x       y       z     vdW  Elec       q    Type
REMARK                         _______ _______ _______ _____ _____    ______ ____
ROOT
ATOM      1  C   UNL     1       4.823   6.522  17.037  0.00  0.00    +0.000 C 
ATOM      2  C   UNL     1       5.766   5.642  17.835  0.00  0.00    +0.000 C 
ATOM      3  C   UNL     1       5.049   4.900  18.943  0.00  0.00    +0.000 C 
ATOM      4  C   UNL     1       6.932   4.945  17.141  0.00  0.00    +0.000 C 
ATOM      5  C   UNL     1       7.202   6.104  18.070  0.00  0.00    +0.000 C 
ATOM      6 CL   UNL     1       7.713   7.675  17.454  0.00  0.00    +0.000 Cl
ATOM      7 CL   UNL     1       8.015   5.716  19.598  0.00  0.00    +0.000 Cl
ENDROOT
BRANCH   4   8
ATOM      8  C   UNL     1       7.174   5.086  15.735  0.00  0.00    +0.000 C 
ATOM      9  N   UNL     1       7.372   5.224  14.602  0.00  0.00    +0.000 NA
ENDBRANCH   4   8
TORSDOF 1
ENDMDL
MODEL 6
REMARK VINA RESULT:      -4.6      1.489      2.080
REMARK  Name = 
REMARK  3 active torsions:
REMARK  status: ('A' for Active; 'I' for Inactive)
REMARK    1  A    between atoms: C_1  and  C_2
REMARK    2  A    between atoms: C_2  and  C_3
REMARK    3  A    between atoms: C_4  and  C_5
REMARK                            x       y       z     vdW  Elec       q    Type
REMARK                         _______ _______ _______ _____ _____    ______ ____
ROOT
ATOM      1  C   UNL     1       3.210   5.075  20.021  0.00  0.00    +0.000 C 
ATOM      2  C   UNL     1       2.620   4.041  19.082  0.00  0.00    +0.000 C 
ATOM      3  C   UNL     1       2.191   4.650  17.764  0.00  0.00    +0.000 C 
ATOM      4  C   UNL     1       3.166   2.617  19.071  0.00  0.00    +0.000 C 
ATOM      5  C   UNL     1       1.803   2.887  19.658  0.00  0.00    +0.000 C 
ATOM      6 CL   UNL     1       1.520   2.815  21.397  0.00  0.00    +0.000 Cl
ATOM      7 CL   UNL     1       0.416   2.249  18.754  0.00  0.00    +0.000 Cl
ENDROOT
BRANCH   4   8
ATOM      8  C   UNL     1       4.244   2.211  19.926  0.00  0.00    +0.000 C 
ATOM      9  N   UNL     1       5.128   1.881  20.598  0.00  0.00    +0.000 NA
ENDBRANCH   4   8
TORSDOF 1
ENDMDL
MODEL 7
REMARK VINA RESULT:      -4.6      1.969      3.061
REMARK  Name = 
REMARK  3 active torsions:
REMARK  status: ('A' for Active; 'I' for Inactive)
REMARK    1  A    between atoms: C_1  and  C_2
REMARK    2  A    between atoms: C_2  and  C_3
REMARK    3  A    between atoms: C_4  and  C_5
REMARK                            x       y       z     vdW  Elec       q    Type
REMARK                         _______ _______ _______ _____ _____    ______ ____
ROOT
ATOM      1  C   UNL     1       4.330   2.506  19.963  0.00  0.00    +0.000 C 
ATOM      2  C   UNL     1       3.087   2.614  19.101  0.00  0.00    +0.000 C 
ATOM      3  C   UNL     1       3.231   1.855  17.799  0.00  0.00    +0.000 C 
ATOM      4  C   UNL     1       1.708   2.672  19.750  0.00  0.00    +0.000 C 
ATOM      5  C   UNL     1       2.281   3.911  19.109  0.00  0.00    +0.000 C 
ATOM      6 CL   UNL     1       2.846   5.271  20.079  0.00  0.00    +0.000 Cl
ATOM      7 CL   UNL     1       1.488   4.467  17.622  0.00  0.00    +0.000 Cl
ENDROOT
BRANCH   4   8
ATOM      8  C   UNL     1       1.536   2.619  21.173  0.00  0.00    +0.000 C 
ATOM      9  N   UNL     1       1.420   2.573  22.325  0.00  0.00    +0.000 NA
ENDBRANCH   4   8
TORSDOF 1
ENDMDL
MODEL 8
REMARK VINA RESULT:      -4.5      3.337      3.815
REMARK  Name = 
REMARK  3 active torsions:
REMARK  status: ('A' for Active; 'I' for Inactive)
REMARK    1  A    between atoms: C_1  and  C_2
REMARK    2  A    between atoms: C_2  and  C_3
REMARK    3  A    between atoms: C_4  and  C_5
REMARK                            x       y       z     vdW  Elec       q    Type
REMARK                         _______ _______ _______ _____ _____    ______ ____
ROOT
ATOM      1  C   UNL     1       3.914   3.764  17.059  0.00  0.00    +0.000 C 
ATOM      2  C   UNL     1       3.305   4.866  17.903  0.00  0.00    +0.000 C 
ATOM      3  C   UNL     1       1.845   4.607  18.208  0.00  0.00    +0.000 C 
ATOM      4  C   UNL     1       4.146   5.572  18.961  0.00  0.00    +0.000 C 
ATOM      5  C   UNL     1       3.768   6.307  17.699  0.00  0.00    +0.000 C 
ATOM      6 CL   UNL     1       4.960   6.660  16.449  0.00  0.00    +0.000 Cl
ATOM      7 CL   UNL     1       2.612   7.640  17.880  0.00  0.00    +0.000 Cl
ENDROOT
BRANCH   4   8
ATOM      8  C   UNL     1       5.516   5.222  19.200  0.00  0.00    +0.000 C 
ATOM      9  N   UNL     1       6.617   4.934  19.416  0.00  0.00    +0.000 NA
ENDBRANCH   4   8
TORSDOF 1
ENDMDL
MODEL 9
REMARK VINA RESULT:      -4.5      1.504      1.550
REMARK  Name = 
REMARK  3 active torsions:
REMARK  status: ('A' for Active; 'I' for Inactive)
REMARK    1  A    between atoms: C_1  and  C_2
REMARK    2  A    between atoms: C_2  and  C_3
REMARK    3  A    between atoms: C_4  and  C_5
REMARK                            x       y       z     vdW  Elec       q    Type
REMARK                         _______ _______ _______ _____ _____    ______ ____
ROOT
ATOM      1  C   UNL     1       3.022   2.755  20.916  0.00  0.00    +0.000 C 
ATOM      2  C   UNL     1       2.507   3.853  20.007  0.00  0.00    +0.000 C 
ATOM      3  C   UNL     1       1.311   4.567  20.600  0.00  0.00    +0.000 C 
ATOM      4  C   UNL     1       3.482   4.665  19.160  0.00  0.00    +0.000 C 
ATOM      5  C   UNL     1       2.573   3.663  18.493  0.00  0.00    +0.000 C 
ATOM      6 CL   UNL     1       3.196   2.148  17.841  0.00  0.00    +0.000 Cl
ATOM      7 CL   UNL     1       1.290   4.327  17.463  0.00  0.00    +0.000 Cl
ENDROOT
BRANCH   4   8
ATOM      8  C   UNL     1       4.897   4.432  19.197  0.00  0.00    +0.000 C 
ATOM      9  N   UNL     1       6.035   4.221  19.219  0.00  0.00    +0.000 NA
ENDBRANCH   4   8
TORSDOF 1
ENDMDL
