MODEL 1
REMARK VINA RESULT:      -7.6      0.000      0.000
REMARK  Name = 
REMARK  11 active torsions:
REMARK  status: ('A' for Active; 'I' for Inactive)
REMARK    1  A    between atoms: C_1  and  C_2
REMARK    2  A    between atoms: C_2  and  C_3
REMARK    3  A    between atoms: C_3  and  C_4
REMARK    4  A    between atoms: C_3  and  C_26
REMARK    5  A    between atoms: N_6  and  C_7
REMARK    6  A    between atoms: C_9  and  O_10
REMARK    7  A    between atoms: O_10  and  C_11
REMARK    8  A    between atoms: C_12  and  N_13
REMARK    9  A    between atoms: C_14  and  C_16
REMARK   10  A    between atoms: C_23  and  O_24
REMARK   11  A    between atoms: O_24  and  C_25
REMARK                            x       y       z     vdW  Elec       q    Type
REMARK                         _______ _______ _______ _____ _____    ______ ____
ROOT
ATOM      1  C   UNL     1       2.649   6.719  19.016  0.00  0.00    +0.000 A 
ATOM      2  C   UNL     1       2.404   7.848  18.225  0.00  0.00    +0.000 A 
ATOM      3  C   UNL     1       1.515   8.858  18.631  0.00  0.00    +0.000 A 
ATOM      4  C   UNL     1       0.898   8.768  19.888  0.00  0.00    +0.000 A 
ATOM      5  C   UNL     1       1.204   7.662  20.706  0.00  0.00    +0.000 A 
ATOM      6  C   UNL     1       2.047   6.626  20.273  0.00  0.00    +0.000 A 
ENDROOT
BRANCH   1   9
ATOM      7  C   UNL     1       2.865   4.640  17.734  0.00  0.00    +0.000 C 
ATOM      8  O   UNL     1       1.672   4.559  17.445  0.00  0.00    +0.000 OA
ATOM      9  N   UNL     1       3.424   5.672  18.473  0.00  0.00    +0.000 N 
ATOM     10  H   UNL     1       4.410   5.851  18.335  0.00  0.00    +0.000 HD
BRANCH   7  11
ATOM     11  C   UNL     1       3.850   3.553  17.293  0.00  0.00    +0.000 C 
BRANCH  11  12
ATOM     12  C   UNL     1       5.072   4.130  16.575  0.00  0.00    +0.000 A 
ATOM     13  C   UNL     1       5.069   4.448  15.208  0.00  0.00    +0.000 A 
ATOM     14  C   UNL     1       6.202   4.965  14.579  0.00  0.00    +0.000 A 
ATOM     15  C   UNL     1       7.369   5.173  15.311  0.00  0.00    +0.000 A 
ATOM     16  C   UNL     1       7.393   4.881  16.669  0.00  0.00    +0.000 A 
ATOM     17  C   UNL     1       6.256   4.375  17.302  0.00  0.00    +0.000 A 
ENDBRANCH  11  12
BRANCH  11  19
ATOM     18  C   UNL     1       3.331   1.394  18.597  0.00  0.00    +0.000 C 
ATOM     19  C   UNL     1       4.188   2.650  18.501  0.00  0.00    +0.000 C 
ENDBRANCH  11  19
ENDBRANCH   7  11
ENDBRANCH   1   9
BRANCH   4  20
ATOM     20  N   UNL     1      -0.022   9.697  20.441  0.00  0.00    +0.000 N 
ATOM     21  C   UNL     1       0.254  10.775  21.268  0.00  0.00    +0.000 C 
ATOM     22  O   UNL     1       1.356  11.159  21.644  0.00  0.00    +0.000 OA
ATOM     23  H   UNL     1      -0.966   9.630  20.084  0.00  0.00    +0.000 HD
BRANCH  21  24
ATOM     24  C   UNL     1      -0.925  11.596  21.674  0.00  0.00    +0.000 A 
ATOM     25  C   UNL     1      -1.584  12.339  20.686  0.00  0.00    +0.000 A 
ATOM     26  C   UNL     1      -2.727  13.080  21.000  0.00  0.00    +0.000 A 
ATOM     27  C   UNL     1      -3.224  13.072  22.303  0.00  0.00    +0.000 A 
ATOM     28  C   UNL     1      -2.583  12.325  23.291  0.00  0.00    +0.000 A 
ATOM     29  C   UNL     1      -1.437  11.582  22.981  0.00  0.00    +0.000 A 
ENDBRANCH  21  24
ENDBRANCH   4  20
BRANCH   3  30
ATOM     30  O   UNL     1       1.348   9.986  17.871  0.00  0.00    +0.000 OA
ATOM     31  C   UNL     1       2.296  11.025  18.105  0.00  0.00    +0.000 C 
ENDBRANCH   3  30
BRANCH   6  32
ATOM     32  O   UNL     1       2.165   5.595  21.168  0.00  0.00    +0.000 OA
ATOM     33  C   UNL     1       1.404   4.421  20.900  0.00  0.00    +0.000 C 
ENDBRANCH   6  32
TORSDOF 8
ENDMDL
MODEL 2
REMARK VINA RESULT:      -7.5      0.202      1.234
REMARK  Name = 
REMARK  11 active torsions:
REMARK  status: ('A' for Active; 'I' for Inactive)
REMARK    1  A    between atoms: C_1  and  C_2
REMARK    2  A    between atoms: C_2  and  C_3
REMARK    3  A    between atoms: C_3  and  C_4
REMARK    4  A    between atoms: C_3  and  C_26
REMARK    5  A    between atoms: N_6  and  C_7
REMARK    6  A    between atoms: C_9  and  O_10
REMARK    7  A    between atoms: O_10  and  C_11
REMARK    8  A    between atoms: C_12  and  N_13
REMARK    9  A    between atoms: C_14  and  C_16
REMARK   10  A    between atoms: C_23  and  O_24
REMARK   11  A    between atoms: O_24  and  C_25
REMARK                            x       y       z     vdW  Elec       q    Type
REMARK                         _______ _______ _______ _____ _____    ______ ____
ROOT
ATOM      1  C   UNL     1       2.634   6.707  18.976  0.00  0.00    +0.000 A 
ATOM      2  C   UNL     1       2.404   7.841  18.187  0.00  0.00    +0.000 A 
ATOM      3  C   UNL     1       1.530   8.863  18.596  0.00  0.00    +0.000 A 
ATOM      4  C   UNL     1       0.914   8.779  19.854  0.00  0.00    +0.000 A 
ATOM      5  C   UNL     1       1.205   7.669  20.669  0.00  0.00    +0.000 A 
ATOM      6  C   UNL     1       2.033   6.622  20.234  0.00  0.00    +0.000 A 
ENDROOT
BRANCH   1   9
ATOM      7  C   UNL     1       2.817   4.618  17.706  0.00  0.00    +0.000 C 
ATOM      8  O   UNL     1       1.620   4.545  17.432  0.00  0.00    +0.000 OA
ATOM      9  N   UNL     1       3.394   5.651  18.431  0.00  0.00    +0.000 N 
ATOM     10  H   UNL     1       4.379   5.820  18.280  0.00  0.00    +0.000 HD
BRANCH   7  11
ATOM     11  C   UNL     1       3.787   3.520  17.261  0.00  0.00    +0.000 C 
BRANCH  11  12
ATOM     12  C   UNL     1       5.066   4.088  16.640  0.00  0.00    +0.000 A 
ATOM     13  C   UNL     1       6.244   4.287  17.376  0.00  0.00    +0.000 A 
ATOM     14  C   UNL     1       7.392   4.813  16.784  0.00  0.00    +0.000 A 
ATOM     15  C   UNL     1       7.382   5.157  15.433  0.00  0.00    +0.000 A 
ATOM     16  C   UNL     1       6.233   4.956  14.679  0.00  0.00    +0.000 A 
ATOM     17  C   UNL     1       5.086   4.417  15.268  0.00  0.00    +0.000 A 
ENDBRANCH  11  12
BRANCH  11  19
ATOM     18  C   UNL     1       2.811   1.704  18.805  0.00  0.00    +0.000 C 
ATOM     19  C   UNL     1       4.028   2.543  18.435  0.00  0.00    +0.000 C 
ENDBRANCH  11  19
ENDBRANCH   7  11
ENDBRANCH   1   9
BRANCH   4  20
ATOM     20  N   UNL     1       0.007   9.721  20.409  0.00  0.00    +0.000 N 
ATOM     21  C   UNL     1       0.298  10.788  21.245  0.00  0.00    +0.000 C 
ATOM     22  O   UNL     1       1.406  11.150  21.629  0.00  0.00    +0.000 OA
ATOM     23  H   UNL     1      -0.935   9.673  20.047  0.00  0.00    +0.000 HD
BRANCH  21  24
ATOM     24  C   UNL     1      -0.867  11.626  21.651  0.00  0.00    +0.000 A 
ATOM     25  C   UNL     1      -1.415  11.424  22.925  0.00  0.00    +0.000 A 
ATOM     26  C   UNL     1      -2.471  12.221  23.379  0.00  0.00    +0.000 A 
ATOM     27  C   UNL     1      -2.977  13.232  22.564  0.00  0.00    +0.000 A 
ATOM     28  C   UNL     1      -2.431  13.451  21.299  0.00  0.00    +0.000 A 
ATOM     29  C   UNL     1      -1.374  12.655  20.840  0.00  0.00    +0.000 A 
ENDBRANCH  21  24
ENDBRANCH   4  20
BRANCH   3  30
ATOM     30  O   UNL     1       1.378   9.994  17.837  0.00  0.00    +0.000 OA
ATOM     31  C   UNL     1       2.311  11.038  18.105  0.00  0.00    +0.000 C 
ENDBRANCH   3  30
BRANCH   6  32
ATOM     32  O   UNL     1       2.138   5.587  21.128  0.00  0.00    +0.000 OA
ATOM     33  C   UNL     1       1.350   4.430  20.867  0.00  0.00    +0.000 C 
ENDBRANCH   6  32
TORSDOF 8
ENDMDL
MODEL 3
REMARK VINA RESULT:      -7.3      0.977      1.558
REMARK  Name = 
REMARK  11 active torsions:
REMARK  status: ('A' for Active; 'I' for Inactive)
REMARK    1  A    between atoms: C_1  and  C_2
REMARK    2  A    between atoms: C_2  and  C_3
REMARK    3  A    between atoms: C_3  and  C_4
REMARK    4  A    between atoms: C_3  and  C_26
REMARK    5  A    between atoms: N_6  and  C_7
REMARK    6  A    between atoms: C_9  and  O_10
REMARK    7  A    between atoms: O_10  and  C_11
REMARK    8  A    between atoms: C_12  and  N_13
REMARK    9  A    between atoms: C_14  and  C_16
REMARK   10  A    between atoms: C_23  and  O_24
REMARK   11  A    between atoms: O_24  and  C_25
REMARK                            x       y       z     vdW  Elec       q    Type
REMARK                         _______ _______ _______ _____ _____    ______ ____
ROOT
ATOM      1  C   UNL     1       2.807   6.846  18.559  0.00  0.00    +0.000 A 
ATOM      2  C   UNL     1       2.579   8.001  17.801  0.00  0.00    +0.000 A 
ATOM      3  C   UNL     1       1.823   9.076  18.298  0.00  0.00    +0.000 A 
ATOM      4  C   UNL     1       1.331   9.023  19.611  0.00  0.00    +0.000 A 
ATOM      5  C   UNL     1       1.623   7.886  20.390  0.00  0.00    +0.000 A 
ATOM      6  C   UNL     1       2.329   6.789  19.871  0.00  0.00    +0.000 A 
ENDROOT
BRANCH   1   9
ATOM      7  C   UNL     1       2.724   4.633  17.506  0.00  0.00    +0.000 C 
ATOM      8  O   UNL     1       1.501   4.517  17.579  0.00  0.00    +0.000 OA
ATOM      9  N   UNL     1       3.433   5.745  17.937  0.00  0.00    +0.000 N 
ATOM     10  H   UNL     1       4.333   5.909  17.506  0.00  0.00    +0.000 HD
BRANCH   7  11
ATOM     11  C   UNL     1       3.582   3.505  16.927  0.00  0.00    +0.000 C 
BRANCH  11  12
ATOM     12  C   UNL     1       4.948   3.999  16.445  0.00  0.00    +0.000 A 
ATOM     13  C   UNL     1       6.042   4.167  17.308  0.00  0.00    +0.000 A 
ATOM     14  C   UNL     1       7.274   4.626  16.840  0.00  0.00    +0.000 A 
ATOM     15  C   UNL     1       7.434   4.932  15.490  0.00  0.00    +0.000 A 
ATOM     16  C   UNL     1       6.371   4.761  14.613  0.00  0.00    +0.000 A 
ATOM     17  C   UNL     1       5.141   4.288  15.078  0.00  0.00    +0.000 A 
ENDBRANCH  11  12
BRANCH  11  19
ATOM     18  C   UNL     1       3.993   2.767  19.360  0.00  0.00    +0.000 C 
ATOM     19  C   UNL     1       3.646   2.339  17.940  0.00  0.00    +0.000 C 
ENDBRANCH  11  19
ENDBRANCH   7  11
ENDBRANCH   1   9
BRANCH   4  20
ATOM     20  N   UNL     1       0.551  10.018  20.257  0.00  0.00    +0.000 N 
ATOM     21  C   UNL     1      -0.694  10.497  19.880  0.00  0.00    +0.000 C 
ATOM     22  O   UNL     1      -1.383  10.116  18.939  0.00  0.00    +0.000 OA
ATOM     23  H   UNL     1       0.896  10.315  21.159  0.00  0.00    +0.000 HD
BRANCH  21  24
ATOM     24  C   UNL     1      -1.285  11.535  20.775  0.00  0.00    +0.000 A 
ATOM     25  C   UNL     1      -0.844  11.592  22.104  0.00  0.00    +0.000 A 
ATOM     26  C   UNL     1      -1.321  12.580  22.969  0.00  0.00    +0.000 A 
ATOM     27  C   UNL     1      -2.235  13.526  22.506  0.00  0.00    +0.000 A 
ATOM     28  C   UNL     1      -2.671  13.487  21.182  0.00  0.00    +0.000 A 
ATOM     29  C   UNL     1      -2.197  12.498  20.312  0.00  0.00    +0.000 A 
ENDBRANCH  21  24
ENDBRANCH   4  20
BRANCH   3  30
ATOM     30  O   UNL     1       1.675  10.223  17.563  0.00  0.00    +0.000 OA
ATOM     31  C   UNL     1       2.486  11.321  17.976  0.00  0.00    +0.000 C 
ENDBRANCH   3  30
BRANCH   6  32
ATOM     32  O   UNL     1       2.450   5.741  20.746  0.00  0.00    +0.000 OA
ATOM     33  C   UNL     1       1.355   4.831  20.815  0.00  0.00    +0.000 C 
ENDBRANCH   6  32
TORSDOF 8
ENDMDL
MODEL 4
REMARK VINA RESULT:      -7.1      0.910      1.224
REMARK  Name = 
REMARK  11 active torsions:
REMARK  status: ('A' for Active; 'I' for Inactive)
REMARK    1  A    between atoms: C_1  and  C_2
REMARK    2  A    between atoms: C_2  and  C_3
REMARK    3  A    between atoms: C_3  and  C_4
REMARK    4  A    between atoms: C_3  and  C_26
REMARK    5  A    between atoms: N_6  and  C_7
REMARK    6  A    between atoms: C_9  and  O_10
REMARK    7  A    between atoms: O_10  and  C_11
REMARK    8  A    between atoms: C_12  and  N_13
REMARK    9  A    between atoms: C_14  and  C_16
REMARK   10  A    between atoms: C_23  and  O_24
REMARK   11  A    between atoms: O_24  and  C_25
REMARK                            x       y       z     vdW  Elec       q    Type
REMARK                         _______ _______ _______ _____ _____    ______ ____
ROOT
ATOM      1  C   UNL     1       2.524   6.974  18.872  0.00  0.00    +0.000 A 
ATOM      2  C   UNL     1       2.188   8.141  18.175  0.00  0.00    +0.000 A 
ATOM      3  C   UNL     1       1.401   9.151  18.755  0.00  0.00    +0.000 A 
ATOM      4  C   UNL     1       0.988   9.019  20.090  0.00  0.00    +0.000 A 
ATOM      5  C   UNL     1       1.388   7.874  20.805  0.00  0.00    +0.000 A 
ATOM      6  C   UNL     1       2.124   6.840  20.204  0.00  0.00    +0.000 A 
ENDROOT
BRANCH   1   9
ATOM      7  C   UNL     1       2.489   4.855  17.640  0.00  0.00    +0.000 C 
ATOM      8  O   UNL     1       1.268   4.718  17.681  0.00  0.00    +0.000 OA
ATOM      9  N   UNL     1       3.176   5.936  18.173  0.00  0.00    +0.000 N 
ATOM     10  H   UNL     1       4.080   6.146  17.773  0.00  0.00    +0.000 HD
BRANCH   7  11
ATOM     11  C   UNL     1       3.373   3.789  16.985  0.00  0.00    +0.000 C 
BRANCH  11  12
ATOM     12  C   UNL     1       4.864   4.099  17.128  0.00  0.00    +0.000 A 
ATOM     13  C   UNL     1       5.741   4.135  16.032  0.00  0.00    +0.000 A 
ATOM     14  C   UNL     1       7.098   4.414  16.195  0.00  0.00    +0.000 A 
ATOM     15  C   UNL     1       7.609   4.659  17.468  0.00  0.00    +0.000 A 
ATOM     16  C   UNL     1       6.760   4.644  18.567  0.00  0.00    +0.000 A 
ATOM     17  C   UNL     1       5.398   4.378  18.403  0.00  0.00    +0.000 A 
ENDBRANCH  11  12
BRANCH  11  19
ATOM     18  C   UNL     1       3.309   2.143  18.965  0.00  0.00    +0.000 C 
ATOM     19  C   UNL     1       2.959   2.393  17.503  0.00  0.00    +0.000 C 
ENDBRANCH  11  19
ENDBRANCH   7  11
ENDBRANCH   1   9
BRANCH   4  20
ATOM     20  N   UNL     1       0.190   9.942  20.817  0.00  0.00    +0.000 N 
ATOM     21  C   UNL     1       0.585  11.149  21.374  0.00  0.00    +0.000 C 
ATOM     22  O   UNL     1       1.693  11.672  21.305  0.00  0.00    +0.000 OA
ATOM     23  H   UNL     1      -0.801   9.748  20.814  0.00  0.00    +0.000 HD
BRANCH  21  24
ATOM     24  C   UNL     1      -0.488  11.923  22.064  0.00  0.00    +0.000 A 
ATOM     25  C   UNL     1      -1.519  11.210  22.690  0.00  0.00    +0.000 A 
ATOM     26  C   UNL     1      -2.519  11.883  23.399  0.00  0.00    +0.000 A 
ATOM     27  C   UNL     1      -2.485  13.273  23.496  0.00  0.00    +0.000 A 
ATOM     28  C   UNL     1      -1.456  13.992  22.889  0.00  0.00    +0.000 A 
ATOM     29  C   UNL     1      -0.454  13.323  22.176  0.00  0.00    +0.000 A 
ENDBRANCH  21  24
ENDBRANCH   4  20
BRANCH   3  30
ATOM     30  O   UNL     1       1.147  10.313  18.076  0.00  0.00    +0.000 OA
ATOM     31  C   UNL     1       2.260  11.194  17.936  0.00  0.00    +0.000 C 
ENDBRANCH   3  30
BRANCH   6  32
ATOM     32  O   UNL     1       2.354   5.769  21.028  0.00  0.00    +0.000 OA
ATOM     33  C   UNL     1       1.429   4.688  20.951  0.00  0.00    +0.000 C 
ENDBRANCH   6  32
TORSDOF 8
ENDMDL
MODEL 5
REMARK VINA RESULT:      -7.0      0.561      1.030
REMARK  Name = 
REMARK  11 active torsions:
REMARK  status: ('A' for Active; 'I' for Inactive)
REMARK    1  A    between atoms: C_1  and  C_2
REMARK    2  A    between atoms: C_2  and  C_3
REMARK    3  A    between atoms: C_3  and  C_4
REMARK    4  A    between atoms: C_3  and  C_26
REMARK    5  A    between atoms: N_6  and  C_7
REMARK    6  A    between atoms: C_9  and  O_10
REMARK    7  A    between atoms: O_10  and  C_11
REMARK    8  A    between atoms: C_12  and  N_13
REMARK    9  A    between atoms: C_14  and  C_16
REMARK   10  A    between atoms: C_23  and  O_24
REMARK   11  A    between atoms: O_24  and  C_25
REMARK                            x       y       z     vdW  Elec       q    Type
REMARK                         _______ _______ _______ _____ _____    ______ ____
ROOT
ATOM      1  C   UNL     1       2.743   6.522  19.062  0.00  0.00    +0.000 A 
ATOM      2  C   UNL     1       2.595   7.709  18.334  0.00  0.00    +0.000 A 
ATOM      3  C   UNL     1       1.729   8.732  18.754  0.00  0.00    +0.000 A 
ATOM      4  C   UNL     1       1.037   8.593  19.967  0.00  0.00    +0.000 A 
ATOM      5  C   UNL     1       1.245   7.426  20.727  0.00  0.00    +0.000 A 
ATOM      6  C   UNL     1       2.065   6.380  20.275  0.00  0.00    +0.000 A 
ENDROOT
BRANCH   1   9
ATOM      7  C   UNL     1       2.935   4.503  17.683  0.00  0.00    +0.000 C 
ATOM      8  O   UNL     1       1.753   4.482  17.345  0.00  0.00    +0.000 OA
ATOM      9  N   UNL     1       3.501   5.475  18.495  0.00  0.00    +0.000 N 
ATOM     10  H   UNL     1       4.498   5.623  18.405  0.00  0.00    +0.000 HD
BRANCH   7  11
ATOM     11  C   UNL     1       3.898   3.403  17.226  0.00  0.00    +0.000 C 
BRANCH  11  12
ATOM     12  C   UNL     1       5.141   3.967  16.534  0.00  0.00    +0.000 A 
ATOM     13  C   UNL     1       6.319   4.283  17.229  0.00  0.00    +0.000 A 
ATOM     14  C   UNL     1       7.435   4.802  16.571  0.00  0.00    +0.000 A 
ATOM     15  C   UNL     1       7.391   5.020  15.196  0.00  0.00    +0.000 A 
ATOM     16  C   UNL     1       6.243   4.702  14.482  0.00  0.00    +0.000 A 
ATOM     17  C   UNL     1       5.130   4.169  15.138  0.00  0.00    +0.000 A 
ENDBRANCH  11  12
BRANCH  11  19
ATOM     18  C   UNL     1       3.045   1.544  18.789  0.00  0.00    +0.000 C 
ATOM     19  C   UNL     1       4.201   2.461  18.413  0.00  0.00    +0.000 C 
ENDBRANCH  11  19
ENDBRANCH   7  11
ENDBRANCH   1   9
BRANCH   4  20
ATOM     20  N   UNL     1       0.128   9.529  20.527  0.00  0.00    +0.000 N 
ATOM     21  C   UNL     1       0.228  10.186  21.744  0.00  0.00    +0.000 C 
ATOM     22  O   UNL     1       1.149  10.117  22.551  0.00  0.00    +0.000 OA
ATOM     23  H   UNL     1      -0.607   9.838  19.906  0.00  0.00    +0.000 HD
BRANCH  21  24
ATOM     24  C   UNL     1      -0.877  11.139  22.057  0.00  0.00    +0.000 A 
ATOM     25  C   UNL     1      -1.290  12.025  21.053  0.00  0.00    +0.000 A 
ATOM     26  C   UNL     1      -2.358  12.899  21.273  0.00  0.00    +0.000 A 
ATOM     27  C   UNL     1      -3.027  12.885  22.497  0.00  0.00    +0.000 A 
ATOM     28  C   UNL     1      -2.633  11.997  23.498  0.00  0.00    +0.000 A 
ATOM     29  C   UNL     1      -1.563  11.120  23.282  0.00  0.00    +0.000 A 
ENDBRANCH  21  24
ENDBRANCH   4  20
BRANCH   3  30
ATOM     30  O   UNL     1       1.657   9.912  18.061  0.00  0.00    +0.000 OA
ATOM     31  C   UNL     1       0.337  10.362  17.760  0.00  0.00    +0.000 C 
ENDBRANCH   3  30
BRANCH   6  32
ATOM     32  O   UNL     1       2.085   5.290  21.106  0.00  0.00    +0.000 OA
ATOM     33  C   UNL     1       1.217   4.211  20.772  0.00  0.00    +0.000 C 
ENDBRANCH   6  32
TORSDOF 8
ENDMDL
MODEL 6
REMARK VINA RESULT:      -7.0      2.479      4.699
REMARK  Name = 
REMARK  11 active torsions:
REMARK  status: ('A' for Active; 'I' for Inactive)
REMARK    1  A    between atoms: C_1  and  C_2
REMARK    2  A    between atoms: C_2  and  C_3
REMARK    3  A    between atoms: C_3  and  C_4
REMARK    4  A    between atoms: C_3  and  C_26
REMARK    5  A    between atoms: N_6  and  C_7
REMARK    6  A    between atoms: C_9  and  O_10
REMARK    7  A    between atoms: O_10  and  C_11
REMARK    8  A    between atoms: C_12  and  N_13
REMARK    9  A    between atoms: C_14  and  C_16
REMARK   10  A    between atoms: C_23  and  O_24
REMARK   11  A    between atoms: O_24  and  C_25
REMARK                            x       y       z     vdW  Elec       q    Type
REMARK                         _______ _______ _______ _____ _____    ______ ____
ROOT
ATOM      1  C   UNL     1       0.613   9.708  19.515  0.00  0.00    +0.000 A 
ATOM      2  C   UNL     1      -0.160   9.930  18.369  0.00  0.00    +0.000 A 
ATOM      3  C   UNL     1      -1.217  10.855  18.356  0.00  0.00    +0.000 A 
ATOM      4  C   UNL     1      -1.473  11.625  19.501  0.00  0.00    +0.000 A 
ATOM      5  C   UNL     1      -0.647  11.443  20.627  0.00  0.00    +0.000 A 
ATOM      6  C   UNL     1       0.371  10.477  20.656  0.00  0.00    +0.000 A 
ENDROOT
BRANCH   1   9
ATOM      7  C   UNL     1       2.265   8.307  18.366  0.00  0.00    +0.000 C 
ATOM      8  O   UNL     1       2.195   8.905  17.293  0.00  0.00    +0.000 OA
ATOM      9  N   UNL     1       1.547   8.650  19.503  0.00  0.00    +0.000 N 
ATOM     10  H   UNL     1       1.936   8.367  20.392  0.00  0.00    +0.000 HD
BRANCH   7  11
ATOM     11  C   UNL     1       3.173   7.084  18.521  0.00  0.00    +0.000 C 
BRANCH  11  12
ATOM     12  C   UNL     1       2.391   5.818  18.880  0.00  0.00    +0.000 A 
ATOM     13  C   UNL     1       1.990   4.875  17.921  0.00  0.00    +0.000 A 
ATOM     14  C   UNL     1       1.271   3.734  18.279  0.00  0.00    +0.000 A 
ATOM     15  C   UNL     1       0.934   3.515  19.613  0.00  0.00    +0.000 A 
ATOM     16  C   UNL     1       1.331   4.426  20.584  0.00  0.00    +0.000 A 
ATOM     17  C   UNL     1       2.062   5.562  20.228  0.00  0.00    +0.000 A 
ENDBRANCH  11  12
BRANCH  11  19
ATOM     18  C   UNL     1       5.440   6.353  17.543  0.00  0.00    +0.000 C 
ATOM     19  C   UNL     1       4.065   6.947  17.266  0.00  0.00    +0.000 C 
ENDBRANCH  11  19
ENDBRANCH   7  11
ENDBRANCH   1   9
BRANCH   4  20
ATOM     20  N   UNL     1      -2.500  12.594  19.650  0.00  0.00    +0.000 N 
ATOM     21  C   UNL     1      -3.289  12.828  20.766  0.00  0.00    +0.000 C 
ATOM     22  O   UNL     1      -3.219  12.270  21.856  0.00  0.00    +0.000 OA
ATOM     23  H   UNL     1      -2.570  13.264  18.898  0.00  0.00    +0.000 HD
BRANCH  21  24
ATOM     24  C   UNL     1      -4.278  13.938  20.636  0.00  0.00    +0.000 A 
ATOM     25  C   UNL     1      -5.580  13.620  20.229  0.00  0.00    +0.000 A 
ATOM     26  C   UNL     1      -6.561  14.613  20.146  0.00  0.00    +0.000 A 
ATOM     27  C   UNL     1      -6.246  15.929  20.480  0.00  0.00    +0.000 A 
ATOM     28  C   UNL     1      -4.957  16.255  20.899  0.00  0.00    +0.000 A 
ATOM     29  C   UNL     1      -3.971  15.264  20.982  0.00  0.00    +0.000 A 
ENDBRANCH  21  24
ENDBRANCH   4  20
BRANCH   3  30
ATOM     30  O   UNL     1      -1.911  11.104  17.201  0.00  0.00    +0.000 OA
ATOM     31  C   UNL     1      -2.420   9.951  16.534  0.00  0.00    +0.000 C 
ENDBRANCH   3  30
BRANCH   6  32
ATOM     32  O   UNL     1       1.019  10.386  21.861  0.00  0.00    +0.000 OA
ATOM     33  C   UNL     1       0.416   9.563  22.855  0.00  0.00    +0.000 C 
ENDBRANCH   6  32
TORSDOF 8
ENDMDL
MODEL 7
REMARK VINA RESULT:      -7.0      2.440      4.731
REMARK  Name = 
REMARK  11 active torsions:
REMARK  status: ('A' for Active; 'I' for Inactive)
REMARK    1  A    between atoms: C_1  and  C_2
REMARK    2  A    between atoms: C_2  and  C_3
REMARK    3  A    between atoms: C_3  and  C_4
REMARK    4  A    between atoms: C_3  and  C_26
REMARK    5  A    between atoms: N_6  and  C_7
REMARK    6  A    between atoms: C_9  and  O_10
REMARK    7  A    between atoms: O_10  and  C_11
REMARK    8  A    between atoms: C_12  and  N_13
REMARK    9  A    between atoms: C_14  and  C_16
REMARK   10  A    between atoms: C_23  and  O_24
REMARK   11  A    between atoms: O_24  and  C_25
REMARK                            x       y       z     vdW  Elec       q    Type
REMARK                         _______ _______ _______ _____ _____    ______ ____
ROOT
ATOM      1  C   UNL     1       0.633   9.670  19.622  0.00  0.00    +0.000 A 
ATOM      2  C   UNL     1      -0.114   9.928  18.466  0.00  0.00    +0.000 A 
ATOM      3  C   UNL     1      -1.175  10.848  18.459  0.00  0.00    +0.000 A 
ATOM      4  C   UNL     1      -1.462  11.577  19.624  0.00  0.00    +0.000 A 
ATOM      5  C   UNL     1      -0.662  11.360  20.763  0.00  0.00    +0.000 A 
ATOM      6  C   UNL     1       0.360  10.398  20.783  0.00  0.00    +0.000 A 
ENDROOT
BRANCH   1   9
ATOM      7  C   UNL     1       2.240   8.247  18.437  0.00  0.00    +0.000 C 
ATOM      8  O   UNL     1       2.117   8.814  17.352  0.00  0.00    +0.000 OA
ATOM      9  N   UNL     1       1.573   8.618  19.595  0.00  0.00    +0.000 N 
ATOM     10  H   UNL     1       2.004   8.362  20.473  0.00  0.00    +0.000 HD
BRANCH   7  11
ATOM     11  C   UNL     1       3.162   7.033  18.583  0.00  0.00    +0.000 C 
BRANCH  11  12
ATOM     12  C   UNL     1       2.400   5.764  18.968  0.00  0.00    +0.000 A 
ATOM     13  C   UNL     1       2.029   5.472  20.290  0.00  0.00    +0.000 A 
ATOM     14  C   UNL     1       1.340   4.303  20.612  0.00  0.00    +0.000 A 
ATOM     15  C   UNL     1       1.011   3.393  19.609  0.00  0.00    +0.000 A 
ATOM     16  C   UNL     1       1.353   3.664  18.290  0.00  0.00    +0.000 A 
ATOM     17  C   UNL     1       2.031   4.842  17.966  0.00  0.00    +0.000 A 
ENDBRANCH  11  12
BRANCH  11  19
ATOM     18  C   UNL     1       5.410   6.299  17.562  0.00  0.00    +0.000 C 
ATOM     19  C   UNL     1       4.031   6.895  17.312  0.00  0.00    +0.000 C 
ENDBRANCH  11  19
ENDBRANCH   7  11
ENDBRANCH   1   9
BRANCH   4  20
ATOM     20  N   UNL     1      -2.497  12.535  19.782  0.00  0.00    +0.000 N 
ATOM     21  C   UNL     1      -3.238  12.803  20.923  0.00  0.00    +0.000 C 
ATOM     22  O   UNL     1      -3.107  12.293  22.030  0.00  0.00    +0.000 OA
ATOM     23  H   UNL     1      -2.614  13.173  19.007  0.00  0.00    +0.000 HD
BRANCH  21  24
ATOM     24  C   UNL     1      -4.250  13.892  20.794  0.00  0.00    +0.000 A 
ATOM     25  C   UNL     1      -3.823  15.216  20.962  0.00  0.00    +0.000 A 
ATOM     26  C   UNL     1      -4.717  16.278  20.797  0.00  0.00    +0.000 A 
ATOM     27  C   UNL     1      -6.043  16.021  20.450  0.00  0.00    +0.000 A 
ATOM     28  C   UNL     1      -6.476  14.708  20.267  0.00  0.00    +0.000 A 
ATOM     29  C   UNL     1      -5.584  13.642  20.433  0.00  0.00    +0.000 A 
ENDBRANCH  21  24
ENDBRANCH   4  20
BRANCH   3  30
ATOM     30  O   UNL     1      -1.843  11.134  17.297  0.00  0.00    +0.000 OA
ATOM     31  C   UNL     1      -2.416  10.011  16.631  0.00  0.00    +0.000 C 
ENDBRANCH   3  30
BRANCH   6  32
ATOM     32  O   UNL     1       0.980  10.269  21.999  0.00  0.00    +0.000 OA
ATOM     33  C   UNL     1       0.260   9.580  23.017  0.00  0.00    +0.000 C 
ENDBRANCH   6  32
TORSDOF 8
ENDMDL
MODEL 8
REMARK VINA RESULT:      -6.9      2.782     10.546
REMARK  Name = 
REMARK  11 active torsions:
REMARK  status: ('A' for Active; 'I' for Inactive)
REMARK    1  A    between atoms: C_1  and  C_2
REMARK    2  A    between atoms: C_2  and  C_3
REMARK    3  A    between atoms: C_3  and  C_4
REMARK    4  A    between atoms: C_3  and  C_26
REMARK    5  A    between atoms: N_6  and  C_7
REMARK    6  A    between atoms: C_9  and  O_10
REMARK    7  A    between atoms: O_10  and  C_11
REMARK    8  A    between atoms: C_12  and  N_13
REMARK    9  A    between atoms: C_14  and  C_16
REMARK   10  A    between atoms: C_23  and  O_24
REMARK   11  A    between atoms: O_24  and  C_25
REMARK                            x       y       z     vdW  Elec       q    Type
REMARK                         _______ _______ _______ _____ _____    ______ ____
ROOT
ATOM      1  C   UNL     1      -1.480  11.941  18.740  0.00  0.00    +0.000 A 
ATOM      2  C   UNL     1      -0.132  12.256  18.948  0.00  0.00    +0.000 A 
ATOM      3  C   UNL     1       0.893  11.330  18.694  0.00  0.00    +0.000 A 
ATOM      4  C   UNL     1       0.569  10.074  18.160  0.00  0.00    +0.000 A 
ATOM      5  C   UNL     1      -0.783   9.790  17.890  0.00  0.00    +0.000 A 
ATOM      6  C   UNL     1      -1.810  10.696  18.199  0.00  0.00    +0.000 A 
ENDROOT
BRANCH   1   9
ATOM      7  C   UNL     1      -2.907  12.909  20.483  0.00  0.00    +0.000 C 
ATOM      8  O   UNL     1      -2.471  12.205  21.393  0.00  0.00    +0.000 OA
ATOM      9  N   UNL     1      -2.461  12.859  19.170  0.00  0.00    +0.000 N 
ATOM     10  H   UNL     1      -2.591  13.692  18.612  0.00  0.00    +0.000 HD
BRANCH   7  11
ATOM     11  C   UNL     1      -4.031  13.916  20.746  0.00  0.00    +0.000 C 
BRANCH  11  12
ATOM     12  C   UNL     1      -5.280  13.256  21.334  0.00  0.00    +0.000 A 
ATOM     13  C   UNL     1      -6.104  12.394  20.594  0.00  0.00    +0.000 A 
ATOM     14  C   UNL     1      -7.241  11.813  21.156  0.00  0.00    +0.000 A 
ATOM     15  C   UNL     1      -7.580  12.089  22.479  0.00  0.00    +0.000 A 
ATOM     16  C   UNL     1      -6.774  12.927  23.238  0.00  0.00    +0.000 A 
ATOM     17  C   UNL     1      -5.628  13.499  22.680  0.00  0.00    +0.000 A 
ENDBRANCH  11  12
BRANCH  11  19
ATOM     18  C   UNL     1      -2.659  16.095  20.779  0.00  0.00    +0.000 C 
ATOM     19  C   UNL     1      -3.478  15.092  21.582  0.00  0.00    +0.000 C 
ENDBRANCH  11  19
ENDBRANCH   7  11
ENDBRANCH   1   9
BRANCH   4  20
ATOM     20  N   UNL     1       1.483   9.031  17.853  0.00  0.00    +0.000 N 
ATOM     21  C   UNL     1       2.049   8.115  18.726  0.00  0.00    +0.000 C 
ATOM     22  O   UNL     1       1.832   8.002  19.928  0.00  0.00    +0.000 OA
ATOM     23  H   UNL     1       1.633   8.868  16.867  0.00  0.00    +0.000 HD
BRANCH  21  24
ATOM     24  C   UNL     1       2.962   7.111  18.106  0.00  0.00    +0.000 A 
ATOM     25  C   UNL     1       2.640   5.753  18.238  0.00  0.00    +0.000 A 
ATOM     26  C   UNL     1       3.429   4.774  17.628  0.00  0.00    +0.000 A 
ATOM     27  C   UNL     1       4.540   5.147  16.873  0.00  0.00    +0.000 A 
ATOM     28  C   UNL     1       4.863   6.496  16.724  0.00  0.00    +0.000 A 
ATOM     29  C   UNL     1       4.076   7.481  17.334  0.00  0.00    +0.000 A 
ENDBRANCH  21  24
ENDBRANCH   4  20
BRANCH   3  30
ATOM     30  O   UNL     1       2.208  11.689  18.839  0.00  0.00    +0.000 OA
ATOM     31  C   UNL     1       2.505  13.052  18.543  0.00  0.00    +0.000 C 
ENDBRANCH   3  30
BRANCH   6  32
ATOM     32  O   UNL     1      -3.070  10.219  17.941  0.00  0.00    +0.000 OA
ATOM     33  C   UNL     1      -3.441  10.092  16.572  0.00  0.00    +0.000 C 
ENDBRANCH   6  32
TORSDOF 8
ENDMDL
MODEL 9
REMARK VINA RESULT:      -6.9      1.391      1.670
REMARK  Name = 
REMARK  11 active torsions:
REMARK  status: ('A' for Active; 'I' for Inactive)
REMARK    1  A    between atoms: C_1  and  C_2
REMARK    2  A    between atoms: C_2  and  C_3
REMARK    3  A    between atoms: C_3  and  C_4
REMARK    4  A    between atoms: C_3  and  C_26
REMARK    5  A    between atoms: N_6  and  C_7
REMARK    6  A    between atoms: C_9  and  O_10
REMARK    7  A    between atoms: O_10  and  C_11
REMARK    8  A    between atoms: C_12  and  N_13
REMARK    9  A    between atoms: C_14  and  C_16
REMARK   10  A    between atoms: C_23  and  O_24
REMARK   11  A    between atoms: O_24  and  C_25
REMARK                            x       y       z     vdW  Elec       q    Type
REMARK                         _______ _______ _______ _____ _____    ______ ____
ROOT
ATOM      1  C   UNL     1       2.368   7.861  19.254  0.00  0.00    +0.000 A 
ATOM      2  C   UNL     1       2.028   9.023  18.551  0.00  0.00    +0.000 A 
ATOM      3  C   UNL     1       0.994   9.872  18.980  0.00  0.00    +0.000 A 
ATOM      4  C   UNL     1       0.320   9.586  20.177  0.00  0.00    +0.000 A 
ATOM      5  C   UNL     1       0.715   8.452  20.913  0.00  0.00    +0.000 A 
ATOM      6  C   UNL     1       1.709   7.574  20.452  0.00  0.00    +0.000 A 
ENDROOT
BRANCH   1   9
ATOM      7  C   UNL     1       2.917   5.879  17.920  0.00  0.00    +0.000 C 
ATOM      8  O   UNL     1       1.751   5.601  17.642  0.00  0.00    +0.000 OA
ATOM      9  N   UNL     1       3.302   6.975  18.677  0.00  0.00    +0.000 N 
ATOM     10  H   UNL     1       4.241   7.323  18.534  0.00  0.00    +0.000 HD
BRANCH   7  11
ATOM     11  C   UNL     1       4.066   4.987  17.443  0.00  0.00    +0.000 C 
BRANCH  11  12
ATOM     12  C   UNL     1       5.439   5.569  17.787  0.00  0.00    +0.000 A 
ATOM     13  C   UNL     1       6.084   6.522  16.983  0.00  0.00    +0.000 A 
ATOM     14  C   UNL     1       7.339   7.029  17.320  0.00  0.00    +0.000 A 
ATOM     15  C   UNL     1       7.979   6.587  18.476  0.00  0.00    +0.000 A 
ATOM     16  C   UNL     1       7.356   5.655  19.297  0.00  0.00    +0.000 A 
ATOM     17  C   UNL     1       6.094   5.157  18.967  0.00  0.00    +0.000 A 
ENDBRANCH  11  12
BRANCH  11  19
ATOM     18  C   UNL     1       2.805   2.760  17.155  0.00  0.00    +0.000 C 
ATOM     19  C   UNL     1       3.840   3.544  17.951  0.00  0.00    +0.000 C 
ENDBRANCH  11  19
ENDBRANCH   7  11
ENDBRANCH   1   9
BRANCH   4  20
ATOM     20  N   UNL     1      -0.745  10.338  20.742  0.00  0.00    +0.000 N 
ATOM     21  C   UNL     1      -0.654  11.445  21.570  0.00  0.00    +0.000 C 
ATOM     22  O   UNL     1       0.368  12.017  21.937  0.00  0.00    +0.000 OA
ATOM     23  H   UNL     1      -1.665  10.107  20.394  0.00  0.00    +0.000 HD
BRANCH  21  24
ATOM     24  C   UNL     1      -1.954  12.045  21.991  0.00  0.00    +0.000 A 
ATOM     25  C   UNL     1      -2.759  12.636  21.007  0.00  0.00    +0.000 A 
ATOM     26  C   UNL     1      -4.011  13.162  21.336  0.00  0.00    +0.000 A 
ATOM     27  C   UNL     1      -4.471  13.090  22.651  0.00  0.00    +0.000 A 
ATOM     28  C   UNL     1      -3.685  12.492  23.635  0.00  0.00    +0.000 A 
ATOM     29  C   UNL     1      -2.429  11.965  23.310  0.00  0.00    +0.000 A 
ENDBRANCH  21  24
ENDBRANCH   4  20
BRANCH   3  30
ATOM     30  O   UNL     1       0.729  11.039  18.313  0.00  0.00    +0.000 OA
ATOM     31  C   UNL     1       1.603  12.126  18.612  0.00  0.00    +0.000 C 
ENDBRANCH   3  30
BRANCH   6  32
ATOM     32  O   UNL     1       1.905   6.483  21.258  0.00  0.00    +0.000 OA
ATOM     33  C   UNL     1       1.268   5.271  20.865  0.00  0.00    +0.000 C 
ENDBRANCH   6  32
TORSDOF 8
ENDMDL
