MODEL 1
REMARK VINA RESULT:      -6.9      0.000      0.000
REMARK  Name = 
REMARK  2 active torsions:
REMARK  status: ('A' for Active; 'I' for Inactive)
REMARK    1  A    between atoms: O_1  and  C_2
REMARK    2  A    between atoms: C_7  and  C_8
REMARK                            x       y       z     vdW  Elec       q    Type
REMARK                         _______ _______ _______ _____ _____    ______ ____
ROOT
ATOM      1  C   UNL     1       1.620   2.805  21.178  0.00  0.00    +0.000 A 
ATOM      2  C   UNL     1       0.746   3.125  20.139  0.00  0.00    +0.000 A 
ATOM      3  C   UNL     1       1.237   3.606  18.920  0.00  0.00    +0.000 A 
ATOM      4  C   UNL     1       2.621   3.738  18.814  0.00  0.00    +0.000 A 
ATOM      5  O   UNL     1       3.294   4.174  17.714  0.00  0.00    +0.000 OA
ATOM      6  C   UNL     1       4.630   4.138  18.009  0.00  0.00    +0.000 A 
ATOM      7  C   UNL     1       4.803   3.696  19.309  0.00  0.00    +0.000 A 
ATOM      8  C   UNL     1       3.512   3.427  19.832  0.00  0.00    +0.000 A 
ATOM      9  C   UNL     1       3.004   2.949  21.052  0.00  0.00    +0.000 A 
ENDROOT
BRANCH   6  10
ATOM     10  C   UNL     1       5.546   4.525  16.940  0.00  0.00    +0.000 A 
ATOM     11  C   UNL     1       5.564   3.854  15.713  0.00  0.00    +0.000 A 
ATOM     12  C   UNL     1       6.482   4.245  14.750  0.00  0.00    +0.000 A 
ATOM     13  N   UNL     1       7.368   5.247  14.920  0.00  0.00    +0.000 NA
ATOM     14  C   UNL     1       7.332   5.889  16.105  0.00  0.00    +0.000 A 
ATOM     15  C   UNL     1       6.453   5.573  17.127  0.00  0.00    +0.000 A 
ENDBRANCH   6  10
BRANCH   1  16
ATOM     16  O   UNL     1       1.154   2.331  22.372  0.00  0.00    +0.000 OA
ATOM     17  H   UNL     1       1.850   2.435  23.043  0.00  0.00    +0.000 HD
ENDBRANCH   1  16
TORSDOF 2
ENDMDL
MODEL 2
REMARK VINA RESULT:      -6.9      0.204      1.167
REMARK  Name = 
REMARK  2 active torsions:
REMARK  status: ('A' for Active; 'I' for Inactive)
REMARK    1  A    between atoms: O_1  and  C_2
REMARK    2  A    between atoms: C_7  and  C_8
REMARK                            x       y       z     vdW  Elec       q    Type
REMARK                         _______ _______ _______ _____ _____    ______ ____
ROOT
ATOM      1  C   UNL     1       1.625   2.809  21.118  0.00  0.00    +0.000 A 
ATOM      2  C   UNL     1       0.752   3.149  20.085  0.00  0.00    +0.000 A 
ATOM      3  C   UNL     1       1.246   3.619  18.863  0.00  0.00    +0.000 A 
ATOM      4  C   UNL     1       2.632   3.718  18.747  0.00  0.00    +0.000 A 
ATOM      5  O   UNL     1       3.308   4.138  17.642  0.00  0.00    +0.000 OA
ATOM      6  C   UNL     1       4.644   4.070  17.929  0.00  0.00    +0.000 A 
ATOM      7  C   UNL     1       4.815   3.624  19.227  0.00  0.00    +0.000 A 
ATOM      8  C   UNL     1       3.523   3.386  19.759  0.00  0.00    +0.000 A 
ATOM      9  C   UNL     1       3.012   2.920  20.982  0.00  0.00    +0.000 A 
ENDROOT
BRANCH   6  10
ATOM     10  C   UNL     1       5.563   4.435  16.854  0.00  0.00    +0.000 A 
ATOM     11  C   UNL     1       6.683   5.238  17.090  0.00  0.00    +0.000 A 
ATOM     12  C   UNL     1       7.498   5.580  16.021  0.00  0.00    +0.000 A 
ATOM     13  N   UNL     1       7.279   5.181  14.752  0.00  0.00    +0.000 NA
ATOM     14  C   UNL     1       6.200   4.401  14.543  0.00  0.00    +0.000 A 
ATOM     15  C   UNL     1       5.328   4.006  15.544  0.00  0.00    +0.000 A 
ENDBRANCH   6  10
BRANCH   1  16
ATOM     16  O   UNL     1       1.156   2.346  22.315  0.00  0.00    +0.000 OA
ATOM     17  H   UNL     1       1.536   2.885  23.030  0.00  0.00    +0.000 HD
ENDBRANCH   1  16
TORSDOF 2
ENDMDL
MODEL 3
REMARK VINA RESULT:      -6.8      2.906      6.454
REMARK  Name = 
REMARK  2 active torsions:
REMARK  status: ('A' for Active; 'I' for Inactive)
REMARK    1  A    between atoms: O_1  and  C_2
REMARK    2  A    between atoms: C_7  and  C_8
REMARK                            x       y       z     vdW  Elec       q    Type
REMARK                         _______ _______ _______ _____ _____    ______ ____
ROOT
ATOM      1  C   UNL     1       6.813   4.903  15.048  0.00  0.00    +0.000 A 
ATOM      2  C   UNL     1       7.652   4.986  16.160  0.00  0.00    +0.000 A 
ATOM      3  C   UNL     1       7.154   4.740  17.445  0.00  0.00    +0.000 A 
ATOM      4  C   UNL     1       5.802   4.412  17.538  0.00  0.00    +0.000 A 
ATOM      5  O   UNL     1       5.133   4.126  18.689  0.00  0.00    +0.000 OA
ATOM      6  C   UNL     1       3.839   3.838  18.349  0.00  0.00    +0.000 A 
ATOM      7  C   UNL     1       3.683   3.962  16.981  0.00  0.00    +0.000 A 
ATOM      8  C   UNL     1       4.947   4.323  16.449  0.00  0.00    +0.000 A 
ATOM      9  C   UNL     1       5.460   4.576  15.165  0.00  0.00    +0.000 A 
ENDROOT
BRANCH   6  10
ATOM     10  C   UNL     1       2.947   3.453  19.440  0.00  0.00    +0.000 A 
ATOM     11  C   UNL     1       1.595   3.809  19.440  0.00  0.00    +0.000 A 
ATOM     12  C   UNL     1       0.808   3.445  20.521  0.00  0.00    +0.000 A 
ATOM     13  N   UNL     1       1.266   2.758  21.587  0.00  0.00    +0.000 NA
ATOM     14  C   UNL     1       2.569   2.416  21.568  0.00  0.00    +0.000 A 
ATOM     15  C   UNL     1       3.435   2.732  20.534  0.00  0.00    +0.000 A 
ENDBRANCH   6  10
BRANCH   1  16
ATOM     16  O   UNL     1       7.287   5.137  13.788  0.00  0.00    +0.000 OA
ATOM     17  H   UNL     1       6.541   5.115  13.165  0.00  0.00    +0.000 HD
ENDBRANCH   1  16
TORSDOF 2
ENDMDL
MODEL 4
REMARK VINA RESULT:      -6.8      2.903      6.483
REMARK  Name = 
REMARK  2 active torsions:
REMARK  status: ('A' for Active; 'I' for Inactive)
REMARK    1  A    between atoms: O_1  and  C_2
REMARK    2  A    between atoms: C_7  and  C_8
REMARK                            x       y       z     vdW  Elec       q    Type
REMARK                         _______ _______ _______ _____ _____    ______ ____
ROOT
ATOM      1  C   UNL     1       6.783   4.883  14.953  0.00  0.00    +0.000 A 
ATOM      2  C   UNL     1       7.645   4.939  16.048  0.00  0.00    +0.000 A 
ATOM      3  C   UNL     1       7.166   4.705  17.342  0.00  0.00    +0.000 A 
ATOM      4  C   UNL     1       5.808   4.415  17.462  0.00  0.00    +0.000 A 
ATOM      5  O   UNL     1       5.153   4.146  18.625  0.00  0.00    +0.000 OA
ATOM      6  C   UNL     1       3.845   3.896  18.311  0.00  0.00    +0.000 A 
ATOM      7  C   UNL     1       3.665   4.028  16.946  0.00  0.00    +0.000 A 
ATOM      8  C   UNL     1       4.928   4.354  16.390  0.00  0.00    +0.000 A 
ATOM      9  C   UNL     1       5.423   4.595  15.096  0.00  0.00    +0.000 A 
ENDROOT
BRANCH   6  10
ATOM     10  C   UNL     1       2.964   3.535  19.419  0.00  0.00    +0.000 A 
ATOM     11  C   UNL     1       3.433   2.809  20.518  0.00  0.00    +0.000 A 
ATOM     12  C   UNL     1       2.540   2.466  21.522  0.00  0.00    +0.000 A 
ATOM     13  N   UNL     1       1.232   2.794  21.509  0.00  0.00    +0.000 NA
ATOM     14  C   UNL     1       0.799   3.500  20.446  0.00  0.00    +0.000 A 
ATOM     15  C   UNL     1       1.612   3.891  19.396  0.00  0.00    +0.000 A 
ENDBRANCH   6  10
BRANCH   1  16
ATOM     16  O   UNL     1       7.237   5.106  13.684  0.00  0.00    +0.000 OA
ATOM     17  H   UNL     1       7.224   4.267  13.194  0.00  0.00    +0.000 HD
ENDBRANCH   1  16
TORSDOF 2
ENDMDL
MODEL 5
REMARK VINA RESULT:      -6.6      2.850      6.326
REMARK  Name = 
REMARK  2 active torsions:
REMARK  status: ('A' for Active; 'I' for Inactive)
REMARK    1  A    between atoms: O_1  and  C_2
REMARK    2  A    between atoms: C_7  and  C_8
REMARK                            x       y       z     vdW  Elec       q    Type
REMARK                         _______ _______ _______ _____ _____    ______ ____
ROOT
ATOM      1  C   UNL     1       7.037   5.079  14.890  0.00  0.00    +0.000 A 
ATOM      2  C   UNL     1       6.122   4.294  14.188  0.00  0.00    +0.000 A 
ATOM      3  C   UNL     1       5.022   3.728  14.843  0.00  0.00    +0.000 A 
ATOM      4  C   UNL     1       4.902   3.995  16.206  0.00  0.00    +0.000 A 
ATOM      5  O   UNL     1       3.902   3.551  17.016  0.00  0.00    +0.000 OA
ATOM      6  C   UNL     1       4.139   4.048  18.269  0.00  0.00    +0.000 A 
ATOM      7  C   UNL     1       5.304   4.792  18.257  0.00  0.00    +0.000 A 
ATOM      8  C   UNL     1       5.798   4.771  16.928  0.00  0.00    +0.000 A 
ATOM      9  C   UNL     1       6.900   5.331  16.258  0.00  0.00    +0.000 A 
ENDROOT
BRANCH   6  10
ATOM     10  C   UNL     1       3.151   3.728  19.296  0.00  0.00    +0.000 A 
ATOM     11  C   UNL     1       1.849   4.236  19.242  0.00  0.00    +0.000 A 
ATOM     12  C   UNL     1       0.967   3.925  20.265  0.00  0.00    +0.000 A 
ATOM     13  N   UNL     1       1.286   3.151  21.323  0.00  0.00    +0.000 NA
ATOM     14  C   UNL     1       2.542   2.664  21.356  0.00  0.00    +0.000 A 
ATOM     15  C   UNL     1       3.493   2.916  20.382  0.00  0.00    +0.000 A 
ENDBRANCH   6  10
BRANCH   1  16
ATOM     16  O   UNL     1       8.113   5.640  14.263  0.00  0.00    +0.000 OA
ATOM     17  H   UNL     1       8.697   4.930  13.947  0.00  0.00    +0.000 HD
ENDBRANCH   1  16
TORSDOF 2
ENDMDL
MODEL 6
REMARK VINA RESULT:      -6.6      2.883      6.318
REMARK  Name = 
REMARK  2 active torsions:
REMARK  status: ('A' for Active; 'I' for Inactive)
REMARK    1  A    between atoms: O_1  and  C_2
REMARK    2  A    between atoms: C_7  and  C_8
REMARK                            x       y       z     vdW  Elec       q    Type
REMARK                         _______ _______ _______ _____ _____    ______ ____
ROOT
ATOM      1  C   UNL     1       7.143   5.077  14.803  0.00  0.00    +0.000 A 
ATOM      2  C   UNL     1       6.206   4.232  14.207  0.00  0.00    +0.000 A 
ATOM      3  C   UNL     1       5.159   3.689  14.961  0.00  0.00    +0.000 A 
ATOM      4  C   UNL     1       5.112   4.042  16.309  0.00  0.00    +0.000 A 
ATOM      5  O   UNL     1       4.171   3.633  17.203  0.00  0.00    +0.000 OA
ATOM      6  C   UNL     1       4.469   4.214  18.406  0.00  0.00    +0.000 A 
ATOM      7  C   UNL     1       5.615   4.978  18.278  0.00  0.00    +0.000 A 
ATOM      8  C   UNL     1       6.031   4.880  16.926  0.00  0.00    +0.000 A 
ATOM      9  C   UNL     1       7.080   5.414  16.158  0.00  0.00    +0.000 A 
ENDROOT
BRANCH   6  10
ATOM     10  C   UNL     1       3.550   3.944  19.508  0.00  0.00    +0.000 A 
ATOM     11  C   UNL     1       3.625   2.761  20.251  0.00  0.00    +0.000 A 
ATOM     12  C   UNL     1       2.702   2.546  21.262  0.00  0.00    +0.000 A 
ATOM     13  N   UNL     1       1.724   3.417  21.583  0.00  0.00    +0.000 NA
ATOM     14  C   UNL     1       1.669   4.555  20.864  0.00  0.00    +0.000 A 
ATOM     15  C   UNL     1       2.547   4.861  19.837  0.00  0.00    +0.000 A 
ENDBRANCH   6  10
BRANCH   1  16
ATOM     16  O   UNL     1       8.169   5.616  14.079  0.00  0.00    +0.000 OA
ATOM     17  H   UNL     1       8.993   5.522  14.585  0.00  0.00    +0.000 HD
ENDBRANCH   1  16
TORSDOF 2
ENDMDL
MODEL 7
REMARK VINA RESULT:      -6.5      2.183      2.762
REMARK  Name = 
REMARK  2 active torsions:
REMARK  status: ('A' for Active; 'I' for Inactive)
REMARK    1  A    between atoms: O_1  and  C_2
REMARK    2  A    between atoms: C_7  and  C_8
REMARK                            x       y       z     vdW  Elec       q    Type
REMARK                         _______ _______ _______ _____ _____    ______ ____
ROOT
ATOM      1  C   UNL     1       1.117   2.410  18.671  0.00  0.00    +0.000 A 
ATOM      2  C   UNL     1       0.939   3.235  19.782  0.00  0.00    +0.000 A 
ATOM      3  C   UNL     1       1.891   4.208  20.104  0.00  0.00    +0.000 A 
ATOM      4  C   UNL     1       2.999   4.301  19.263  0.00  0.00    +0.000 A 
ATOM      5  O   UNL     1       4.025   5.185  19.396  0.00  0.00    +0.000 OA
ATOM      6  C   UNL     1       4.894   4.963  18.363  0.00  0.00    +0.000 A 
ATOM      7  C   UNL     1       4.428   3.919  17.584  0.00  0.00    +0.000 A 
ATOM      8  C   UNL     1       3.201   3.493  18.152  0.00  0.00    +0.000 A 
ATOM      9  C   UNL     1       2.238   2.516  17.843  0.00  0.00    +0.000 A 
ENDROOT
BRANCH   6  10
ATOM     10  C   UNL     1       6.057   5.844  18.286  0.00  0.00    +0.000 A 
ATOM     11  C   UNL     1       7.152   5.686  19.141  0.00  0.00    +0.000 A 
ATOM     12  C   UNL     1       8.210   6.576  19.043  0.00  0.00    +0.000 A 
ATOM     13  N   UNL     1       8.255   7.596  18.163  0.00  0.00    +0.000 NA
ATOM     14  C   UNL     1       7.195   7.730  17.341  0.00  0.00    +0.000 A 
ATOM     15  C   UNL     1       6.093   6.892  17.361  0.00  0.00    +0.000 A 
ENDBRANCH   6  10
BRANCH   1  16
ATOM     16  O   UNL     1       0.194   1.458  18.343  0.00  0.00    +0.000 OA
ATOM     17  H   UNL     1       0.306   0.696  18.936  0.00  0.00    +0.000 HD
ENDBRANCH   1  16
TORSDOF 2
ENDMDL
MODEL 8
REMARK VINA RESULT:      -6.5      2.195      2.702
REMARK  Name = 
REMARK  2 active torsions:
REMARK  status: ('A' for Active; 'I' for Inactive)
REMARK    1  A    between atoms: O_1  and  C_2
REMARK    2  A    between atoms: C_7  and  C_8
REMARK                            x       y       z     vdW  Elec       q    Type
REMARK                         _______ _______ _______ _____ _____    ______ ____
ROOT
ATOM      1  C   UNL     1       1.079   2.387  18.664  0.00  0.00    +0.000 A 
ATOM      2  C   UNL     1       0.896   3.196  19.786  0.00  0.00    +0.000 A 
ATOM      3  C   UNL     1       1.842   4.172  20.119  0.00  0.00    +0.000 A 
ATOM      4  C   UNL     1       2.948   4.283  19.277  0.00  0.00    +0.000 A 
ATOM      5  O   UNL     1       3.968   5.173  19.419  0.00  0.00    +0.000 OA
ATOM      6  C   UNL     1       4.837   4.970  18.382  0.00  0.00    +0.000 A 
ATOM      7  C   UNL     1       4.377   3.933  17.591  0.00  0.00    +0.000 A 
ATOM      8  C   UNL     1       3.154   3.491  18.156  0.00  0.00    +0.000 A 
ATOM      9  C   UNL     1       2.197   2.512  17.835  0.00  0.00    +0.000 A 
ENDROOT
BRANCH   6  10
ATOM     10  C   UNL     1       5.994   5.860  18.315  0.00  0.00    +0.000 A 
ATOM     11  C   UNL     1       6.045   6.925  17.410  0.00  0.00    +0.000 A 
ATOM     12  C   UNL     1       7.184   7.713  17.369  0.00  0.00    +0.000 A 
ATOM     13  N   UNL     1       8.260   7.520  18.159  0.00  0.00    +0.000 NA
ATOM     14  C   UNL     1       8.192   6.494  19.030  0.00  0.00    +0.000 A 
ATOM     15  C   UNL     1       7.098   5.653  19.147  0.00  0.00    +0.000 A 
ENDBRANCH   6  10
BRANCH   1  16
ATOM     16  O   UNL     1       0.162   1.433  18.325  0.00  0.00    +0.000 OA
ATOM     17  H   UNL     1      -0.551   1.851  17.812  0.00  0.00    +0.000 HD
ENDBRANCH   1  16
TORSDOF 2
ENDMDL
MODEL 9
REMARK VINA RESULT:      -6.5      4.301      5.336
REMARK  Name = 
REMARK  2 active torsions:
REMARK  status: ('A' for Active; 'I' for Inactive)
REMARK    1  A    between atoms: O_1  and  C_2
REMARK    2  A    between atoms: C_7  and  C_8
REMARK                            x       y       z     vdW  Elec       q    Type
REMARK                         _______ _______ _______ _____ _____    ______ ____
ROOT
ATOM      1  C   UNL     1       4.167   2.515  20.099  0.00  0.00    +0.000 A 
ATOM      2  C   UNL     1       3.116   2.478  21.016  0.00  0.00    +0.000 A 
ATOM      3  C   UNL     1       2.300   3.599  21.207  0.00  0.00    +0.000 A 
ATOM      4  C   UNL     1       2.596   4.724  20.438  0.00  0.00    +0.000 A 
ATOM      5  O   UNL     1       1.917   5.904  20.465  0.00  0.00    +0.000 OA
ATOM      6  C   UNL     1       2.508   6.738  19.554  0.00  0.00    +0.000 A 
ATOM      7  C   UNL     1       3.577   6.090  18.963  0.00  0.00    +0.000 A 
ATOM      8  C   UNL     1       3.635   4.788  19.520  0.00  0.00    +0.000 A 
ATOM      9  C   UNL     1       4.449   3.656  19.342  0.00  0.00    +0.000 A 
ENDROOT
BRANCH   6  10
ATOM     10  C   UNL     1       1.902   8.056  19.386  0.00  0.00    +0.000 A 
ATOM     11  C   UNL     1       1.191   8.672  20.421  0.00  0.00    +0.000 A 
ATOM     12  C   UNL     1       0.609   9.908  20.189  0.00  0.00    +0.000 A 
ATOM     13  N   UNL     1       0.687  10.567  19.015  0.00  0.00    +0.000 NA
ATOM     14  C   UNL     1       1.381   9.963  18.030  0.00  0.00    +0.000 A 
ATOM     15  C   UNL     1       1.999   8.731  18.165  0.00  0.00    +0.000 A 
ENDBRANCH   6  10
BRANCH   1  16
ATOM     16  O   UNL     1       4.970   1.428  19.901  0.00  0.00    +0.000 OA
ATOM     17  H   UNL     1       4.410   0.638  19.813  0.00  0.00    +0.000 HD
ENDBRANCH   1  16
TORSDOF 2
ENDMDL
