MODEL 1
REMARK VINA RESULT:      -5.1      0.000      0.000
REMARK  Name = 
REMARK  7 active torsions:
REMARK  status: ('A' for Active; 'I' for Inactive)
REMARK    1  A    between atoms: N_1  and  C_2
REMARK    2  A    between atoms: C_2  and  O_3
REMARK    3  A    between atoms: C_2  and  C_4
REMARK    4  A    between atoms: C_2  and  C_8
REMARK    5  A    between atoms: C_4  and  C_5
REMARK    6  A    between atoms: C_5  and  O_7
REMARK    7  A    between atoms: C_8  and  O_10
REMARK                            x       y       z     vdW  Elec       q    Type
REMARK                         _______ _______ _______ _____ _____    ______ ____
ROOT
ATOM      1  C   UNL     1       7.243   4.858  18.048  0.00  0.00    +0.000 C 
ENDROOT
BRANCH   1   2
ATOM      2  N   UNL     1       6.183   3.998  18.549  0.00  0.00    +0.000 NA
ATOM      3  H   UNL     1       5.516   3.820  17.787  0.00  0.00    +0.000 HD
ATOM      4  H   UNL     1       5.643   4.518  19.248  0.00  0.00    +0.000 HD
ENDBRANCH   1   2
BRANCH   1   5
ATOM      5  O   UNL     1       8.301   3.997  17.656  0.00  0.00    +0.000 OA
ATOM      6  H   UNL     1       8.062   3.780  16.732  0.00  0.00    +0.000 HD
ENDBRANCH   1   5
BRANCH   1   7
ATOM      7  C   UNL     1       7.767   5.741  19.226  0.00  0.00    +0.000 C 
ATOM      8  O   UNL     1       7.723   5.424  20.406  0.00  0.00    +0.000 OA
BRANCH   7   9
ATOM      9  O   UNL     1       8.256   6.930  18.788  0.00  0.00    +0.000 OA
ATOM     10  H   UNL     1       9.241   6.856  18.779  0.00  0.00    +0.000 HD
ENDBRANCH   7   9
ENDBRANCH   1   7
BRANCH   1  11
ATOM     11  C   UNL     1       6.885   5.799  16.900  0.00  0.00    +0.000 C 
BRANCH  11  12
ATOM     12  C   UNL     1       6.965   5.114  15.563  0.00  0.00    +0.000 C 
ATOM     13  O   UNL     1       7.750   5.425  14.678  0.00  0.00    +0.000 OA
BRANCH  12  14
ATOM     14  O   UNL     1       6.130   4.060  15.441  0.00  0.00    +0.000 OA
ATOM     15  H   UNL     1       5.529   4.090  14.674  0.00  0.00    +0.000 HD
ENDBRANCH  12  14
ENDBRANCH  11  12
ENDBRANCH   1  11
TORSDOF 7
ENDMDL
MODEL 2
REMARK VINA RESULT:      -4.9      0.982      1.466
REMARK  Name = 
REMARK  7 active torsions:
REMARK  status: ('A' for Active; 'I' for Inactive)
REMARK    1  A    between atoms: N_1  and  C_2
REMARK    2  A    between atoms: C_2  and  O_3
REMARK    3  A    between atoms: C_2  and  C_4
REMARK    4  A    between atoms: C_2  and  C_8
REMARK    5  A    between atoms: C_4  and  C_5
REMARK    6  A    between atoms: C_5  and  O_7
REMARK    7  A    between atoms: C_8  and  O_10
REMARK                            x       y       z     vdW  Elec       q    Type
REMARK                         _______ _______ _______ _____ _____    ______ ____
ROOT
ATOM      1  C   UNL     1       6.983   4.924  17.440  0.00  0.00    +0.000 C 
ENDROOT
BRANCH   1   2
ATOM      2  N   UNL     1       6.368   4.295  18.599  0.00  0.00    +0.000 NA
ATOM      3  H   UNL     1       5.521   4.823  18.849  0.00  0.00    +0.000 HD
ATOM      4  H   UNL     1       6.992   4.412  19.404  0.00  0.00    +0.000 HD
ENDBRANCH   1   2
BRANCH   1   5
ATOM      5  O   UNL     1       8.107   4.126  17.104  0.00  0.00    +0.000 OA
ATOM      6  H   UNL     1       8.845   4.623  17.512  0.00  0.00    +0.000 HD
ENDBRANCH   1   5
BRANCH   1   7
ATOM      7  C   UNL     1       7.513   6.331  17.860  0.00  0.00    +0.000 C 
ATOM      8  O   UNL     1       7.454   7.334  17.162  0.00  0.00    +0.000 OA
BRANCH   7   9
ATOM      9  O   UNL     1       8.084   6.310  19.092  0.00  0.00    +0.000 OA
ATOM     10  H   UNL     1       7.833   5.454  19.516  0.00  0.00    +0.000 HD
ENDBRANCH   7   9
ENDBRANCH   1   7
BRANCH   1  11
ATOM     11  C   UNL     1       6.097   5.120  16.211  0.00  0.00    +0.000 C 
BRANCH  11  12
ATOM     12  C   UNL     1       6.794   4.712  14.943  0.00  0.00    +0.000 C 
ATOM     13  O   UNL     1       7.678   5.365  14.403  0.00  0.00    +0.000 OA
BRANCH  12  14
ATOM     14  O   UNL     1       6.408   3.505  14.474  0.00  0.00    +0.000 OA
ATOM     15  H   UNL     1       5.459   3.424  14.265  0.00  0.00    +0.000 HD
ENDBRANCH  12  14
ENDBRANCH  11  12
ENDBRANCH   1  11
TORSDOF 7
ENDMDL
MODEL 3
REMARK VINA RESULT:      -4.8      1.036      1.540
REMARK  Name = 
REMARK  7 active torsions:
REMARK  status: ('A' for Active; 'I' for Inactive)
REMARK    1  A    between atoms: N_1  and  C_2
REMARK    2  A    between atoms: C_2  and  O_3
REMARK    3  A    between atoms: C_2  and  C_4
REMARK    4  A    between atoms: C_2  and  C_8
REMARK    5  A    between atoms: C_4  and  C_5
REMARK    6  A    between atoms: C_5  and  O_7
REMARK    7  A    between atoms: C_8  and  O_10
REMARK                            x       y       z     vdW  Elec       q    Type
REMARK                         _______ _______ _______ _____ _____    ______ ____
ROOT
ATOM      1  C   UNL     1       6.999   4.901  17.330  0.00  0.00    +0.000 C 
ENDROOT
BRANCH   1   2
ATOM      2  N   UNL     1       6.343   4.226  18.439  0.00  0.00    +0.000 NA
ATOM      3  H   UNL     1       5.580   3.645  18.066  0.00  0.00    +0.000 HD
ATOM      4  H   UNL     1       5.873   4.929  19.017  0.00  0.00    +0.000 HD
ENDBRANCH   1   2
BRANCH   1   5
ATOM      5  O   UNL     1       8.084   4.071  16.946  0.00  0.00    +0.000 OA
ATOM      6  H   UNL     1       7.680   3.179  16.964  0.00  0.00    +0.000 HD
ENDBRANCH   1   5
BRANCH   1   7
ATOM      7  C   UNL     1       7.597   6.246  17.850  0.00  0.00    +0.000 C 
ATOM      8  O   UNL     1       7.900   6.471  19.014  0.00  0.00    +0.000 OA
BRANCH   7   9
ATOM      9  O   UNL     1       7.718   7.164  16.856  0.00  0.00    +0.000 OA
ATOM     10  H   UNL     1       8.515   7.711  17.058  0.00  0.00    +0.000 HD
ENDBRANCH   7   9
ENDBRANCH   1   7
BRANCH   1  11
ATOM     11  C   UNL     1       6.137   5.228  16.113  0.00  0.00    +0.000 C 
BRANCH  11  12
ATOM     12  C   UNL     1       6.731   4.691  14.840  0.00  0.00    +0.000 C 
ATOM     13  O   UNL     1       6.326   3.692  14.260  0.00  0.00    +0.000 OA
BRANCH  12  14
ATOM     14  O   UNL     1       7.725   5.455  14.339  0.00  0.00    +0.000 OA
ATOM     15  H   UNL     1       7.924   5.314  13.394  0.00  0.00    +0.000 HD
ENDBRANCH  12  14
ENDBRANCH  11  12
ENDBRANCH   1  11
TORSDOF 7
ENDMDL
MODEL 4
REMARK VINA RESULT:      -4.8      2.066      2.791
REMARK  Name = 
REMARK  7 active torsions:
REMARK  status: ('A' for Active; 'I' for Inactive)
REMARK    1  A    between atoms: N_1  and  C_2
REMARK    2  A    between atoms: C_2  and  O_3
REMARK    3  A    between atoms: C_2  and  C_4
REMARK    4  A    between atoms: C_2  and  C_8
REMARK    5  A    between atoms: C_4  and  C_5
REMARK    6  A    between atoms: C_5  and  O_7
REMARK    7  A    between atoms: C_8  and  O_10
REMARK                            x       y       z     vdW  Elec       q    Type
REMARK                         _______ _______ _______ _____ _____    ______ ____
ROOT
ATOM      1  C   UNL     1       7.296   5.459  18.907  0.00  0.00    +0.000 C 
ENDROOT
BRANCH   1   2
ATOM      2  N   UNL     1       7.988   5.482  20.186  0.00  0.00    +0.000 NA
ATOM      3  H   UNL     1       7.328   5.199  20.922  0.00  0.00    +0.000 HD
ATOM      4  H   UNL     1       8.226   6.453  20.411  0.00  0.00    +0.000 HD
ENDBRANCH   1   2
BRANCH   1   5
ATOM      5  O   UNL     1       7.795   4.331  18.205  0.00  0.00    +0.000 OA
ATOM      6  H   UNL     1       7.000   3.763  18.131  0.00  0.00    +0.000 HD
ENDBRANCH   1   5
BRANCH   1   7
ATOM      7  C   UNL     1       7.700   6.732  18.098  0.00  0.00    +0.000 C 
ATOM      8  O   UNL     1       8.339   7.672  18.552  0.00  0.00    +0.000 OA
BRANCH   7   9
ATOM      9  O   UNL     1       7.231   6.694  16.824  0.00  0.00    +0.000 OA
ATOM     10  H   UNL     1       6.974   5.759  16.636  0.00  0.00    +0.000 HD
ENDBRANCH   7   9
ENDBRANCH   1   7
BRANCH   1  11
ATOM     11  C   UNL     1       5.770   5.414  18.948  0.00  0.00    +0.000 C 
BRANCH  11  12
ATOM     12  C   UNL     1       5.230   4.112  18.423  0.00  0.00    +0.000 C 
ATOM     13  O   UNL     1       4.828   3.946  17.279  0.00  0.00    +0.000 OA
BRANCH  12  14
ATOM     14  O   UNL     1       5.289   3.099  19.314  0.00  0.00    +0.000 OA
ATOM     15  H   UNL     1       4.432   2.821  19.688  0.00  0.00    +0.000 HD
ENDBRANCH  12  14
ENDBRANCH  11  12
ENDBRANCH   1  11
TORSDOF 7
ENDMDL
MODEL 5
REMARK VINA RESULT:      -4.7      1.967      3.965
REMARK  Name = 
REMARK  7 active torsions:
REMARK  status: ('A' for Active; 'I' for Inactive)
REMARK    1  A    between atoms: N_1  and  C_2
REMARK    2  A    between atoms: C_2  and  O_3
REMARK    3  A    between atoms: C_2  and  C_4
REMARK    4  A    between atoms: C_2  and  C_8
REMARK    5  A    between atoms: C_4  and  C_5
REMARK    6  A    between atoms: C_5  and  O_7
REMARK    7  A    between atoms: C_8  and  O_10
REMARK                            x       y       z     vdW  Elec       q    Type
REMARK                         _______ _______ _______ _____ _____    ______ ____
ROOT
ATOM      1  C   UNL     1       6.981   5.027  16.579  0.00  0.00    +0.000 C 
ENDROOT
BRANCH   1   2
ATOM      2  N   UNL     1       7.363   6.418  16.766  0.00  0.00    +0.000 NA
ATOM      3  H   UNL     1       8.039   6.472  17.540  0.00  0.00    +0.000 HD
ATOM      4  H   UNL     1       6.546   6.939  17.099  0.00  0.00    +0.000 HD
ENDBRANCH   1   2
BRANCH   1   5
ATOM      5  O   UNL     1       7.974   4.250  17.230  0.00  0.00    +0.000 OA
ATOM      6  H   UNL     1       7.982   3.430  16.695  0.00  0.00    +0.000 HD
ENDBRANCH   1   5
BRANCH   1   7
ATOM      7  C   UNL     1       7.047   4.693  15.054  0.00  0.00    +0.000 C 
ATOM      8  O   UNL     1       7.629   5.369  14.218  0.00  0.00    +0.000 OA
BRANCH   7   9
ATOM      9  O   UNL     1       6.349   3.567  14.752  0.00  0.00    +0.000 OA
ATOM     10  H   UNL     1       5.454   3.852  14.445  0.00  0.00    +0.000 HD
ENDBRANCH   7   9
ENDBRANCH   1   7
BRANCH   1  11
ATOM     11  C   UNL     1       5.594   4.619  17.073  0.00  0.00    +0.000 C 
BRANCH  11  12
ATOM     12  C   UNL     1       5.507   4.621  18.574  0.00  0.00    +0.000 C 
ATOM     13  O   UNL     1       5.341   5.627  19.251  0.00  0.00    +0.000 OA
BRANCH  12  14
ATOM     14  O   UNL     1       5.558   3.389  19.124  0.00  0.00    +0.000 OA
ATOM     15  H   UNL     1       5.477   2.648  18.495  0.00  0.00    +0.000 HD
ENDBRANCH  12  14
ENDBRANCH  11  12
ENDBRANCH   1  11
TORSDOF 7
ENDMDL
MODEL 6
REMARK VINA RESULT:      -4.7      1.331      3.778
REMARK  Name = 
REMARK  7 active torsions:
REMARK  status: ('A' for Active; 'I' for Inactive)
REMARK    1  A    between atoms: N_1  and  C_2
REMARK    2  A    between atoms: C_2  and  O_3
REMARK    3  A    between atoms: C_2  and  C_4
REMARK    4  A    between atoms: C_2  and  C_8
REMARK    5  A    between atoms: C_4  and  C_5
REMARK    6  A    between atoms: C_5  and  O_7
REMARK    7  A    between atoms: C_8  and  O_10
REMARK                            x       y       z     vdW  Elec       q    Type
REMARK                         _______ _______ _______ _____ _____    ______ ____
ROOT
ATOM      1  C   UNL     1       6.729   4.740  17.270  0.00  0.00    +0.000 C 
ENDROOT
BRANCH   1   2
ATOM      2  N   UNL     1       8.051   4.132  17.282  0.00  0.00    +0.000 NA
ATOM      3  H   UNL     1       8.549   4.445  18.126  0.00  0.00    +0.000 HD
ATOM      4  H   UNL     1       8.595   4.517  16.503  0.00  0.00    +0.000 HD
ENDBRANCH   1   2
BRANCH   1   5
ATOM      5  O   UNL     1       5.801   3.673  17.156  0.00  0.00    +0.000 OA
ATOM      6  H   UNL     1       6.005   3.135  17.949  0.00  0.00    +0.000 HD
ENDBRANCH   1   5
BRANCH   1   7
ATOM      7  C   UNL     1       6.597   5.618  15.984  0.00  0.00    +0.000 C 
ATOM      8  O   UNL     1       5.659   6.365  15.745  0.00  0.00    +0.000 OA
BRANCH   7   9
ATOM      9  O   UNL     1       7.640   5.432  15.135  0.00  0.00    +0.000 OA
ATOM     10  H   UNL     1       7.985   6.326  14.895  0.00  0.00    +0.000 HD
ENDBRANCH   7   9
ENDBRANCH   1   7
BRANCH   1  11
ATOM     11  C   UNL     1       6.365   5.624  18.461  0.00  0.00    +0.000 C 
BRANCH  11  12
ATOM     12  C   UNL     1       7.543   5.870  19.362  0.00  0.00    +0.000 C 
ATOM     13  O   UNL     1       7.802   5.200  20.354  0.00  0.00    +0.000 OA
BRANCH  12  14
ATOM     14  O   UNL     1       8.351   6.867  18.942  0.00  0.00    +0.000 OA
ATOM     15  H   UNL     1       8.996   6.619  18.253  0.00  0.00    +0.000 HD
ENDBRANCH  12  14
ENDBRANCH  11  12
ENDBRANCH   1  11
TORSDOF 7
ENDMDL
MODEL 7
REMARK VINA RESULT:      -4.7      1.844      3.834
REMARK  Name = 
REMARK  7 active torsions:
REMARK  status: ('A' for Active; 'I' for Inactive)
REMARK    1  A    between atoms: N_1  and  C_2
REMARK    2  A    between atoms: C_2  and  O_3
REMARK    3  A    between atoms: C_2  and  C_4
REMARK    4  A    between atoms: C_2  and  C_8
REMARK    5  A    between atoms: C_4  and  C_5
REMARK    6  A    between atoms: C_5  and  O_7
REMARK    7  A    between atoms: C_8  and  O_10
REMARK                            x       y       z     vdW  Elec       q    Type
REMARK                         _______ _______ _______ _____ _____    ______ ____
ROOT
ATOM      1  C   UNL     1       6.566   4.439  16.516  0.00  0.00    +0.000 C 
ENDROOT
BRANCH   1   2
ATOM      2  N   UNL     1       7.911   4.151  16.988  0.00  0.00    +0.000 NA
ATOM      3  H   UNL     1       8.200   4.898  17.634  0.00  0.00    +0.000 HD
ATOM      4  H   UNL     1       8.558   4.228  16.198  0.00  0.00    +0.000 HD
ENDBRANCH   1   2
BRANCH   1   5
ATOM      5  O   UNL     1       6.033   3.206  16.057  0.00  0.00    +0.000 OA
ATOM      6  H   UNL     1       6.732   2.570  16.312  0.00  0.00    +0.000 HD
ENDBRANCH   1   5
BRANCH   1   7
ATOM      7  C   UNL     1       6.664   5.397  15.286  0.00  0.00    +0.000 C 
ATOM      8  O   UNL     1       7.577   5.393  14.472  0.00  0.00    +0.000 OA
BRANCH   7   9
ATOM      9  O   UNL     1       5.623   6.268  15.239  0.00  0.00    +0.000 OA
ATOM     10  H   UNL     1       5.022   5.966  14.515  0.00  0.00    +0.000 HD
ENDBRANCH   7   9
ENDBRANCH   1   7
BRANCH   1  11
ATOM     11  C   UNL     1       5.605   5.081  17.516  0.00  0.00    +0.000 C 
BRANCH  11  12
ATOM     12  C   UNL     1       5.878   4.635  18.926  0.00  0.00    +0.000 C 
ATOM     13  O   UNL     1       6.394   5.342  19.782  0.00  0.00    +0.000 OA
BRANCH  12  14
ATOM     14  O   UNL     1       5.435   3.389  19.198  0.00  0.00    +0.000 OA
ATOM     15  H   UNL     1       4.485   3.239  19.035  0.00  0.00    +0.000 HD
ENDBRANCH  12  14
ENDBRANCH  11  12
ENDBRANCH   1  11
TORSDOF 7
ENDMDL
MODEL 8
REMARK VINA RESULT:      -4.7      2.258      3.474
REMARK  Name = 
REMARK  7 active torsions:
REMARK  status: ('A' for Active; 'I' for Inactive)
REMARK    1  A    between atoms: N_1  and  C_2
REMARK    2  A    between atoms: C_2  and  O_3
REMARK    3  A    between atoms: C_2  and  C_4
REMARK    4  A    between atoms: C_2  and  C_8
REMARK    5  A    between atoms: C_4  and  C_5
REMARK    6  A    between atoms: C_5  and  O_7
REMARK    7  A    between atoms: C_8  and  O_10
REMARK                            x       y       z     vdW  Elec       q    Type
REMARK                         _______ _______ _______ _____ _____    ______ ____
ROOT
ATOM      1  C   UNL     1       6.851   4.675  17.460  0.00  0.00    +0.000 C 
ENDROOT
BRANCH   1   2
ATOM      2  N   UNL     1       8.173   4.116  17.695  0.00  0.00    +0.000 NA
ATOM      3  H   UNL     1       8.106   3.090  17.668  0.00  0.00    +0.000 HD
ATOM      4  H   UNL     1       8.453   4.331  18.657  0.00  0.00    +0.000 HD
ENDBRANCH   1   2
BRANCH   1   5
ATOM      5  O   UNL     1       6.143   3.712  16.695  0.00  0.00    +0.000 OA
ATOM      6  H   UNL     1       6.513   3.846  15.798  0.00  0.00    +0.000 HD
ENDBRANCH   1   5
BRANCH   1   7
ATOM      7  C   UNL     1       7.002   5.957  16.581  0.00  0.00    +0.000 C 
ATOM      8  O   UNL     1       6.695   7.086  16.938  0.00  0.00    +0.000 OA
BRANCH   7   9
ATOM      9  O   UNL     1       7.491   5.670  15.347  0.00  0.00    +0.000 OA
ATOM     10  H   UNL     1       7.608   6.528  14.872  0.00  0.00    +0.000 HD
ENDBRANCH   7   9
ENDBRANCH   1   7
BRANCH   1  11
ATOM     11  C   UNL     1       6.036   5.063  18.693  0.00  0.00    +0.000 C 
BRANCH  11  12
ATOM     12  C   UNL     1       4.897   4.112  18.937  0.00  0.00    +0.000 C 
ATOM     13  O   UNL     1       3.739   4.326  18.600  0.00  0.00    +0.000 OA
BRANCH  12  14
ATOM     14  O   UNL     1       5.272   2.947  19.508  0.00  0.00    +0.000 OA
ATOM     15  H   UNL     1       4.910   2.784  20.399  0.00  0.00    +0.000 HD
ENDBRANCH  12  14
ENDBRANCH  11  12
ENDBRANCH   1  11
TORSDOF 7
ENDMDL
MODEL 9
REMARK VINA RESULT:      -4.7      1.666      3.886
REMARK  Name = 
REMARK  7 active torsions:
REMARK  status: ('A' for Active; 'I' for Inactive)
REMARK    1  A    between atoms: N_1  and  C_2
REMARK    2  A    between atoms: C_2  and  O_3
REMARK    3  A    between atoms: C_2  and  C_4
REMARK    4  A    between atoms: C_2  and  C_8
REMARK    5  A    between atoms: C_4  and  C_5
REMARK    6  A    between atoms: C_5  and  O_7
REMARK    7  A    between atoms: C_8  and  O_10
REMARK                            x       y       z     vdW  Elec       q    Type
REMARK                         _______ _______ _______ _____ _____    ______ ____
ROOT
ATOM      1  C   UNL     1       7.106   4.872  17.023  0.00  0.00    +0.000 C 
ENDROOT
BRANCH   1   2
ATOM      2  N   UNL     1       7.505   6.265  17.157  0.00  0.00    +0.000 NA
ATOM      3  H   UNL     1       8.386   6.405  16.643  0.00  0.00    +0.000 HD
ATOM      4  H   UNL     1       7.746   6.442  18.137  0.00  0.00    +0.000 HD
ENDBRANCH   1   2
BRANCH   1   5
ATOM      5  O   UNL     1       8.207   4.098  17.471  0.00  0.00    +0.000 OA
ATOM      6  H   UNL     1       7.983   3.205  17.136  0.00  0.00    +0.000 HD
ENDBRANCH   1   5
BRANCH   1   7
ATOM      7  C   UNL     1       6.895   4.559  15.507  0.00  0.00    +0.000 C 
ATOM      8  O   UNL     1       6.165   3.679  15.073  0.00  0.00    +0.000 OA
BRANCH   7   9
ATOM      9  O   UNL     1       7.648   5.365  14.714  0.00  0.00    +0.000 OA
ATOM     10  H   UNL     1       8.268   5.858  15.304  0.00  0.00    +0.000 HD
ENDBRANCH   7   9
ENDBRANCH   1   7
BRANCH   1  11
ATOM     11  C   UNL     1       5.835   4.445  17.755  0.00  0.00    +0.000 C 
BRANCH  11  12
ATOM     12  C   UNL     1       5.692   5.133  19.084  0.00  0.00    +0.000 C 
ATOM     13  O   UNL     1       4.629   5.531  19.542  0.00  0.00    +0.000 OA
BRANCH  12  14
ATOM     14  O   UNL     1       6.846   5.217  19.781  0.00  0.00    +0.000 OA
ATOM     15  H   UNL     1       6.820   4.837  20.679  0.00  0.00    +0.000 HD
ENDBRANCH  12  14
ENDBRANCH  11  12
ENDBRANCH   1  11
TORSDOF 7
ENDMDL
