MODEL 1
REMARK VINA RESULT:      -8.7      0.000      0.000
REMARK  Name = 
REMARK  5 active torsions:
REMARK  status: ('A' for Active; 'I' for Inactive)
REMARK    1  A    between atoms: C_2  and  C_5
REMARK    2  A    between atoms: C_9  and  N_10
REMARK    3  A    between atoms: C_14  and  N_15
REMARK    4  A    between atoms: N_15  and  C_16
REMARK    5  A    between atoms: C_20  and  C_21
REMARK                            x       y       z     vdW  Elec       q    Type
REMARK                         _______ _______ _______ _____ _____    ______ ____
ROOT
ATOM      1  N   UNL     1       2.586   6.062  19.468  0.00  0.00    +0.000 N 
ATOM      2  C   UNL     1       2.170   7.414  19.390  0.00  0.00    +0.000 A 
ATOM      3  C   UNL     1       1.556   8.021  20.484  0.00  0.00    +0.000 A 
ATOM      4  N   UNL     1       1.079   9.292  20.478  0.00  0.00    +0.000 NA
ATOM      5  C   UNL     1       1.174   9.969  19.313  0.00  0.00    +0.000 A 
ATOM      6  C   UNL     1       1.737   9.342  18.203  0.00  0.00    +0.000 A 
ATOM      7  N   UNL     1       2.259   8.088  18.223  0.00  0.00    +0.000 NA
ATOM      8  H   UNL     1       2.814   5.822  20.430  0.00  0.00    +0.000 HD
ENDROOT
BRANCH   1  13
ATOM      9  C   UNL     1       5.917   5.062  18.073  0.00  0.00    +0.000 A 
ATOM     10  C   UNL     1       5.503   4.200  17.050  0.00  0.00    +0.000 A 
ATOM     11  C   UNL     1       4.145   3.964  16.835  0.00  0.00    +0.000 A 
ATOM     12  C   UNL     1       3.188   4.597  17.631  0.00  0.00    +0.000 A 
ATOM     13  C   UNL     1       3.576   5.495  18.629  0.00  0.00    +0.000 A 
ATOM     14  C   UNL     1       4.943   5.688  18.866  0.00  0.00    +0.000 A 
BRANCH   9  16
ATOM     15  F   UNL     1       7.850   6.447  17.725  0.00  0.00    +0.000 F 
ATOM     16  C   UNL     1       7.375   5.328  18.343  0.00  0.00    +0.000 C 
ATOM     17  F   UNL     1       8.175   4.306  17.928  0.00  0.00    +0.000 F 
ATOM     18  F   UNL     1       7.643   5.495  19.669  0.00  0.00    +0.000 F 
ENDBRANCH   9  16
ENDBRANCH   1  13
BRANCH   5  19
ATOM     19  N   UNL     1       0.603  11.260  19.191  0.00  0.00    +0.000 N 
ATOM     20  H   UNL     1       0.854  11.824  19.999  0.00  0.00    +0.000 HD
BRANCH  19  21
ATOM     21  C   UNL     1      -0.772  11.479  18.921  0.00  0.00    +0.000 A 
ATOM     22  C   UNL     1      -1.579  12.040  19.914  0.00  0.00    +0.000 A 
ATOM     23  C   UNL     1      -2.952  12.193  19.709  0.00  0.00    +0.000 A 
ATOM     24  C   UNL     1      -3.538  11.749  18.523  0.00  0.00    +0.000 A 
ATOM     25  C   UNL     1      -2.755  11.142  17.533  0.00  0.00    +0.000 A 
ATOM     26  C   UNL     1      -1.377  11.003  17.751  0.00  0.00    +0.000 A 
BRANCH  25  27
ATOM     27  C   UNL     1      -3.357  10.632  16.248  0.00  0.00    +0.000 C 
ATOM     28  F   UNL     1      -4.687  10.890  16.128  0.00  0.00    +0.000 F 
ATOM     29  F   UNL     1      -2.771  11.167  15.141  0.00  0.00    +0.000 F 
ATOM     30  F   UNL     1      -3.227   9.280  16.118  0.00  0.00    +0.000 F 
ENDBRANCH  25  27
ENDBRANCH  19  21
ENDBRANCH   5  19
TORSDOF 5
ENDMDL
MODEL 2
REMARK VINA RESULT:      -8.5      0.735      1.122
REMARK  Name = 
REMARK  5 active torsions:
REMARK  status: ('A' for Active; 'I' for Inactive)
REMARK    1  A    between atoms: C_2  and  C_5
REMARK    2  A    between atoms: C_9  and  N_10
REMARK    3  A    between atoms: C_14  and  N_15
REMARK    4  A    between atoms: N_15  and  C_16
REMARK    5  A    between atoms: C_20  and  C_21
REMARK                            x       y       z     vdW  Elec       q    Type
REMARK                         _______ _______ _______ _____ _____    ______ ____
ROOT
ATOM      1  N   UNL     1       2.622   6.154  19.255  0.00  0.00    +0.000 N 
ATOM      2  C   UNL     1       2.243   7.506  19.067  0.00  0.00    +0.000 A 
ATOM      3  C   UNL     1       1.618   8.207  20.096  0.00  0.00    +0.000 A 
ATOM      4  N   UNL     1       1.174   9.484  19.984  0.00  0.00    +0.000 NA
ATOM      5  C   UNL     1       1.318  10.072  18.776  0.00  0.00    +0.000 A 
ATOM      6  C   UNL     1       1.892   9.351  17.730  0.00  0.00    +0.000 A 
ATOM      7  N   UNL     1       2.380   8.090  17.857  0.00  0.00    +0.000 NA
ATOM      8  H   UNL     1       2.818   5.979  20.238  0.00  0.00    +0.000 HD
ENDROOT
BRANCH   1  13
ATOM      9  C   UNL     1       5.962   4.991  18.017  0.00  0.00    +0.000 A 
ATOM     10  C   UNL     1       5.554   4.048  17.065  0.00  0.00    +0.000 A 
ATOM     11  C   UNL     1       4.197   3.814  16.844  0.00  0.00    +0.000 A 
ATOM     12  C   UNL     1       3.235   4.526  17.563  0.00  0.00    +0.000 A 
ATOM     13  C   UNL     1       3.618   5.502  18.487  0.00  0.00    +0.000 A 
ATOM     14  C   UNL     1       4.983   5.696  18.733  0.00  0.00    +0.000 A 
BRANCH   9  16
ATOM     15  F   UNL     1       7.701   5.440  19.613  0.00  0.00    +0.000 F 
ATOM     16  C   UNL     1       7.419   5.259  18.291  0.00  0.00    +0.000 C 
ATOM     17  F   UNL     1       7.869   6.379  17.659  0.00  0.00    +0.000 F 
ATOM     18  F   UNL     1       8.228   4.246  17.874  0.00  0.00    +0.000 F 
ENDBRANCH   9  16
ENDBRANCH   1  13
BRANCH   5  19
ATOM     19  N   UNL     1       0.784  11.363  18.544  0.00  0.00    +0.000 N 
ATOM     20  H   UNL     1       1.367  12.062  18.998  0.00  0.00    +0.000 HD
BRANCH  19  21
ATOM     21  C   UNL     1      -0.570  11.702  18.794  0.00  0.00    +0.000 A 
ATOM     22  C   UNL     1      -0.869  12.597  19.824  0.00  0.00    +0.000 A 
ATOM     23  C   UNL     1      -2.196  12.888  20.149  0.00  0.00    +0.000 A 
ATOM     24  C   UNL     1      -3.238  12.253  19.472  0.00  0.00    +0.000 A 
ATOM     25  C   UNL     1      -2.962  11.317  18.468  0.00  0.00    +0.000 A 
ATOM     26  C   UNL     1      -1.625  11.042  18.148  0.00  0.00    +0.000 A 
BRANCH  25  27
ATOM     27  C   UNL     1      -4.062  10.598  17.731  0.00  0.00    +0.000 C 
ATOM     28  F   UNL     1      -5.269  10.656  18.357  0.00  0.00    +0.000 F 
ATOM     29  F   UNL     1      -4.268  11.089  16.477  0.00  0.00    +0.000 F 
ATOM     30  F   UNL     1      -3.792   9.270  17.567  0.00  0.00    +0.000 F 
ENDBRANCH  25  27
ENDBRANCH  19  21
ENDBRANCH   5  19
TORSDOF 5
ENDMDL
MODEL 3
REMARK VINA RESULT:      -8.3      5.922      9.240
REMARK  Name = 
REMARK  5 active torsions:
REMARK  status: ('A' for Active; 'I' for Inactive)
REMARK    1  A    between atoms: C_2  and  C_5
REMARK    2  A    between atoms: C_9  and  N_10
REMARK    3  A    between atoms: C_14  and  N_15
REMARK    4  A    between atoms: N_15  and  C_16
REMARK    5  A    between atoms: C_20  and  C_21
REMARK                            x       y       z     vdW  Elec       q    Type
REMARK                         _______ _______ _______ _____ _____    ______ ____
ROOT
ATOM      1  N   UNL     1       5.447   5.506  18.774  0.00  0.00    +0.000 N 
ATOM      2  C   UNL     1       5.793   5.193  17.437  0.00  0.00    +0.000 A 
ATOM      3  C   UNL     1       7.121   4.931  17.101  0.00  0.00    +0.000 A 
ATOM      4  N   UNL     1       7.548   4.677  15.838  0.00  0.00    +0.000 NA
ATOM      5  C   UNL     1       6.618   4.734  14.861  0.00  0.00    +0.000 A 
ATOM      6  C   UNL     1       5.300   5.051  15.189  0.00  0.00    +0.000 A 
ATOM      7  N   UNL     1       4.864   5.257  16.459  0.00  0.00    +0.000 NA
ATOM      8  H   UNL     1       6.100   5.065  19.417  0.00  0.00    +0.000 HD
ENDROOT
BRANCH   1  13
ATOM      9  C   UNL     1       2.446   4.035  20.469  0.00  0.00    +0.000 A 
ATOM     10  C   UNL     1       1.612   5.159  20.507  0.00  0.00    +0.000 A 
ATOM     11  C   UNL     1       2.045   6.374  19.975  0.00  0.00    +0.000 A 
ATOM     12  C   UNL     1       3.309   6.474  19.391  0.00  0.00    +0.000 A 
ATOM     13  C   UNL     1       4.141   5.355  19.304  0.00  0.00    +0.000 A 
ATOM     14  C   UNL     1       3.715   4.153  19.882  0.00  0.00    +0.000 A 
BRANCH   9  16
ATOM     15  F   UNL     1       1.704   1.779  20.103  0.00  0.00    +0.000 F 
ATOM     16  C   UNL     1       2.017   2.711  21.047  0.00  0.00    +0.000 C 
ATOM     17  F   UNL     1       0.914   2.823  21.839  0.00  0.00    +0.000 F 
ATOM     18  F   UNL     1       2.978   2.141  21.827  0.00  0.00    +0.000 F 
ENDBRANCH   9  16
ENDBRANCH   1  13
BRANCH   5  19
ATOM     19  N   UNL     1       7.000   4.588  13.504  0.00  0.00    +0.000 N 
ATOM     20  H   UNL     1       6.981   5.495  13.044  0.00  0.00    +0.000 HD
BRANCH  19  21
ATOM     21  C   UNL     1       6.408   3.645  12.626  0.00  0.00    +0.000 A 
ATOM     22  C   UNL     1       7.174   2.572  12.164  0.00  0.00    +0.000 A 
ATOM     23  C   UNL     1       6.646   1.673  11.234  0.00  0.00    +0.000 A 
ATOM     24  C   UNL     1       5.360   1.863  10.728  0.00  0.00    +0.000 A 
ATOM     25  C   UNL     1       4.592   2.958  11.142  0.00  0.00    +0.000 A 
ATOM     26  C   UNL     1       5.133   3.847  12.082  0.00  0.00    +0.000 A 
BRANCH  25  27
ATOM     27  C   UNL     1       3.207   3.205  10.601  0.00  0.00    +0.000 C 
ATOM     28  F   UNL     1       2.973   4.504  10.270  0.00  0.00    +0.000 F 
ATOM     29  F   UNL     1       2.941   2.480   9.479  0.00  0.00    +0.000 F 
ATOM     30  F   UNL     1       2.235   2.869  11.497  0.00  0.00    +0.000 F 
ENDBRANCH  25  27
ENDBRANCH  19  21
ENDBRANCH   5  19
TORSDOF 5
ENDMDL
MODEL 4
REMARK VINA RESULT:      -8.3      1.870      9.246
REMARK  Name = 
REMARK  5 active torsions:
REMARK  status: ('A' for Active; 'I' for Inactive)
REMARK    1  A    between atoms: C_2  and  C_5
REMARK    2  A    between atoms: C_9  and  N_10
REMARK    3  A    between atoms: C_14  and  N_15
REMARK    4  A    between atoms: N_15  and  C_16
REMARK    5  A    between atoms: C_20  and  C_21
REMARK                            x       y       z     vdW  Elec       q    Type
REMARK                         _______ _______ _______ _____ _____    ______ ____
ROOT
ATOM      1  N   UNL     1       0.903   9.654  20.450  0.00  0.00    +0.000 N 
ATOM      2  C   UNL     1       1.447   8.429  19.991  0.00  0.00    +0.000 A 
ATOM      3  C   UNL     1       1.550   7.342  20.857  0.00  0.00    +0.000 A 
ATOM      4  N   UNL     1       2.107   6.152  20.517  0.00  0.00    +0.000 NA
ATOM      5  C   UNL     1       2.625   6.058  19.273  0.00  0.00    +0.000 A 
ATOM      6  C   UNL     1       2.572   7.164  18.426  0.00  0.00    +0.000 A 
ATOM      7  N   UNL     1       1.972   8.339  18.750  0.00  0.00    +0.000 NA
ATOM      8  H   UNL     1       0.237   9.483  21.199  0.00  0.00    +0.000 HD
ENDROOT
BRANCH   1  13
ATOM      9  C   UNL     1      -1.367  11.399  18.031  0.00  0.00    +0.000 A 
ATOM     10  C   UNL     1      -0.806  12.682  18.054  0.00  0.00    +0.000 A 
ATOM     11  C   UNL     1       0.303  12.951  18.856  0.00  0.00    +0.000 A 
ATOM     12  C   UNL     1       0.870  11.939  19.633  0.00  0.00    +0.000 A 
ATOM     13  C   UNL     1       0.354  10.640  19.594  0.00  0.00    +0.000 A 
ATOM     14  C   UNL     1      -0.787  10.393  18.820  0.00  0.00    +0.000 A 
BRANCH   9  16
ATOM     15  F   UNL     1      -2.390  11.315  15.859  0.00  0.00    +0.000 F 
ATOM     16  C   UNL     1      -2.573  11.076  17.188  0.00  0.00    +0.000 C 
ATOM     17  F   UNL     1      -3.668  11.802  17.549  0.00  0.00    +0.000 F 
ATOM     18  F   UNL     1      -2.947   9.769  17.283  0.00  0.00    +0.000 F 
ENDBRANCH   9  16
ENDBRANCH   1  13
BRANCH   5  19
ATOM     19  N   UNL     1       3.320   4.889  18.877  0.00  0.00    +0.000 N 
ATOM     20  H   UNL     1       3.317   4.214  19.638  0.00  0.00    +0.000 HD
BRANCH  19  21
ATOM     21  C   UNL     1       4.625   4.909  18.323  0.00  0.00    +0.000 A 
ATOM     22  C   UNL     1       5.701   5.287  19.129  0.00  0.00    +0.000 A 
ATOM     23  C   UNL     1       6.986   5.396  18.593  0.00  0.00    +0.000 A 
ATOM     24  C   UNL     1       7.199   5.166  17.233  0.00  0.00    +0.000 A 
ATOM     25  C   UNL     1       6.127   4.831  16.396  0.00  0.00    +0.000 A 
ATOM     26  C   UNL     1       4.845   4.718  16.953  0.00  0.00    +0.000 A 
BRANCH  25  27
ATOM     27  C   UNL     1       6.317   4.596  14.920  0.00  0.00    +0.000 C 
ATOM     28  F   UNL     1       7.455   5.149  14.420  0.00  0.00    +0.000 F 
ATOM     29  F   UNL     1       6.372   3.273  14.598  0.00  0.00    +0.000 F 
ATOM     30  F   UNL     1       5.296   5.114  14.179  0.00  0.00    +0.000 F 
ENDBRANCH  25  27
ENDBRANCH  19  21
ENDBRANCH   5  19
TORSDOF 5
ENDMDL
MODEL 5
REMARK VINA RESULT:      -8.3      2.655      3.316
REMARK  Name = 
REMARK  5 active torsions:
REMARK  status: ('A' for Active; 'I' for Inactive)
REMARK    1  A    between atoms: C_2  and  C_5
REMARK    2  A    between atoms: C_9  and  N_10
REMARK    3  A    between atoms: C_14  and  N_15
REMARK    4  A    between atoms: N_15  and  C_16
REMARK    5  A    between atoms: C_20  and  C_21
REMARK                            x       y       z     vdW  Elec       q    Type
REMARK                         _______ _______ _______ _____ _____    ______ ____
ROOT
ATOM      1  N   UNL     1       3.325   6.163  17.849  0.00  0.00    +0.000 N 
ATOM      2  C   UNL     1       2.605   7.317  18.245  0.00  0.00    +0.000 A 
ATOM      3  C   UNL     1       2.661   8.476  17.473  0.00  0.00    +0.000 A 
ATOM      4  N   UNL     1       2.047   9.640  17.806  0.00  0.00    +0.000 NA
ATOM      5  C   UNL     1       1.388   9.662  18.985  0.00  0.00    +0.000 A 
ATOM      6  C   UNL     1       1.379   8.519  19.783  0.00  0.00    +0.000 A 
ATOM      7  N   UNL     1       1.952   7.340  19.427  0.00  0.00    +0.000 NA
ATOM      8  H   UNL     1       3.429   6.146  16.837  0.00  0.00    +0.000 HD
ENDROOT
BRANCH   1  13
ATOM      9  C   UNL     1       2.389   3.268  20.035  0.00  0.00    +0.000 A 
ATOM     10  C   UNL     1       2.198   2.280  19.062  0.00  0.00    +0.000 A 
ATOM     11  C   UNL     1       2.382   2.577  17.711  0.00  0.00    +0.000 A 
ATOM     12  C   UNL     1       2.770   3.861  17.322  0.00  0.00    +0.000 A 
ATOM     13  C   UNL     1       3.007   4.852  18.279  0.00  0.00    +0.000 A 
ATOM     14  C   UNL     1       2.775   4.554  19.628  0.00  0.00    +0.000 A 
BRANCH   9  16
ATOM     15  F   UNL     1       3.003   2.010  21.988  0.00  0.00    +0.000 F 
ATOM     16  C   UNL     1       2.185   2.985  21.501  0.00  0.00    +0.000 C 
ATOM     17  F   UNL     1       0.915   2.578  21.780  0.00  0.00    +0.000 F 
ATOM     18  F   UNL     1       2.405   4.079  22.283  0.00  0.00    +0.000 F 
ENDBRANCH   9  16
ENDBRANCH   1  13
BRANCH   5  19
ATOM     19  N   UNL     1       0.813  10.867  19.457  0.00  0.00    +0.000 N 
ATOM     20  H   UNL     1       0.946  10.940  20.462  0.00  0.00    +0.000 HD
BRANCH  19  21
ATOM     21  C   UNL     1      -0.519  11.259  19.168  0.00  0.00    +0.000 A 
ATOM     22  C   UNL     1      -1.246  11.961  20.133  0.00  0.00    +0.000 A 
ATOM     23  C   UNL     1      -2.585  12.290  19.911  0.00  0.00    +0.000 A 
ATOM     24  C   UNL     1      -3.222  11.883  18.738  0.00  0.00    +0.000 A 
ATOM     25  C   UNL     1      -2.526  11.138  17.778  0.00  0.00    +0.000 A 
ATOM     26  C   UNL     1      -1.179  10.823  18.012  0.00  0.00    +0.000 A 
BRANCH  25  27
ATOM     27  C   UNL     1      -3.187  10.665  16.510  0.00  0.00    +0.000 C 
ATOM     28  F   UNL     1      -2.625  11.170  15.378  0.00  0.00    +0.000 F 
ATOM     29  F   UNL     1      -3.155   9.310  16.370  0.00  0.00    +0.000 F 
ATOM     30  F   UNL     1      -4.506  11.010  16.455  0.00  0.00    +0.000 F 
ENDBRANCH  25  27
ENDBRANCH  19  21
ENDBRANCH   5  19
TORSDOF 5
ENDMDL
MODEL 6
REMARK VINA RESULT:      -8.2      1.889      9.213
REMARK  Name = 
REMARK  5 active torsions:
REMARK  status: ('A' for Active; 'I' for Inactive)
REMARK    1  A    between atoms: C_2  and  C_5
REMARK    2  A    between atoms: C_9  and  N_10
REMARK    3  A    between atoms: C_14  and  N_15
REMARK    4  A    between atoms: N_15  and  C_16
REMARK    5  A    between atoms: C_20  and  C_21
REMARK                            x       y       z     vdW  Elec       q    Type
REMARK                         _______ _______ _______ _____ _____    ______ ____
ROOT
ATOM      1  N   UNL     1       0.841   9.414  20.703  0.00  0.00    +0.000 N 
ATOM      2  C   UNL     1       1.441   8.220  20.234  0.00  0.00    +0.000 A 
ATOM      3  C   UNL     1       1.483   7.090  21.050  0.00  0.00    +0.000 A 
ATOM      4  N   UNL     1       2.085   5.925  20.702  0.00  0.00    +0.000 NA
ATOM      5  C   UNL     1       2.714   5.901  19.506  0.00  0.00    +0.000 A 
ATOM      6  C   UNL     1       2.720   7.048  18.715  0.00  0.00    +0.000 A 
ATOM      7  N   UNL     1       2.076   8.198  19.042  0.00  0.00    +0.000 NA
ATOM      8  H   UNL     1       0.113   9.197  21.380  0.00  0.00    +0.000 HD
ENDROOT
BRANCH   1  13
ATOM      9  C   UNL     1      -1.324  11.320  18.311  0.00  0.00    +0.000 A 
ATOM     10  C   UNL     1      -0.669  12.558  18.323  0.00  0.00    +0.000 A 
ATOM     11  C   UNL     1       0.469  12.744  19.109  0.00  0.00    +0.000 A 
ATOM     12  C   UNL     1       0.968  11.693  19.881  0.00  0.00    +0.000 A 
ATOM     13  C   UNL     1       0.356  10.437  19.852  0.00  0.00    +0.000 A 
ATOM     14  C   UNL     1      -0.811  10.275  19.095  0.00  0.00    +0.000 A 
BRANCH   9  16
ATOM     15  F   UNL     1      -3.007   9.800  17.518  0.00  0.00    +0.000 F 
ATOM     16  C   UNL     1      -2.563  11.088  17.485  0.00  0.00    +0.000 C 
ATOM     17  F   UNL     1      -2.372  11.383  16.169  0.00  0.00    +0.000 F 
ATOM     18  F   UNL     1      -3.615  11.854  17.889  0.00  0.00    +0.000 F 
ENDBRANCH   9  16
ENDBRANCH   1  13
BRANCH   5  19
ATOM     19  N   UNL     1       3.458   4.760  19.116  0.00  0.00    +0.000 N 
ATOM     20  H   UNL     1       3.527   4.112  19.897  0.00  0.00    +0.000 HD
BRANCH  19  21
ATOM     21  C   UNL     1       4.734   4.836  18.503  0.00  0.00    +0.000 A 
ATOM     22  C   UNL     1       5.823   5.286  19.253  0.00  0.00    +0.000 A 
ATOM     23  C   UNL     1       7.076   5.450  18.657  0.00  0.00    +0.000 A 
ATOM     24  C   UNL     1       7.240   5.204  17.293  0.00  0.00    +0.000 A 
ATOM     25  C   UNL     1       6.151   4.797  16.512  0.00  0.00    +0.000 A 
ATOM     26  C   UNL     1       4.902   4.629  17.128  0.00  0.00    +0.000 A 
BRANCH  25  27
ATOM     27  C   UNL     1       6.288   4.542  15.033  0.00  0.00    +0.000 C 
ATOM     28  F   UNL     1       5.341   5.166  14.281  0.00  0.00    +0.000 F 
ATOM     29  F   UNL     1       7.489   4.949  14.535  0.00  0.00    +0.000 F 
ATOM     30  F   UNL     1       6.191   3.216  14.726  0.00  0.00    +0.000 F 
ENDBRANCH  25  27
ENDBRANCH  19  21
ENDBRANCH   5  19
TORSDOF 5
ENDMDL
MODEL 7
REMARK VINA RESULT:      -8.2      1.602      2.233
REMARK  Name = 
REMARK  5 active torsions:
REMARK  status: ('A' for Active; 'I' for Inactive)
REMARK    1  A    between atoms: C_2  and  C_5
REMARK    2  A    between atoms: C_9  and  N_10
REMARK    3  A    between atoms: C_14  and  N_15
REMARK    4  A    between atoms: N_15  and  C_16
REMARK    5  A    between atoms: C_20  and  C_21
REMARK                            x       y       z     vdW  Elec       q    Type
REMARK                         _______ _______ _______ _____ _____    ______ ____
ROOT
ATOM      1  N   UNL     1       2.876   6.250  19.732  0.00  0.00    +0.000 N 
ATOM      2  C   UNL     1       2.231   7.464  19.392  0.00  0.00    +0.000 A 
ATOM      3  C   UNL     1       1.636   8.242  20.385  0.00  0.00    +0.000 A 
ATOM      4  N   UNL     1       0.952   9.388  20.142  0.00  0.00    +0.000 NA
ATOM      5  C   UNL     1       0.814   9.750  18.848  0.00  0.00    +0.000 A 
ATOM      6  C   UNL     1       1.361   8.942  17.852  0.00  0.00    +0.000 A 
ATOM      7  N   UNL     1       2.087   7.821  18.098  0.00  0.00    +0.000 NA
ATOM      8  H   UNL     1       3.236   6.299  20.682  0.00  0.00    +0.000 HD
ENDROOT
BRANCH   1  13
ATOM      9  C   UNL     1       6.194   5.139  18.391  0.00  0.00    +0.000 A 
ATOM     10  C   UNL     1       5.769   4.232  17.412  0.00  0.00    +0.000 A 
ATOM     11  C   UNL     1       4.408   4.003  17.207  0.00  0.00    +0.000 A 
ATOM     12  C   UNL     1       3.460   4.687  17.970  0.00  0.00    +0.000 A 
ATOM     13  C   UNL     1       3.859   5.628  18.923  0.00  0.00    +0.000 A 
ATOM     14  C   UNL     1       5.228   5.815  19.151  0.00  0.00    +0.000 A 
BRANCH   9  16
ATOM     15  F   UNL     1       7.963   5.520  19.971  0.00  0.00    +0.000 F 
ATOM     16  C   UNL     1       7.655   5.399  18.649  0.00  0.00    +0.000 C 
ATOM     17  F   UNL     1       8.091   6.547  18.059  0.00  0.00    +0.000 F 
ATOM     18  F   UNL     1       8.458   4.407  18.170  0.00  0.00    +0.000 F 
ENDBRANCH   9  16
ENDBRANCH   1  13
BRANCH   5  19
ATOM     19  N   UNL     1       0.023  10.873  18.502  0.00  0.00    +0.000 N 
ATOM     20  H   UNL     1       0.167  11.616  19.182  0.00  0.00    +0.000 HD
BRANCH  19  21
ATOM     21  C   UNL     1      -1.368  10.793  18.238  0.00  0.00    +0.000 A 
ATOM     22  C   UNL     1      -1.813  10.021  17.163  0.00  0.00    +0.000 A 
ATOM     23  C   UNL     1      -3.169   9.988  16.827  0.00  0.00    +0.000 A 
ATOM     24  C   UNL     1      -4.086  10.760  17.540  0.00  0.00    +0.000 A 
ATOM     25  C   UNL     1      -3.656  11.577  18.593  0.00  0.00    +0.000 A 
ATOM     26  C   UNL     1      -2.293  11.593  18.923  0.00  0.00    +0.000 A 
BRANCH  25  27
ATOM     27  C   UNL     1      -4.616  12.439  19.372  0.00  0.00    +0.000 C 
ATOM     28  F   UNL     1      -4.006  13.386  20.134  0.00  0.00    +0.000 F 
ATOM     29  F   UNL     1      -5.492  13.109  18.572  0.00  0.00    +0.000 F 
ATOM     30  F   UNL     1      -5.385  11.709  20.231  0.00  0.00    +0.000 F 
ENDBRANCH  25  27
ENDBRANCH  19  21
ENDBRANCH   5  19
TORSDOF 5
ENDMDL
MODEL 8
REMARK VINA RESULT:      -8.2      2.680      3.282
REMARK  Name = 
REMARK  5 active torsions:
REMARK  status: ('A' for Active; 'I' for Inactive)
REMARK    1  A    between atoms: C_2  and  C_5
REMARK    2  A    between atoms: C_9  and  N_10
REMARK    3  A    between atoms: C_14  and  N_15
REMARK    4  A    between atoms: N_15  and  C_16
REMARK    5  A    between atoms: C_20  and  C_21
REMARK                            x       y       z     vdW  Elec       q    Type
REMARK                         _______ _______ _______ _____ _____    ______ ____
ROOT
ATOM      1  N   UNL     1       3.269   6.177  17.907  0.00  0.00    +0.000 N 
ATOM      2  C   UNL     1       2.557   7.323  18.341  0.00  0.00    +0.000 A 
ATOM      3  C   UNL     1       2.590   8.494  17.587  0.00  0.00    +0.000 A 
ATOM      4  N   UNL     1       1.984   9.651  17.956  0.00  0.00    +0.000 NA
ATOM      5  C   UNL     1       1.357   9.653  19.152  0.00  0.00    +0.000 A 
ATOM      6  C   UNL     1       1.372   8.497  19.932  0.00  0.00    +0.000 A 
ATOM      7  N   UNL     1       1.937   7.326  19.541  0.00  0.00    +0.000 NA
ATOM      8  H   UNL     1       3.345   6.177  16.893  0.00  0.00    +0.000 HD
ENDROOT
BRANCH   1  13
ATOM      9  C   UNL     1       2.378   3.248  20.067  0.00  0.00    +0.000 A 
ATOM     10  C   UNL     1       2.182   2.271  19.083  0.00  0.00    +0.000 A 
ATOM     11  C   UNL     1       2.348   2.587  17.735  0.00  0.00    +0.000 A 
ATOM     12  C   UNL     1       2.722   3.878  17.358  0.00  0.00    +0.000 A 
ATOM     13  C   UNL     1       2.965   4.858  18.324  0.00  0.00    +0.000 A 
ATOM     14  C   UNL     1       2.750   4.541  19.672  0.00  0.00    +0.000 A 
BRANCH   9  16
ATOM     15  F   UNL     1       2.380   4.026  22.340  0.00  0.00    +0.000 F 
ATOM     16  C   UNL     1       2.193   2.945  21.532  0.00  0.00    +0.000 C 
ATOM     17  F   UNL     1       3.059   1.992  21.979  0.00  0.00    +0.000 F 
ATOM     18  F   UNL     1       0.946   2.477  21.819  0.00  0.00    +0.000 F 
ENDBRANCH   9  16
ENDBRANCH   1  13
BRANCH   5  19
ATOM     19  N   UNL     1       0.793  10.849  19.660  0.00  0.00    +0.000 N 
ATOM     20  H   UNL     1       0.900  10.877  20.671  0.00  0.00    +0.000 HD
BRANCH  19  21
ATOM     21  C   UNL     1      -0.523  11.280  19.353  0.00  0.00    +0.000 A 
ATOM     22  C   UNL     1      -1.243  12.000  20.309  0.00  0.00    +0.000 A 
ATOM     23  C   UNL     1      -2.569  12.368  20.069  0.00  0.00    +0.000 A 
ATOM     24  C   UNL     1      -3.200  11.983  18.885  0.00  0.00    +0.000 A 
ATOM     25  C   UNL     1      -2.511  11.221  17.933  0.00  0.00    +0.000 A 
ATOM     26  C   UNL     1      -1.178  10.867  18.186  0.00  0.00    +0.000 A 
BRANCH  25  27
ATOM     27  C   UNL     1      -3.168  10.770  16.653  0.00  0.00    +0.000 C 
ATOM     28  F   UNL     1      -3.404   9.431  16.602  0.00  0.00    +0.000 F 
ATOM     29  F   UNL     1      -4.371  11.370  16.437  0.00  0.00    +0.000 F 
ATOM     30  F   UNL     1      -2.409  11.056  15.556  0.00  0.00    +0.000 F 
ENDBRANCH  25  27
ENDBRANCH  19  21
ENDBRANCH   5  19
TORSDOF 5
ENDMDL
MODEL 9
REMARK VINA RESULT:      -8.2      1.874      2.501
REMARK  Name = 
REMARK  5 active torsions:
REMARK  status: ('A' for Active; 'I' for Inactive)
REMARK    1  A    between atoms: C_2  and  C_5
REMARK    2  A    between atoms: C_9  and  N_10
REMARK    3  A    between atoms: C_14  and  N_15
REMARK    4  A    between atoms: N_15  and  C_16
REMARK    5  A    between atoms: C_20  and  C_21
REMARK                            x       y       z     vdW  Elec       q    Type
REMARK                         _______ _______ _______ _____ _____    ______ ____
ROOT
ATOM      1  N   UNL     1       2.716   6.142  19.445  0.00  0.00    +0.000 N 
ATOM      2  C   UNL     1       2.190   7.438  19.217  0.00  0.00    +0.000 A 
ATOM      3  C   UNL     1       1.604   8.149  20.263  0.00  0.00    +0.000 A 
ATOM      4  N   UNL     1       1.029   9.370  20.121  0.00  0.00    +0.000 NA
ATOM      5  C   UNL     1       0.994   9.883  18.872  0.00  0.00    +0.000 A 
ATOM      6  C   UNL     1       1.530   9.146  17.817  0.00  0.00    +0.000 A 
ATOM      7  N   UNL     1       2.149   7.946  17.967  0.00  0.00    +0.000 NA
ATOM      8  H   UNL     1       3.024   6.055  20.410  0.00  0.00    +0.000 HD
ENDROOT
BRANCH   1  13
ATOM      9  C   UNL     1       6.019   5.048  18.056  0.00  0.00    +0.000 A 
ATOM     10  C   UNL     1       5.584   4.156  17.068  0.00  0.00    +0.000 A 
ATOM     11  C   UNL     1       4.221   3.932  16.873  0.00  0.00    +0.000 A 
ATOM     12  C   UNL     1       3.281   4.606  17.655  0.00  0.00    +0.000 A 
ATOM     13  C   UNL     1       3.690   5.532  18.617  0.00  0.00    +0.000 A 
ATOM     14  C   UNL     1       5.061   5.714  18.835  0.00  0.00    +0.000 A 
BRANCH   9  16
ATOM     15  F   UNL     1       8.290   4.276  17.913  0.00  0.00    +0.000 F 
ATOM     16  C   UNL     1       7.484   5.303  18.303  0.00  0.00    +0.000 C 
ATOM     17  F   UNL     1       7.759   5.513  19.621  0.00  0.00    +0.000 F 
ATOM     18  F   UNL     1       7.944   6.406  17.647  0.00  0.00    +0.000 F 
ENDBRANCH   9  16
ENDBRANCH   1  13
BRANCH   5  19
ATOM     19  N   UNL     1       0.316  11.101  18.621  0.00  0.00    +0.000 N 
ATOM     20  H   UNL     1       0.672  11.826  19.240  0.00  0.00    +0.000 HD
BRANCH  19  21
ATOM     21  C   UNL     1      -1.097  11.213  18.592  0.00  0.00    +0.000 A 
ATOM     22  C   UNL     1      -1.799  10.691  17.503  0.00  0.00    +0.000 A 
ATOM     23  C   UNL     1      -3.182  10.858  17.405  0.00  0.00    +0.000 A 
ATOM     24  C   UNL     1      -3.871  11.585  18.376  0.00  0.00    +0.000 A 
ATOM     25  C   UNL     1      -3.181  12.157  19.452  0.00  0.00    +0.000 A 
ATOM     26  C   UNL     1      -1.793  11.974  19.540  0.00  0.00    +0.000 A 
BRANCH  25  27
ATOM     27  C   UNL     1      -3.890  12.966  20.509  0.00  0.00    +0.000 C 
ATOM     28  F   UNL     1      -3.424  14.238  20.627  0.00  0.00    +0.000 F 
ATOM     29  F   UNL     1      -5.227  13.077  20.279  0.00  0.00    +0.000 F 
ATOM     30  F   UNL     1      -3.772  12.410  21.749  0.00  0.00    +0.000 F 
ENDBRANCH  25  27
ENDBRANCH  19  21
ENDBRANCH   5  19
TORSDOF 5
ENDMDL
