MODEL 1
REMARK VINA RESULT:      -7.6      0.000      0.000
REMARK  Name = 
REMARK  3 active torsions:
REMARK  status: ('A' for Active; 'I' for Inactive)
REMARK    1  A    between atoms: N_1  and  C_2
REMARK    2  A    between atoms: C_4  and  N_5
REMARK    3  A    between atoms: C_13  and  C_14
REMARK                            x       y       z     vdW  Elec       q    Type
REMARK                         _______ _______ _______ _____ _____    ______ ____
ROOT
ATOM      1  C   UNL     1       7.213   5.357  19.248  0.00  0.00    +0.000 A 
ATOM      2  C   UNL     1       5.908   4.868  19.416  0.00  0.00    +0.000 A 
ATOM      3  C   UNL     1       5.095   4.379  18.361  0.00  0.00    +0.000 A 
ATOM      4  C   UNL     1       5.732   4.414  17.114  0.00  0.00    +0.000 A 
ATOM      5  O   UNL     1       5.237   4.026  15.898  0.00  0.00    +0.000 OA
ATOM      6  C   UNL     1       6.279   4.211  15.019  0.00  0.00    +0.000 A 
ATOM      7  N   UNL     1       7.378   4.689  15.585  0.00  0.00    +0.000 NA
ATOM      8  C   UNL     1       7.041   4.824  16.907  0.00  0.00    +0.000 A 
ATOM      9  C   UNL     1       7.809   5.277  17.989  0.00  0.00    +0.000 A 
ENDROOT
BRANCH   3  10
ATOM     10  N   UNL     1       3.793   3.975  18.653  0.00  0.00    +0.000 N 
ATOM     11  C   UNL     1       3.475   3.320  19.931  0.00  0.00    +0.000 C 
ATOM     12  C   UNL     1       2.138   2.567  19.749  0.00  0.00    +0.000 C 
ATOM     13  O   UNL     1       1.077   3.444  19.322  0.00  0.00    +0.000 OA
ATOM     14  C   UNL     1       1.425   4.101  18.090  0.00  0.00    +0.000 C 
ATOM     15  C   UNL     1       2.723   4.907  18.239  0.00  0.00    +0.000 C 
ENDBRANCH   3  10
BRANCH   6  16
ATOM     16  C   UNL     1       6.191   3.914  13.617  0.00  0.00    +0.000 A 
ATOM     17  C   UNL     1       5.124   3.360  12.923  0.00  0.00    +0.000 A 
ATOM     18  C   UNL     1       5.509   3.258  11.566  0.00  0.00    +0.000 A 
ATOM     19  C   UNL     1       6.789   3.752  11.502  0.00  0.00    +0.000 A 
ATOM     20  O   UNL     1       7.210   4.149  12.728  0.00  0.00    +0.000 OA
ENDBRANCH   6  16
BRANCH   1  21
ATOM     21  N   UNL     1       7.970   5.707  20.374  0.00  0.00    +0.000 N 
ATOM     22  H   UNL     1       8.898   5.293  20.388  0.00  0.00    +0.000 HD
ATOM     23  H   UNL     1       7.480   5.576  21.254  0.00  0.00    +0.000 HD
ENDBRANCH   1  21
TORSDOF 3
ENDMDL
MODEL 2
REMARK VINA RESULT:      -7.6      0.475      1.044
REMARK  Name = 
REMARK  3 active torsions:
REMARK  status: ('A' for Active; 'I' for Inactive)
REMARK    1  A    between atoms: N_1  and  C_2
REMARK    2  A    between atoms: C_4  and  N_5
REMARK    3  A    between atoms: C_13  and  C_14
REMARK                            x       y       z     vdW  Elec       q    Type
REMARK                         _______ _______ _______ _____ _____    ______ ____
ROOT
ATOM      1  C   UNL     1       7.157   5.363  19.272  0.00  0.00    +0.000 A 
ATOM      2  C   UNL     1       5.855   4.859  19.423  0.00  0.00    +0.000 A 
ATOM      3  C   UNL     1       5.061   4.364  18.356  0.00  0.00    +0.000 A 
ATOM      4  C   UNL     1       5.715   4.408  17.118  0.00  0.00    +0.000 A 
ATOM      5  O   UNL     1       5.240   4.017  15.895  0.00  0.00    +0.000 OA
ATOM      6  C   UNL     1       6.291   4.214  15.030  0.00  0.00    +0.000 A 
ATOM      7  N   UNL     1       7.377   4.703  15.610  0.00  0.00    +0.000 NA
ATOM      8  C   UNL     1       7.021   4.833  16.929  0.00  0.00    +0.000 A 
ATOM      9  C   UNL     1       7.770   5.292  18.020  0.00  0.00    +0.000 A 
ENDROOT
BRANCH   3  10
ATOM     10  N   UNL     1       3.761   3.945  18.631  0.00  0.00    +0.000 N 
ATOM     11  C   UNL     1       2.604   4.753  18.213  0.00  0.00    +0.000 C 
ATOM     12  C   UNL     1       1.395   4.313  19.069  0.00  0.00    +0.000 C 
ATOM     13  O   UNL     1       1.130   2.902  18.947  0.00  0.00    +0.000 OA
ATOM     14  C   UNL     1       2.286   2.133  19.325  0.00  0.00    +0.000 C 
ATOM     15  C   UNL     1       3.503   2.500  18.463  0.00  0.00    +0.000 C 
ENDBRANCH   3  10
BRANCH   6  16
ATOM     16  C   UNL     1       6.224   3.919  13.626  0.00  0.00    +0.000 A 
ATOM     17  C   UNL     1       5.194   3.303  12.928  0.00  0.00    +0.000 A 
ATOM     18  C   UNL     1       5.588   3.231  11.571  0.00  0.00    +0.000 A 
ATOM     19  C   UNL     1       6.835   3.803  11.512  0.00  0.00    +0.000 A 
ATOM     20  O   UNL     1       7.228   4.220  12.741  0.00  0.00    +0.000 OA
ENDBRANCH   6  16
BRANCH   1  21
ATOM     21  N   UNL     1       7.896   5.720  20.408  0.00  0.00    +0.000 N 
ATOM     22  H   UNL     1       7.446   5.472  21.285  0.00  0.00    +0.000 HD
ATOM     23  H   UNL     1       8.215   6.684  20.402  0.00  0.00    +0.000 HD
ENDBRANCH   1  21
TORSDOF 3
ENDMDL
MODEL 3
REMARK VINA RESULT:      -7.4      0.767      1.375
REMARK  Name = 
REMARK  3 active torsions:
REMARK  status: ('A' for Active; 'I' for Inactive)
REMARK    1  A    between atoms: N_1  and  C_2
REMARK    2  A    between atoms: C_4  and  N_5
REMARK    3  A    between atoms: C_13  and  C_14
REMARK                            x       y       z     vdW  Elec       q    Type
REMARK                         _______ _______ _______ _____ _____    ______ ____
ROOT
ATOM      1  C   UNL     1       7.223   5.355  19.144  0.00  0.00    +0.000 A 
ATOM      2  C   UNL     1       5.940   4.837  19.380  0.00  0.00    +0.000 A 
ATOM      3  C   UNL     1       5.089   4.319  18.370  0.00  0.00    +0.000 A 
ATOM      4  C   UNL     1       5.665   4.355  17.094  0.00  0.00    +0.000 A 
ATOM      5  O   UNL     1       5.121   3.943  15.907  0.00  0.00    +0.000 OA
ATOM      6  C   UNL     1       6.116   4.142  14.977  0.00  0.00    +0.000 A 
ATOM      7  N   UNL     1       7.228   4.650  15.484  0.00  0.00    +0.000 NA
ATOM      8  C   UNL     1       6.952   4.793  16.820  0.00  0.00    +0.000 A 
ATOM      9  C   UNL     1       7.760   5.275  17.859  0.00  0.00    +0.000 A 
ENDROOT
BRANCH   3  10
ATOM     10  N   UNL     1       3.813   3.888  18.728  0.00  0.00    +0.000 N 
ATOM     11  C   UNL     1       2.774   3.675  17.707  0.00  0.00    +0.000 C 
ATOM     12  C   UNL     1       1.405   3.704  18.422  0.00  0.00    +0.000 C 
ATOM     13  O   UNL     1       1.324   2.725  19.477  0.00  0.00    +0.000 OA
ATOM     14  C   UNL     1       2.370   2.931  20.443  0.00  0.00    +0.000 C 
ATOM     15  C   UNL     1       3.755   2.858  19.785  0.00  0.00    +0.000 C 
ENDBRANCH   3  10
BRANCH   6  16
ATOM     16  C   UNL     1       5.967   3.828  13.583  0.00  0.00    +0.000 A 
ATOM     17  C   UNL     1       6.954   3.761  12.609  0.00  0.00    +0.000 A 
ATOM     18  C   UNL     1       6.323   3.419  11.391  0.00  0.00    +0.000 A 
ATOM     19  C   UNL     1       4.986   3.298  11.683  0.00  0.00    +0.000 A 
ATOM     20  O   UNL     1       4.760   3.541  12.998  0.00  0.00    +0.000 OA
ENDBRANCH   6  16
BRANCH   1  21
ATOM     21  N   UNL     1       8.026   5.734  20.229  0.00  0.00    +0.000 N 
ATOM     22  H   UNL     1       7.577   6.393  20.860  0.00  0.00    +0.000 HD
ATOM     23  H   UNL     1       8.958   6.036  19.962  0.00  0.00    +0.000 HD
ENDBRANCH   1  21
TORSDOF 3
ENDMDL
MODEL 4
REMARK VINA RESULT:      -7.0      3.257      6.774
REMARK  Name = 
REMARK  3 active torsions:
REMARK  status: ('A' for Active; 'I' for Inactive)
REMARK    1  A    between atoms: N_1  and  C_2
REMARK    2  A    between atoms: C_4  and  N_5
REMARK    3  A    between atoms: C_13  and  C_14
REMARK                            x       y       z     vdW  Elec       q    Type
REMARK                         _______ _______ _______ _____ _____    ______ ____
ROOT
ATOM      1  C   UNL     1       2.957   3.158  20.774  0.00  0.00    +0.000 A 
ATOM      2  C   UNL     1       3.982   3.284  19.823  0.00  0.00    +0.000 A 
ATOM      3  C   UNL     1       4.204   4.444  19.037  0.00  0.00    +0.000 A 
ATOM      4  C   UNL     1       3.300   5.477  19.313  0.00  0.00    +0.000 A 
ATOM      5  O   UNL     1       3.229   6.718  18.738  0.00  0.00    +0.000 OA
ATOM      6  C   UNL     1       2.210   7.357  19.406  0.00  0.00    +0.000 A 
ATOM      7  N   UNL     1       1.636   6.616  20.342  0.00  0.00    +0.000 NA
ATOM      8  C   UNL     1       2.315   5.426  20.288  0.00  0.00    +0.000 A 
ATOM      9  C   UNL     1       2.152   4.263  21.054  0.00  0.00    +0.000 A 
ENDROOT
BRANCH   3  10
ATOM     10  N   UNL     1       5.222   4.421  18.085  0.00  0.00    +0.000 N 
ATOM     11  C   UNL     1       4.914   4.513  16.649  0.00  0.00    +0.000 C 
ATOM     12  C   UNL     1       6.135   3.966  15.875  0.00  0.00    +0.000 C 
ATOM     13  O   UNL     1       7.347   4.672  16.206  0.00  0.00    +0.000 OA
ATOM     14  C   UNL     1       7.608   4.599  17.619  0.00  0.00    +0.000 C 
ATOM     15  C   UNL     1       6.441   5.182  18.429  0.00  0.00    +0.000 C 
ENDBRANCH   3  10
BRANCH   6  16
ATOM     16  C   UNL     1       1.802   8.704  19.119  0.00  0.00    +0.000 A 
ATOM     17  C   UNL     1       2.018   9.437  17.960  0.00  0.00    +0.000 A 
ATOM     18  C   UNL     1       1.433  10.711  18.151  0.00  0.00    +0.000 A 
ATOM     19  C   UNL     1       0.894  10.690  19.414  0.00  0.00    +0.000 A 
ATOM     20  O   UNL     1       1.109   9.489  20.006  0.00  0.00    +0.000 OA
ENDBRANCH   6  16
BRANCH   1  21
ATOM     21  N   UNL     1       2.898   2.012  21.579  0.00  0.00    +0.000 N 
ATOM     22  H   UNL     1       3.419   2.094  22.447  0.00  0.00    +0.000 HD
ATOM     23  H   UNL     1       3.114   1.152  21.083  0.00  0.00    +0.000 HD
ENDBRANCH   1  21
TORSDOF 3
ENDMDL
MODEL 5
REMARK VINA RESULT:      -7.0      2.847      4.361
REMARK  Name = 
REMARK  3 active torsions:
REMARK  status: ('A' for Active; 'I' for Inactive)
REMARK    1  A    between atoms: N_1  and  C_2
REMARK    2  A    between atoms: C_4  and  N_5
REMARK    3  A    between atoms: C_13  and  C_14
REMARK                            x       y       z     vdW  Elec       q    Type
REMARK                         _______ _______ _______ _____ _____    ______ ____
ROOT
ATOM      1  C   UNL     1       2.408   3.810  20.970  0.00  0.00    +0.000 A 
ATOM      2  C   UNL     1       1.986   5.116  20.673  0.00  0.00    +0.000 A 
ATOM      3  C   UNL     1       2.440   5.869  19.560  0.00  0.00    +0.000 A 
ATOM      4  C   UNL     1       3.351   5.170  18.758  0.00  0.00    +0.000 A 
ATOM      5  O   UNL     1       3.982   5.599  17.621  0.00  0.00    +0.000 OA
ATOM      6  C   UNL     1       4.718   4.516  17.197  0.00  0.00    +0.000 A 
ATOM      7  N   UNL     1       4.604   3.454  17.980  0.00  0.00    +0.000 NA
ATOM      8  C   UNL     1       3.747   3.858  18.971  0.00  0.00    +0.000 A 
ATOM      9  C   UNL     1       3.251   3.151  20.074  0.00  0.00    +0.000 A 
ENDROOT
BRANCH   3  10
ATOM     10  N   UNL     1       1.987   7.179  19.410  0.00  0.00    +0.000 N 
ATOM     11  C   UNL     1       1.716   8.022  20.585  0.00  0.00    +0.000 C 
ATOM     12  C   UNL     1       0.786   9.169  20.131  0.00  0.00    +0.000 C 
ATOM     13  O   UNL     1       1.355   9.931  19.047  0.00  0.00    +0.000 OA
ATOM     14  C   UNL     1       1.644   9.080  17.924  0.00  0.00    +0.000 C 
ATOM     15  C   UNL     1       2.610   7.952  18.316  0.00  0.00    +0.000 C 
ENDBRANCH   3  10
BRANCH   6  16
ATOM     16  C   UNL     1       5.535   4.531  16.016  0.00  0.00    +0.000 A 
ATOM     17  C   UNL     1       6.802   5.075  15.857  0.00  0.00    +0.000 A 
ATOM     18  C   UNL     1       7.195   4.844  14.518  0.00  0.00    +0.000 A 
ATOM     19  C   UNL     1       6.149   4.176  13.930  0.00  0.00    +0.000 A 
ATOM     20  O   UNL     1       5.145   3.982  14.821  0.00  0.00    +0.000 OA
ENDBRANCH   6  16
BRANCH   1  21
ATOM     21  N   UNL     1       1.810   3.114  22.029  0.00  0.00    +0.000 N 
ATOM     22  H   UNL     1       2.476   2.670  22.655  0.00  0.00    +0.000 HD
ATOM     23  H   UNL     1       1.076   2.477  21.737  0.00  0.00    +0.000 HD
ENDBRANCH   1  21
TORSDOF 3
ENDMDL
MODEL 6
REMARK VINA RESULT:      -7.0      3.309      7.314
REMARK  Name = 
REMARK  3 active torsions:
REMARK  status: ('A' for Active; 'I' for Inactive)
REMARK    1  A    between atoms: N_1  and  C_2
REMARK    2  A    between atoms: C_4  and  N_5
REMARK    3  A    between atoms: C_13  and  C_14
REMARK                            x       y       z     vdW  Elec       q    Type
REMARK                         _______ _______ _______ _____ _____    ______ ____
ROOT
ATOM      1  C   UNL     1       2.752   2.627  18.922  0.00  0.00    +0.000 A 
ATOM      2  C   UNL     1       3.828   3.253  18.274  0.00  0.00    +0.000 A 
ATOM      3  C   UNL     1       4.056   4.653  18.273  0.00  0.00    +0.000 A 
ATOM      4  C   UNL     1       3.100   5.366  19.008  0.00  0.00    +0.000 A 
ATOM      5  O   UNL     1       3.019   6.718  19.207  0.00  0.00    +0.000 OA
ATOM      6  C   UNL     1       1.938   6.887  20.041  0.00  0.00    +0.000 A 
ATOM      7  N   UNL     1       1.335   5.755  20.371  0.00  0.00    +0.000 NA
ATOM      8  C   UNL     1       2.059   4.789  19.720  0.00  0.00    +0.000 A 
ATOM      9  C   UNL     1       1.892   3.397  19.705  0.00  0.00    +0.000 A 
ENDROOT
BRANCH   3  10
ATOM     10  N   UNL     1       5.131   5.155  17.542  0.00  0.00    +0.000 N 
ATOM     11  C   UNL     1       6.354   5.616  18.218  0.00  0.00    +0.000 C 
ATOM     12  C   UNL     1       7.107   6.544  17.238  0.00  0.00    +0.000 C 
ATOM     13  O   UNL     1       7.403   5.888  15.989  0.00  0.00    +0.000 OA
ATOM     14  C   UNL     1       6.196   5.414  15.365  0.00  0.00    +0.000 C 
ATOM     15  C   UNL     1       5.440   4.444  16.284  0.00  0.00    +0.000 C 
ENDBRANCH   3  10
BRANCH   6  16
ATOM     16  C   UNL     1       1.500   8.170  20.515  0.00  0.00    +0.000 A 
ATOM     17  C   UNL     1       1.306   8.579  21.827  0.00  0.00    +0.000 A 
ATOM     18  C   UNL     1       0.869   9.924  21.791  0.00  0.00    +0.000 A 
ATOM     19  C   UNL     1       0.816  10.264  20.461  0.00  0.00    +0.000 A 
ATOM     20  O   UNL     1       1.193   9.218  19.685  0.00  0.00    +0.000 OA
ENDBRANCH   6  16
BRANCH   1  21
ATOM     21  N   UNL     1       2.685   1.227  18.956  0.00  0.00    +0.000 N 
ATOM     22  H   UNL     1       3.563   0.769  18.726  0.00  0.00    +0.000 HD
ATOM     23  H   UNL     1       1.905   0.842  18.433  0.00  0.00    +0.000 HD
ENDBRANCH   1  21
TORSDOF 3
ENDMDL
MODEL 7
REMARK VINA RESULT:      -6.9      2.799      4.445
REMARK  Name = 
REMARK  3 active torsions:
REMARK  status: ('A' for Active; 'I' for Inactive)
REMARK    1  A    between atoms: N_1  and  C_2
REMARK    2  A    between atoms: C_4  and  N_5
REMARK    3  A    between atoms: C_13  and  C_14
REMARK                            x       y       z     vdW  Elec       q    Type
REMARK                         _______ _______ _______ _____ _____    ______ ____
ROOT
ATOM      1  C   UNL     1       2.436   3.519  21.061  0.00  0.00    +0.000 A 
ATOM      2  C   UNL     1       2.073   4.861  20.865  0.00  0.00    +0.000 A 
ATOM      3  C   UNL     1       2.561   5.675  19.811  0.00  0.00    +0.000 A 
ATOM      4  C   UNL     1       3.442   5.000  18.957  0.00  0.00    +0.000 A 
ATOM      5  O   UNL     1       4.093   5.485  17.854  0.00  0.00    +0.000 OA
ATOM      6  C   UNL     1       4.781   4.406  17.349  0.00  0.00    +0.000 A 
ATOM      7  N   UNL     1       4.619   3.293  18.048  0.00  0.00    +0.000 NA
ATOM      8  C   UNL     1       3.778   3.659  19.069  0.00  0.00    +0.000 A 
ATOM      9  C   UNL     1       3.250   2.893  20.116  0.00  0.00    +0.000 A 
ENDROOT
BRANCH   3  10
ATOM     10  N   UNL     1       2.167   7.011  19.762  0.00  0.00    +0.000 N 
ATOM     11  C   UNL     1       1.886   7.668  18.475  0.00  0.00    +0.000 C 
ATOM     12  C   UNL     1       1.977   9.194  18.701  0.00  0.00    +0.000 C 
ATOM     13  O   UNL     1       1.080   9.643  19.736  0.00  0.00    +0.000 OA
ATOM     14  C   UNL     1       1.350   8.961  20.974  0.00  0.00    +0.000 C 
ATOM     15  C   UNL     1       1.219   7.440  20.810  0.00  0.00    +0.000 C 
ENDBRANCH   3  10
BRANCH   6  16
ATOM     16  C   UNL     1       5.599   4.474  16.171  0.00  0.00    +0.000 A 
ATOM     17  C   UNL     1       6.886   4.980  16.049  0.00  0.00    +0.000 A 
ATOM     18  C   UNL     1       7.273   4.831  14.697  0.00  0.00    +0.000 A 
ATOM     19  C   UNL     1       6.203   4.246  14.064  0.00  0.00    +0.000 A 
ATOM     20  O   UNL     1       5.191   4.027  14.940  0.00  0.00    +0.000 OA
ENDBRANCH   6  16
BRANCH   1  21
ATOM     21  N   UNL     1       1.806   2.772  22.066  0.00  0.00    +0.000 N 
ATOM     22  H   UNL     1       1.140   2.091  21.713  0.00  0.00    +0.000 HD
ATOM     23  H   UNL     1       1.414   3.338  22.812  0.00  0.00    +0.000 HD
ENDBRANCH   1  21
TORSDOF 3
ENDMDL
MODEL 8
REMARK VINA RESULT:      -6.8      2.588      3.560
REMARK  Name = 
REMARK  3 active torsions:
REMARK  status: ('A' for Active; 'I' for Inactive)
REMARK    1  A    between atoms: N_1  and  C_2
REMARK    2  A    between atoms: C_4  and  N_5
REMARK    3  A    between atoms: C_13  and  C_14
REMARK                            x       y       z     vdW  Elec       q    Type
REMARK                         _______ _______ _______ _____ _____    ______ ____
ROOT
ATOM      1  C   UNL     1       2.042   8.182  19.023  0.00  0.00    +0.000 A 
ATOM      2  C   UNL     1       1.923   6.917  19.619  0.00  0.00    +0.000 A 
ATOM      3  C   UNL     1       2.565   5.744  19.143  0.00  0.00    +0.000 A 
ATOM      4  C   UNL     1       3.359   5.973  18.012  0.00  0.00    +0.000 A 
ATOM      5  O   UNL     1       4.105   5.069  17.304  0.00  0.00    +0.000 OA
ATOM      6  C   UNL     1       4.732   5.816  16.333  0.00  0.00    +0.000 A 
ATOM      7  N   UNL     1       4.433   7.106  16.373  0.00  0.00    +0.000 NA
ATOM      8  C   UNL     1       3.563   7.214  17.428  0.00  0.00    +0.000 A 
ATOM      9  C   UNL     1       2.922   8.345  17.951  0.00  0.00    +0.000 A 
ENDROOT
BRANCH   3  10
ATOM     10  N   UNL     1       2.317   4.536  19.793  0.00  0.00    +0.000 N 
ATOM     11  C   UNL     1       2.186   4.480  21.257  0.00  0.00    +0.000 C 
ATOM     12  C   UNL     1       2.422   3.016  21.691  0.00  0.00    +0.000 C 
ATOM     13  O   UNL     1       1.515   2.105  21.039  0.00  0.00    +0.000 OA
ATOM     14  C   UNL     1       1.634   2.204  19.609  0.00  0.00    +0.000 C 
ATOM     15  C   UNL     1       1.355   3.634  19.126  0.00  0.00    +0.000 C 
ENDBRANCH   3  10
BRANCH   6  16
ATOM     16  C   UNL     1       5.629   5.254  15.362  0.00  0.00    +0.000 A 
ATOM     17  C   UNL     1       5.404   4.188  14.502  0.00  0.00    +0.000 A 
ATOM     18  C   UNL     1       6.581   4.005  13.740  0.00  0.00    +0.000 A 
ATOM     19  C   UNL     1       7.463   4.964  14.175  0.00  0.00    +0.000 A 
ATOM     20  O   UNL     1       6.902   5.721  15.150  0.00  0.00    +0.000 OA
ENDBRANCH   6  16
BRANCH   1  21
ATOM     21  N   UNL     1       1.459   9.296  19.641  0.00  0.00    +0.000 N 
ATOM     22  H   UNL     1       0.640   9.651  19.156  0.00  0.00    +0.000 HD
ATOM     23  H   UNL     1       2.120  10.033  19.865  0.00  0.00    +0.000 HD
ENDBRANCH   1  21
TORSDOF 3
ENDMDL
MODEL 9
REMARK VINA RESULT:      -6.8      3.310      7.448
REMARK  Name = 
REMARK  3 active torsions:
REMARK  status: ('A' for Active; 'I' for Inactive)
REMARK    1  A    between atoms: N_1  and  C_2
REMARK    2  A    between atoms: C_4  and  N_5
REMARK    3  A    between atoms: C_13  and  C_14
REMARK                            x       y       z     vdW  Elec       q    Type
REMARK                         _______ _______ _______ _____ _____    ______ ____
ROOT
ATOM      1  C   UNL     1       2.538   2.588  18.926  0.00  0.00    +0.000 A 
ATOM      2  C   UNL     1       3.669   3.184  18.347  0.00  0.00    +0.000 A 
ATOM      3  C   UNL     1       3.960   4.572  18.405  0.00  0.00    +0.000 A 
ATOM      4  C   UNL     1       3.005   5.304  19.122  0.00  0.00    +0.000 A 
ATOM      5  O   UNL     1       2.977   6.651  19.365  0.00  0.00    +0.000 OA
ATOM      6  C   UNL     1       1.869   6.843  20.157  0.00  0.00    +0.000 A 
ATOM      7  N   UNL     1       1.201   5.730  20.422  0.00  0.00    +0.000 NA
ATOM      8  C   UNL     1       1.909   4.753  19.769  0.00  0.00    +0.000 A 
ATOM      9  C   UNL     1       1.680   3.372  19.699  0.00  0.00    +0.000 A 
ENDROOT
BRANCH   3  10
ATOM     10  N   UNL     1       5.087   5.046  17.738  0.00  0.00    +0.000 N 
ATOM     11  C   UNL     1       4.956   5.848  16.510  0.00  0.00    +0.000 C 
ATOM     12  C   UNL     1       6.308   5.783  15.765  0.00  0.00    +0.000 C 
ATOM     13  O   UNL     1       7.401   6.241  16.586  0.00  0.00    +0.000 OA
ATOM     14  C   UNL     1       7.487   5.468  17.796  0.00  0.00    +0.000 C 
ATOM     15  C   UNL     1       6.180   5.545  18.598  0.00  0.00    +0.000 C 
ENDBRANCH   3  10
BRANCH   6  16
ATOM     16  C   UNL     1       1.469   8.129  20.656  0.00  0.00    +0.000 A 
ATOM     17  C   UNL     1       1.093   9.251  19.931  0.00  0.00    +0.000 A 
ATOM     18  C   UNL     1       0.790  10.273  20.860  0.00  0.00    +0.000 A 
ATOM     19  C   UNL     1       0.997   9.724  22.102  0.00  0.00    +0.000 A 
ATOM     20  O   UNL     1       1.406   8.435  21.992  0.00  0.00    +0.000 OA
ENDBRANCH   6  16
BRANCH   1  21
ATOM     21  N   UNL     1       2.407   1.193  18.909  0.00  0.00    +0.000 N 
ATOM     22  H   UNL     1       3.281   0.697  19.060  0.00  0.00    +0.000 HD
ATOM     23  H   UNL     1       1.902   0.839  18.102  0.00  0.00    +0.000 HD
ENDBRANCH   1  21
TORSDOF 3
ENDMDL
