MODEL 1
REMARK VINA RESULT:      -8.4      0.000      0.000
REMARK  Name = 
REMARK  4 active torsions:
REMARK  status: ('A' for Active; 'I' for Inactive)
REMARK    1  A    between atoms: C_1  and  N_2
REMARK    2  A    between atoms: C_5  and  C_6
REMARK    3  A    between atoms: C_6  and  C_7
REMARK    4  A    between atoms: N_19  and  C_20
REMARK                            x       y       z     vdW  Elec       q    Type
REMARK                         _______ _______ _______ _____ _____    ______ ____
ROOT
ATOM      1  C   UNL     1       0.237  10.966  18.482  0.00  0.00    +0.000 C 
ATOM      2  N   UNL     1       0.709   9.903  19.354  0.00  0.00    +0.000 N 
ATOM      3  C   UNL     1       1.425   8.839  18.828  0.00  0.00    +0.000 A 
ATOM      4  O   UNL     1       1.657   8.706  17.627  0.00  0.00    +0.000 OA
ATOM      5  C   UNL     1       1.935   7.812  19.793  0.00  0.00    +0.000 A 
ATOM      6  C   UNL     1       1.638   7.907  21.100  0.00  0.00    +0.000 A 
ATOM      7  C   UNL     1       0.840   9.017  21.585  0.00  0.00    +0.000 A 
ATOM      8  C   UNL     1       0.491   9.177  22.905  0.00  0.00    +0.000 A 
ATOM      9  N   UNL     1      -0.264  10.197  23.357  0.00  0.00    +0.000 NA
ATOM     10  C   UNL     1      -0.687  11.085  22.452  0.00  0.00    +0.000 A 
ATOM     11  N   UNL     1      -1.493  12.095  22.945  0.00  0.00    +0.000 N 
ATOM     12  N   UNL     1      -0.372  11.036  21.152  0.00  0.00    +0.000 NA
ATOM     13  C   UNL     1       0.383   9.998  20.731  0.00  0.00    +0.000 A 
ATOM     14  H   UNL     1      -1.378  12.122  23.951  0.00  0.00    +0.000 HD
ENDROOT
BRANCH  11  15
ATOM     15  C   UNL     1      -1.510  13.368  22.241  0.00  0.00    +0.000 C 
ATOM     16  C   UNL     1      -0.718  14.443  22.991  0.00  0.00    +0.000 C 
ATOM     17  C   UNL     1      -0.880  15.784  22.290  0.00  0.00    +0.000 C 
ATOM     18  O   UNL     1      -2.258  16.140  22.198  0.00  0.00    +0.000 OA
ATOM     19  C   UNL     1      -3.013  15.198  21.437  0.00  0.00    +0.000 C 
ATOM     20  C   UNL     1      -2.965  13.824  22.085  0.00  0.00    +0.000 C 
ENDBRANCH  11  15
BRANCH   5  21
ATOM     21  C   UNL     1       2.772   6.688  19.237  0.00  0.00    +0.000 C 
BRANCH  21  22
ATOM     22  C   UNL     1       2.249   5.333  19.644  0.00  0.00    +0.000 A 
ATOM     23  C   UNL     1       2.384   4.874  20.960  0.00  0.00    +0.000 A 
ATOM     24  C   UNL     1       1.829   3.649  21.340  0.00  0.00    +0.000 A 
ATOM     25  C   UNL     1       1.129   2.876  20.412  0.00  0.00    +0.000 A 
ATOM     26  C   UNL     1       0.997   3.320  19.099  0.00  0.00    +0.000 A 
ATOM     27  C   UNL     1       1.557   4.537  18.726  0.00  0.00    +0.000 A 
ATOM     28  F   UNL     1       1.410   4.951  17.458  0.00  0.00    +0.000 F 
ENDBRANCH  21  22
ENDBRANCH   5  21
TORSDOF 3
ENDMDL
MODEL 2
REMARK VINA RESULT:      -8.3      0.930      1.334
REMARK  Name = 
REMARK  4 active torsions:
REMARK  status: ('A' for Active; 'I' for Inactive)
REMARK    1  A    between atoms: C_1  and  N_2
REMARK    2  A    between atoms: C_5  and  C_6
REMARK    3  A    between atoms: C_6  and  C_7
REMARK    4  A    between atoms: N_19  and  C_20
REMARK                            x       y       z     vdW  Elec       q    Type
REMARK                         _______ _______ _______ _____ _____    ______ ____
ROOT
ATOM      1  C   UNL     1       0.166  10.821  18.509  0.00  0.00    +0.000 C 
ATOM      2  N   UNL     1       0.682   9.821  19.429  0.00  0.00    +0.000 N 
ATOM      3  C   UNL     1       1.466   8.780  18.957  0.00  0.00    +0.000 A 
ATOM      4  O   UNL     1       1.727   8.615  17.765  0.00  0.00    +0.000 OA
ATOM      5  C   UNL     1       2.015   7.822  19.969  0.00  0.00    +0.000 A 
ATOM      6  C   UNL     1       1.691   7.949  21.267  0.00  0.00    +0.000 A 
ATOM      7  C   UNL     1       0.823   9.030  21.695  0.00  0.00    +0.000 A 
ATOM      8  C   UNL     1       0.442   9.221  23.003  0.00  0.00    +0.000 A 
ATOM      9  N   UNL     1      -0.377  10.213  23.402  0.00  0.00    +0.000 NA
ATOM     10  C   UNL     1      -0.833  11.039  22.456  0.00  0.00    +0.000 A 
ATOM     11  N   UNL     1      -1.704  12.020  22.896  0.00  0.00    +0.000 N 
ATOM     12  N   UNL     1      -0.493  10.959  21.164  0.00  0.00    +0.000 NA
ATOM     13  C   UNL     1       0.326   9.951  20.796  0.00  0.00    +0.000 A 
ATOM     14  H   UNL     1      -1.608  12.093  23.902  0.00  0.00    +0.000 HD
ENDROOT
BRANCH  11  15
ATOM     15  C   UNL     1      -1.779  13.263  22.143  0.00  0.00    +0.000 C 
ATOM     16  C   UNL     1      -1.122  14.424  22.894  0.00  0.00    +0.000 C 
ATOM     17  C   UNL     1      -1.348  15.722  22.132  0.00  0.00    +0.000 C 
ATOM     18  O   UNL     1      -2.742  15.961  21.947  0.00  0.00    +0.000 OA
ATOM     19  C   UNL     1      -3.372  14.934  21.181  0.00  0.00    +0.000 C 
ATOM     20  C   UNL     1      -3.254  13.591  21.884  0.00  0.00    +0.000 C 
ENDBRANCH  11  15
BRANCH   5  21
ATOM     21  C   UNL     1       2.925   6.727  19.471  0.00  0.00    +0.000 C 
BRANCH  21  22
ATOM     22  C   UNL     1       2.192   5.422  19.278  0.00  0.00    +0.000 A 
ATOM     23  C   UNL     1       1.797   4.999  18.002  0.00  0.00    +0.000 A 
ATOM     24  C   UNL     1       1.185   3.754  17.830  0.00  0.00    +0.000 A 
ATOM     25  C   UNL     1       0.970   2.919  18.927  0.00  0.00    +0.000 A 
ATOM     26  C   UNL     1       1.352   3.334  20.201  0.00  0.00    +0.000 A 
ATOM     27  C   UNL     1       1.954   4.576  20.366  0.00  0.00    +0.000 A 
ATOM     28  F   UNL     1       2.323   4.954  21.599  0.00  0.00    +0.000 F 
ENDBRANCH  21  22
ENDBRANCH   5  21
TORSDOF 3
ENDMDL
MODEL 3
REMARK VINA RESULT:      -8.1      1.354      1.596
REMARK  Name = 
REMARK  4 active torsions:
REMARK  status: ('A' for Active; 'I' for Inactive)
REMARK    1  A    between atoms: C_1  and  N_2
REMARK    2  A    between atoms: C_5  and  C_6
REMARK    3  A    between atoms: C_6  and  C_7
REMARK    4  A    between atoms: N_19  and  C_20
REMARK                            x       y       z     vdW  Elec       q    Type
REMARK                         _______ _______ _______ _____ _____    ______ ____
ROOT
ATOM      1  C   UNL     1      -0.382  11.026  18.474  0.00  0.00    +0.000 C 
ATOM      2  N   UNL     1       0.414  10.000  19.129  0.00  0.00    +0.000 N 
ATOM      3  C   UNL     1       1.205   9.147  18.375  0.00  0.00    +0.000 A 
ATOM      4  O   UNL     1       1.247   9.172  17.145  0.00  0.00    +0.000 OA
ATOM      5  C   UNL     1       2.046   8.156  19.119  0.00  0.00    +0.000 A 
ATOM      6  C   UNL     1       1.967   8.072  20.459  0.00  0.00    +0.000 A 
ATOM      7  C   UNL     1       1.081   8.958  21.190  0.00  0.00    +0.000 A 
ATOM      8  C   UNL     1       0.941   8.927  22.558  0.00  0.00    +0.000 A 
ATOM      9  N   UNL     1       0.107   9.736  23.239  0.00  0.00    +0.000 NA
ATOM     10  C   UNL     1      -0.616  10.602  22.523  0.00  0.00    +0.000 A 
ATOM     11  N   UNL     1      -1.491  11.388  23.251  0.00  0.00    +0.000 N 
ATOM     12  N   UNL     1      -0.525  10.733  21.194  0.00  0.00    +0.000 NA
ATOM     13  C   UNL     1       0.317   9.905  20.541  0.00  0.00    +0.000 A 
ATOM     14  H   UNL     1      -1.211  11.346  24.224  0.00  0.00    +0.000 HD
ENDROOT
BRANCH  11  15
ATOM     15  C   UNL     1      -1.853  12.692  22.718  0.00  0.00    +0.000 C 
ATOM     16  C   UNL     1      -1.253  13.832  23.546  0.00  0.00    +0.000 C 
ATOM     17  C   UNL     1      -1.771  15.168  23.033  0.00  0.00    +0.000 C 
ATOM     18  O   UNL     1      -3.196  15.205  23.076  0.00  0.00    +0.000 OA
ATOM     19  C   UNL     1      -3.790  14.203  22.251  0.00  0.00    +0.000 C 
ATOM     20  C   UNL     1      -3.381  12.814  22.714  0.00  0.00    +0.000 C 
ENDBRANCH  11  15
BRANCH   5  21
ATOM     21  C   UNL     1       2.961   7.271  18.311  0.00  0.00    +0.000 C 
BRANCH  21  22
ATOM     22  C   UNL     1       2.701   5.805  18.559  0.00  0.00    +0.000 A 
ATOM     23  C   UNL     1       1.600   5.160  17.982  0.00  0.00    +0.000 A 
ATOM     24  C   UNL     1       1.414   3.787  18.161  0.00  0.00    +0.000 A 
ATOM     25  C   UNL     1       2.329   3.045  18.909  0.00  0.00    +0.000 A 
ATOM     26  C   UNL     1       3.423   3.678  19.494  0.00  0.00    +0.000 A 
ATOM     27  C   UNL     1       3.598   5.047  19.318  0.00  0.00    +0.000 A 
ATOM     28  F   UNL     1       4.664   5.637  19.881  0.00  0.00    +0.000 F 
ENDBRANCH  21  22
ENDBRANCH   5  21
TORSDOF 3
ENDMDL
MODEL 4
REMARK VINA RESULT:      -8.1      2.513      3.843
REMARK  Name = 
REMARK  4 active torsions:
REMARK  status: ('A' for Active; 'I' for Inactive)
REMARK    1  A    between atoms: C_1  and  N_2
REMARK    2  A    between atoms: C_5  and  C_6
REMARK    3  A    between atoms: C_6  and  C_7
REMARK    4  A    between atoms: N_19  and  C_20
REMARK                            x       y       z     vdW  Elec       q    Type
REMARK                         _______ _______ _______ _____ _____    ______ ____
ROOT
ATOM      1  C   UNL     1       0.857   8.133  21.752  0.00  0.00    +0.000 C 
ATOM      2  N   UNL     1       1.450   8.210  20.427  0.00  0.00    +0.000 N 
ATOM      3  C   UNL     1       2.049   7.092  19.866  0.00  0.00    +0.000 A 
ATOM      4  O   UNL     1       2.155   6.015  20.453  0.00  0.00    +0.000 OA
ATOM      5  C   UNL     1       2.584   7.227  18.474  0.00  0.00    +0.000 A 
ATOM      6  C   UNL     1       2.533   8.412  17.841  0.00  0.00    +0.000 A 
ATOM      7  C   UNL     1       1.940   9.561  18.499  0.00  0.00    +0.000 A 
ATOM      8  C   UNL     1       1.858  10.805  17.919  0.00  0.00    +0.000 A 
ATOM      9  N   UNL     1       1.323  11.879  18.533  0.00  0.00    +0.000 NA
ATOM     10  C   UNL     1       0.859  11.699  19.773  0.00  0.00    +0.000 A 
ATOM     11  N   UNL     1       0.356  12.830  20.387  0.00  0.00    +0.000 N 
ATOM     12  N   UNL     1       0.861  10.520  20.409  0.00  0.00    +0.000 NA
ATOM     13  C   UNL     1       1.407   9.466  19.767  0.00  0.00    +0.000 A 
ATOM     14  H   UNL     1       0.182  13.523  19.669  0.00  0.00    +0.000 HD
ENDROOT
BRANCH  11  15
ATOM     15  C   UNL     1      -0.664  12.663  21.412  0.00  0.00    +0.000 C 
ATOM     16  C   UNL     1      -2.076  12.690  20.819  0.00  0.00    +0.000 C 
ATOM     17  C   UNL     1      -3.104  12.650  21.940  0.00  0.00    +0.000 C 
ATOM     18  O   UNL     1      -2.911  13.740  22.840  0.00  0.00    +0.000 OA
ATOM     19  C   UNL     1      -1.631  13.702  23.471  0.00  0.00    +0.000 C 
ATOM     20  C   UNL     1      -0.520  13.793  22.437  0.00  0.00    +0.000 C 
ENDBRANCH  11  15
BRANCH   5  21
ATOM     21  C   UNL     1       3.175   5.997  17.832  0.00  0.00    +0.000 C 
BRANCH  21  22
ATOM     22  C   UNL     1       4.680   5.970  17.933  0.00  0.00    +0.000 A 
ATOM     23  C   UNL     1       5.317   5.468  19.075  0.00  0.00    +0.000 A 
ATOM     24  C   UNL     1       6.711   5.381  19.125  0.00  0.00    +0.000 A 
ATOM     25  C   UNL     1       7.480   5.785  18.033  0.00  0.00    +0.000 A 
ATOM     26  C   UNL     1       6.857   6.294  16.896  0.00  0.00    +0.000 A 
ATOM     27  C   UNL     1       5.470   6.384  16.856  0.00  0.00    +0.000 A 
ATOM     28  F   UNL     1       4.888   6.868  15.747  0.00  0.00    +0.000 F 
ENDBRANCH  21  22
ENDBRANCH   5  21
TORSDOF 3
ENDMDL
MODEL 5
REMARK VINA RESULT:      -8.0      2.620      4.116
REMARK  Name = 
REMARK  4 active torsions:
REMARK  status: ('A' for Active; 'I' for Inactive)
REMARK    1  A    between atoms: C_1  and  N_2
REMARK    2  A    between atoms: C_5  and  C_6
REMARK    3  A    between atoms: C_6  and  C_7
REMARK    4  A    between atoms: N_19  and  C_20
REMARK                            x       y       z     vdW  Elec       q    Type
REMARK                         _______ _______ _______ _____ _____    ______ ____
ROOT
ATOM      1  C   UNL     1       0.732   7.804  21.461  0.00  0.00    +0.000 C 
ATOM      2  N   UNL     1       1.452   7.966  20.208  0.00  0.00    +0.000 N 
ATOM      3  C   UNL     1       2.189   6.912  19.688  0.00  0.00    +0.000 A 
ATOM      4  O   UNL     1       2.316   5.828  20.257  0.00  0.00    +0.000 OA
ATOM      5  C   UNL     1       2.854   7.129  18.363  0.00  0.00    +0.000 A 
ATOM      6  C   UNL     1       2.778   8.326  17.756  0.00  0.00    +0.000 A 
ATOM      7  C   UNL     1       2.034   9.407  18.374  0.00  0.00    +0.000 A 
ATOM      8  C   UNL     1       1.919  10.660  17.818  0.00  0.00    +0.000 A 
ATOM      9  N   UNL     1       1.243  11.671  18.396  0.00  0.00    +0.000 NA
ATOM     10  C   UNL     1       0.668  11.420  19.575  0.00  0.00    +0.000 A 
ATOM     11  N   UNL     1       0.019  12.492  20.159  0.00  0.00    +0.000 N 
ATOM     12  N   UNL     1       0.693  10.225  20.181  0.00  0.00    +0.000 NA
ATOM     13  C   UNL     1       1.382   9.234  19.577  0.00  0.00    +0.000 A 
ATOM     14  H   UNL     1      -0.132  13.192  19.443  0.00  0.00    +0.000 HD
ENDROOT
BRANCH  11  15
ATOM     15  C   UNL     1      -1.086  12.219  21.066  0.00  0.00    +0.000 C 
ATOM     16  C   UNL     1      -2.393  12.849  20.576  0.00  0.00    +0.000 C 
ATOM     17  C   UNL     1      -3.481  12.653  21.622  0.00  0.00    +0.000 C 
ATOM     18  O   UNL     1      -3.084  13.213  22.873  0.00  0.00    +0.000 OA
ATOM     19  C   UNL     1      -1.910  12.593  23.397  0.00  0.00    +0.000 C 
ATOM     20  C   UNL     1      -0.736  12.779  22.449  0.00  0.00    +0.000 C 
ENDBRANCH  11  15
BRANCH   5  21
ATOM     21  C   UNL     1       3.600   5.966  17.759  0.00  0.00    +0.000 C 
BRANCH  21  22
ATOM     22  C   UNL     1       5.090   6.075  17.970  0.00  0.00    +0.000 A 
ATOM     23  C   UNL     1       5.868   6.937  17.187  0.00  0.00    +0.000 A 
ATOM     24  C   UNL     1       7.234   7.082  17.443  0.00  0.00    +0.000 A 
ATOM     25  C   UNL     1       7.834   6.375  18.486  0.00  0.00    +0.000 A 
ATOM     26  C   UNL     1       7.070   5.509  19.265  0.00  0.00    +0.000 A 
ATOM     27  C   UNL     1       5.713   5.364  19.001  0.00  0.00    +0.000 A 
ATOM     28  F   UNL     1       4.993   4.532  19.769  0.00  0.00    +0.000 F 
ENDBRANCH  21  22
ENDBRANCH   5  21
TORSDOF 3
ENDMDL
MODEL 6
REMARK VINA RESULT:      -7.9      3.022      4.549
REMARK  Name = 
REMARK  4 active torsions:
REMARK  status: ('A' for Active; 'I' for Inactive)
REMARK    1  A    between atoms: C_1  and  N_2
REMARK    2  A    between atoms: C_5  and  C_6
REMARK    3  A    between atoms: C_6  and  C_7
REMARK    4  A    between atoms: N_19  and  C_20
REMARK                            x       y       z     vdW  Elec       q    Type
REMARK                         _______ _______ _______ _____ _____    ______ ____
ROOT
ATOM      1  C   UNL     1       0.773   7.392  21.527  0.00  0.00    +0.000 C 
ATOM      2  N   UNL     1       1.619   7.104  20.380  0.00  0.00    +0.000 N 
ATOM      3  C   UNL     1       2.260   5.879  20.278  0.00  0.00    +0.000 A 
ATOM      4  O   UNL     1       2.195   5.007  21.144  0.00  0.00    +0.000 OA
ATOM      5  C   UNL     1       3.065   5.628  19.040  0.00  0.00    +0.000 A 
ATOM      6  C   UNL     1       3.198   6.592  18.112  0.00  0.00    +0.000 A 
ATOM      7  C   UNL     1       2.545   7.873  18.299  0.00  0.00    +0.000 A 
ATOM      8  C   UNL     1       2.641   8.909  17.399  0.00  0.00    +0.000 A 
ATOM      9  N   UNL     1       2.050  10.106  17.576  0.00  0.00    +0.000 NA
ATOM     10  C   UNL     1       1.343  10.272  18.697  0.00  0.00    +0.000 A 
ATOM     11  N   UNL     1       0.785  11.526  18.866  0.00  0.00    +0.000 N 
ATOM     12  N   UNL     1       1.160   9.315  19.616  0.00  0.00    +0.000 NA
ATOM     13  C   UNL     1       1.769   8.128  19.410  0.00  0.00    +0.000 A 
ATOM     14  H   UNL     1       0.790  11.993  17.966  0.00  0.00    +0.000 HD
ENDROOT
BRANCH  11  15
ATOM     15  C   UNL     1      -0.424  11.642  19.668  0.00  0.00    +0.000 C 
ATOM     16  C   UNL     1      -1.604  12.169  18.846  0.00  0.00    +0.000 C 
ATOM     17  C   UNL     1      -2.801  12.401  19.757  0.00  0.00    +0.000 C 
ATOM     18  O   UNL     1      -2.467  13.308  20.806  0.00  0.00    +0.000 OA
ATOM     19  C   UNL     1      -1.421  12.811  21.641  0.00  0.00    +0.000 C 
ATOM     20  C   UNL     1      -0.149  12.595  20.836  0.00  0.00    +0.000 C 
ENDBRANCH  11  15
BRANCH   5  21
ATOM     21  C   UNL     1       3.709   4.272  18.890  0.00  0.00    +0.000 C 
BRANCH  21  22
ATOM     22  C   UNL     1       4.880   4.300  17.939  0.00  0.00    +0.000 A 
ATOM     23  C   UNL     1       4.731   3.917  16.600  0.00  0.00    +0.000 A 
ATOM     24  C   UNL     1       5.806   4.019  15.714  0.00  0.00    +0.000 A 
ATOM     25  C   UNL     1       7.036   4.510  16.153  0.00  0.00    +0.000 A 
ATOM     26  C   UNL     1       7.197   4.886  17.485  0.00  0.00    +0.000 A 
ATOM     27  C   UNL     1       6.124   4.776  18.363  0.00  0.00    +0.000 A 
ATOM     28  F   UNL     1       6.297   5.153  19.640  0.00  0.00    +0.000 F 
ENDBRANCH  21  22
ENDBRANCH   5  21
TORSDOF 3
ENDMDL
MODEL 7
REMARK VINA RESULT:      -7.8      1.093      1.115
REMARK  Name = 
REMARK  4 active torsions:
REMARK  status: ('A' for Active; 'I' for Inactive)
REMARK    1  A    between atoms: C_1  and  N_2
REMARK    2  A    between atoms: C_5  and  C_6
REMARK    3  A    between atoms: C_6  and  C_7
REMARK    4  A    between atoms: N_19  and  C_20
REMARK                            x       y       z     vdW  Elec       q    Type
REMARK                         _______ _______ _______ _____ _____    ______ ____
ROOT
ATOM      1  C   UNL     1       1.719  10.892  18.010  0.00  0.00    +0.000 C 
ATOM      2  N   UNL     1       1.670   9.705  18.848  0.00  0.00    +0.000 N 
ATOM      3  C   UNL     1       2.248   8.522  18.413  0.00  0.00    +0.000 A 
ATOM      4  O   UNL     1       2.778   8.393  17.310  0.00  0.00    +0.000 OA
ATOM      5  C   UNL     1       2.215   7.357  19.354  0.00  0.00    +0.000 A 
ATOM      6  C   UNL     1       1.585   7.460  20.537  0.00  0.00    +0.000 A 
ATOM      7  C   UNL     1       0.953   8.710  20.916  0.00  0.00    +0.000 A 
ATOM      8  C   UNL     1       0.286   8.889  22.105  0.00  0.00    +0.000 A 
ATOM      9  N   UNL     1      -0.317  10.042  22.453  0.00  0.00    +0.000 NA
ATOM     10  C   UNL     1      -0.253  11.048  21.577  0.00  0.00    +0.000 A 
ATOM     11  N   UNL     1      -0.917  12.202  21.949  0.00  0.00    +0.000 N 
ATOM     12  N   UNL     1       0.403  10.984  20.411  0.00  0.00    +0.000 NA
ATOM     13  C   UNL     1       0.993   9.813  20.090  0.00  0.00    +0.000 A 
ATOM     14  H   UNL     1      -1.092  12.153  22.946  0.00  0.00    +0.000 HD
ENDROOT
BRANCH  11  15
ATOM     15  C   UNL     1      -0.444  13.472  21.419  0.00  0.00    +0.000 C 
ATOM     16  C   UNL     1      -0.149  14.480  22.533  0.00  0.00    +0.000 C 
ATOM     17  C   UNL     1       0.208  15.828  21.925  0.00  0.00    +0.000 C 
ATOM     18  O   UNL     1      -0.845  16.296  21.083  0.00  0.00    +0.000 OA
ATOM     19  C   UNL     1      -1.094  15.417  19.987  0.00  0.00    +0.000 C 
ATOM     20  C   UNL     1      -1.517  14.044  20.485  0.00  0.00    +0.000 C 
ENDBRANCH  11  15
BRANCH   5  21
ATOM     21  C   UNL     1       2.901   6.088  18.915  0.00  0.00    +0.000 C 
BRANCH  21  22
ATOM     22  C   UNL     1       2.345   4.870  19.612  0.00  0.00    +0.000 A 
ATOM     23  C   UNL     1       2.654   4.601  20.951  0.00  0.00    +0.000 A 
ATOM     24  C   UNL     1       2.072   3.511  21.604  0.00  0.00    +0.000 A 
ATOM     25  C   UNL     1       1.173   2.685  20.928  0.00  0.00    +0.000 A 
ATOM     26  C   UNL     1       0.866   2.938  19.594  0.00  0.00    +0.000 A 
ATOM     27  C   UNL     1       1.453   4.021  18.948  0.00  0.00    +0.000 A 
ATOM     28  F   UNL     1       1.137   4.254  17.665  0.00  0.00    +0.000 F 
ENDBRANCH  21  22
ENDBRANCH   5  21
TORSDOF 3
ENDMDL
MODEL 8
REMARK VINA RESULT:      -7.7      3.342      4.601
REMARK  Name = 
REMARK  4 active torsions:
REMARK  status: ('A' for Active; 'I' for Inactive)
REMARK    1  A    between atoms: C_1  and  N_2
REMARK    2  A    between atoms: C_5  and  C_6
REMARK    3  A    between atoms: C_6  and  C_7
REMARK    4  A    between atoms: N_19  and  C_20
REMARK                            x       y       z     vdW  Elec       q    Type
REMARK                         _______ _______ _______ _____ _____    ______ ____
ROOT
ATOM      1  C   UNL     1      -1.023  12.960  20.442  0.00  0.00    +0.000 C 
ATOM      2  N   UNL     1      -0.779  11.856  19.527  0.00  0.00    +0.000 N 
ATOM      3  C   UNL     1       0.502  11.348  19.375  0.00  0.00    +0.000 A 
ATOM      4  O   UNL     1       1.487  11.813  19.949  0.00  0.00    +0.000 OA
ATOM      5  C   UNL     1       0.670  10.172  18.463  0.00  0.00    +0.000 A 
ATOM      6  C   UNL     1      -0.383   9.690  17.780  0.00  0.00    +0.000 A 
ATOM      7  C   UNL     1      -1.692  10.297  17.940  0.00  0.00    +0.000 A 
ATOM      8  C   UNL     1      -2.812   9.864  17.271  0.00  0.00    +0.000 A 
ATOM      9  N   UNL     1      -4.025  10.435  17.405  0.00  0.00    +0.000 NA
ATOM     10  C   UNL     1      -4.115  11.479  18.234  0.00  0.00    +0.000 A 
ATOM     11  N   UNL     1      -5.365  12.065  18.315  0.00  0.00    +0.000 N 
ATOM     12  N   UNL     1      -3.092  11.951  18.956  0.00  0.00    +0.000 NA
ATOM     13  C   UNL     1      -1.889  11.359  18.796  0.00  0.00    +0.000 A 
ATOM     14  H   UNL     1      -6.041  11.412  17.936  0.00  0.00    +0.000 HD
ENDROOT
BRANCH  11  15
ATOM     15  C   UNL     1      -5.724  12.757  19.543  0.00  0.00    +0.000 C 
ATOM     16  C   UNL     1      -6.408  11.822  20.544  0.00  0.00    +0.000 C 
ATOM     17  C   UNL     1      -6.886  12.619  21.749  0.00  0.00    +0.000 C 
ATOM     18  O   UNL     1      -7.769  13.663  21.344  0.00  0.00    +0.000 OA
ATOM     19  C   UNL     1      -7.139  14.599  20.470  0.00  0.00    +0.000 C 
ATOM     20  C   UNL     1      -6.669  13.913  19.197  0.00  0.00    +0.000 C 
ENDBRANCH  11  15
BRANCH   5  21
ATOM     21  C   UNL     1       2.048   9.571  18.346  0.00  0.00    +0.000 C 
BRANCH  21  22
ATOM     22  C   UNL     1       2.071   8.117  18.749  0.00  0.00    +0.000 A 
ATOM     23  C   UNL     1       2.371   7.115  17.818  0.00  0.00    +0.000 A 
ATOM     24  C   UNL     1       2.462   5.781  18.223  0.00  0.00    +0.000 A 
ATOM     25  C   UNL     1       2.262   5.436  19.560  0.00  0.00    +0.000 A 
ATOM     26  C   UNL     1       1.956   6.424  20.493  0.00  0.00    +0.000 A 
ATOM     27  C   UNL     1       1.860   7.750  20.082  0.00  0.00    +0.000 A 
ATOM     28  F   UNL     1       1.573   8.688  20.997  0.00  0.00    +0.000 F 
ENDBRANCH  21  22
ENDBRANCH   5  21
TORSDOF 3
ENDMDL
MODEL 9
REMARK VINA RESULT:      -7.7      2.957      4.430
REMARK  Name = 
REMARK  4 active torsions:
REMARK  status: ('A' for Active; 'I' for Inactive)
REMARK    1  A    between atoms: C_1  and  N_2
REMARK    2  A    between atoms: C_5  and  C_6
REMARK    3  A    between atoms: C_6  and  C_7
REMARK    4  A    between atoms: N_19  and  C_20
REMARK                            x       y       z     vdW  Elec       q    Type
REMARK                         _______ _______ _______ _____ _____    ______ ____
ROOT
ATOM      1  C   UNL     1       0.717   7.406  21.495  0.00  0.00    +0.000 C 
ATOM      2  N   UNL     1       1.627   7.137  20.394  0.00  0.00    +0.000 N 
ATOM      3  C   UNL     1       2.345   5.951  20.359  0.00  0.00    +0.000 A 
ATOM      4  O   UNL     1       2.296   5.103  21.250  0.00  0.00    +0.000 OA
ATOM      5  C   UNL     1       3.217   5.712  19.164  0.00  0.00    +0.000 A 
ATOM      6  C   UNL     1       3.332   6.654  18.212  0.00  0.00    +0.000 A 
ATOM      7  C   UNL     1       2.594   7.898  18.328  0.00  0.00    +0.000 A 
ATOM      8  C   UNL     1       2.666   8.909  17.400  0.00  0.00    +0.000 A 
ATOM      9  N   UNL     1       1.996  10.073  17.512  0.00  0.00    +0.000 NA
ATOM     10  C   UNL     1       1.232  10.229  18.597  0.00  0.00    +0.000 A 
ATOM     11  N   UNL     1       0.593  11.450  18.701  0.00  0.00    +0.000 N 
ATOM     12  N   UNL     1       1.069   9.291  19.539  0.00  0.00    +0.000 NA
ATOM     13  C   UNL     1       1.757   8.138  19.398  0.00  0.00    +0.000 A 
ATOM     14  H   UNL     1       0.609  11.889  17.788  0.00  0.00    +0.000 HD
ENDROOT
BRANCH  11  15
ATOM     15  C   UNL     1      -0.654  11.515  19.448  0.00  0.00    +0.000 C 
ATOM     16  C   UNL     1      -1.820  11.977  18.570  0.00  0.00    +0.000 C 
ATOM     17  C   UNL     1      -3.066  12.160  19.425  0.00  0.00    +0.000 C 
ATOM     18  O   UNL     1      -2.822  13.092  20.478  0.00  0.00    +0.000 OA
ATOM     19  C   UNL     1      -1.792  12.653  21.363  0.00  0.00    +0.000 C 
ATOM     20  C   UNL     1      -0.477  12.491  20.617  0.00  0.00    +0.000 C 
ENDBRANCH  11  15
BRANCH   5  21
ATOM     21  C   UNL     1       3.948   4.396  19.086  0.00  0.00    +0.000 C 
BRANCH  21  22
ATOM     22  C   UNL     1       5.035   4.410  18.040  0.00  0.00    +0.000 A 
ATOM     23  C   UNL     1       6.347   4.774  18.369  0.00  0.00    +0.000 A 
ATOM     24  C   UNL     1       7.359   4.710  17.407  0.00  0.00    +0.000 A 
ATOM     25  C   UNL     1       7.071   4.276  16.112  0.00  0.00    +0.000 A 
ATOM     26  C   UNL     1       5.768   3.920  15.773  0.00  0.00    +0.000 A 
ATOM     27  C   UNL     1       4.765   3.991  16.733  0.00  0.00    +0.000 A 
ATOM     28  F   UNL     1       3.518   3.635  16.390  0.00  0.00    +0.000 F 
ENDBRANCH  21  22
ENDBRANCH   5  21
TORSDOF 3
ENDMDL
