MODEL 1
REMARK VINA RESULT:      -8.1      0.000      0.000
REMARK  Name = 
REMARK  6 active torsions:
REMARK  status: ('A' for Active; 'I' for Inactive)
REMARK    1  A    between atoms: C_1  and  N_2
REMARK    2  A    between atoms: C_4  and  C_5
REMARK    3  A    between atoms: N_7  and  C_8
REMARK    4  A    between atoms: C_8  and  C_9
REMARK    5  A    between atoms: C_17  and  C_18
REMARK    6  A    between atoms: C_21  and  C_22
REMARK                            x       y       z     vdW  Elec       q    Type
REMARK                         _______ _______ _______ _____ _____    ______ ____
ROOT
ATOM      1  C   UNL     1       8.002   8.146  17.796  0.00  0.00    +0.000 C 
ATOM      2  O   UNL     1       7.332   8.042  16.770  0.00  0.00    +0.000 OA
ATOM      3  N   UNL     1       8.308   7.051  18.564  0.00  0.00    +0.000 N 
ATOM      4  H   UNL     1       8.800   7.143  19.445  0.00  0.00    +0.000 HD
ENDROOT
BRANCH   1   8
ATOM      5  C   UNL     1       9.830  11.481  20.947  0.00  0.00    +0.000 C 
ATOM      6  N   UNL     1       9.365  10.955  19.681  0.00  0.00    +0.000 N 
ATOM      7  C   UNL     1       9.003   9.640  19.529  0.00  0.00    +0.000 A 
ATOM      8  C   UNL     1       8.513   9.437  18.255  0.00  0.00    +0.000 A 
ATOM      9  C   UNL     1       8.624  10.705  17.607  0.00  0.00    +0.000 A 
ATOM     10  C   UNL     1       9.159  11.644  18.496  0.00  0.00    +0.000 A 
BRANCH  10  11
ATOM     11  C   UNL     1       9.406  13.086  18.272  0.00  0.00    +0.000 A 
ATOM     12  C   UNL     1      10.583  13.507  17.628  0.00  0.00    +0.000 A 
ATOM     13  C   UNL     1      10.830  14.866  17.383  0.00  0.00    +0.000 A 
ATOM     14  C   UNL     1       9.897  15.821  17.766  0.00  0.00    +0.000 A 
ATOM     15 CL   UNL     1      10.179  17.486  17.442  0.00  0.00    +0.000 Cl
ATOM     16  C   UNL     1       8.733  15.433  18.420  0.00  0.00    +0.000 A 
ATOM     17  C   UNL     1       8.507  14.078  18.691  0.00  0.00    +0.000 A 
ENDBRANCH  10  11
ENDBRANCH   1   8
BRANCH   3  18
ATOM     18  C   UNL     1       7.784   5.748  18.199  0.00  0.00    +0.000 C 
BRANCH  18  19
ATOM     19  C   UNL     1       6.637   5.307  19.115  0.00  0.00    +0.000 C 
ATOM     20  O   UNL     1       6.751   5.359  20.341  0.00  0.00    +0.000 OA
ATOM     21  N   UNL     1       5.467   4.882  18.513  0.00  0.00    +0.000 N 
ATOM     22  C   UNL     1       4.299   4.509  19.301  0.00  0.00    +0.000 C 
ATOM     23  C   UNL     1       3.658   3.391  18.505  0.00  0.00    +0.000 C 
ATOM     24  F   UNL     1       2.329   3.312  18.708  0.00  0.00    +0.000 F 
ATOM     25  F   UNL     1       4.200   2.199  18.845  0.00  0.00    +0.000 F 
ATOM     26  C   UNL     1       3.972   3.699  17.056  0.00  0.00    +0.000 C 
ATOM     27  C   UNL     1       5.278   4.508  17.105  0.00  0.00    +0.000 C 
BRANCH  27  28
ATOM     28  C   UNL     1       5.167   5.687  16.221  0.00  0.00    +0.000 C 
ATOM     29  N   UNL     1       5.086   6.601  15.510  0.00  0.00    +0.000 NA
ENDBRANCH  27  28
ENDBRANCH  18  19
ENDBRANCH   3  18
TORSDOF 5
ENDMDL
MODEL 2
REMARK VINA RESULT:      -7.9      1.359      1.834
REMARK  Name = 
REMARK  6 active torsions:
REMARK  status: ('A' for Active; 'I' for Inactive)
REMARK    1  A    between atoms: C_1  and  N_2
REMARK    2  A    between atoms: C_4  and  C_5
REMARK    3  A    between atoms: N_7  and  C_8
REMARK    4  A    between atoms: C_8  and  C_9
REMARK    5  A    between atoms: C_17  and  C_18
REMARK    6  A    between atoms: C_21  and  C_22
REMARK                            x       y       z     vdW  Elec       q    Type
REMARK                         _______ _______ _______ _____ _____    ______ ____
ROOT
ATOM      1  C   UNL     1       8.081   8.245  18.170  0.00  0.00    +0.000 C 
ATOM      2  O   UNL     1       8.425   7.235  18.780  0.00  0.00    +0.000 OA
ATOM      3  N   UNL     1       7.131   8.193  17.180  0.00  0.00    +0.000 N 
ATOM      4  H   UNL     1       6.897   9.011  16.629  0.00  0.00    +0.000 HD
ENDROOT
BRANCH   1   8
ATOM      5  C   UNL     1      10.241  11.799  20.834  0.00  0.00    +0.000 C 
ATOM      6  N   UNL     1       9.659  11.173  19.665  0.00  0.00    +0.000 N 
ATOM      7  C   UNL     1       9.257   9.861  19.668  0.00  0.00    +0.000 A 
ATOM      8  C   UNL     1       8.657   9.557  18.463  0.00  0.00    +0.000 A 
ATOM      9  C   UNL     1       8.740  10.757  17.692  0.00  0.00    +0.000 A 
ATOM     10  C   UNL     1       9.369  11.757  18.442  0.00  0.00    +0.000 A 
BRANCH  10  11
ATOM     11  C   UNL     1       9.628  13.164  18.065  0.00  0.00    +0.000 A 
ATOM     12  C   UNL     1       8.675  14.157  18.353  0.00  0.00    +0.000 A 
ATOM     13  C   UNL     1       8.906  15.502  18.028  0.00  0.00    +0.000 A 
ATOM     14  C   UNL     1      10.100  15.874  17.423  0.00  0.00    +0.000 A 
ATOM     15 CL   UNL     1      10.403  17.525  17.048  0.00  0.00    +0.000 Cl
ATOM     16  C   UNL     1      11.052  14.910  17.112  0.00  0.00    +0.000 A 
ATOM     17  C   UNL     1      10.802  13.565  17.409  0.00  0.00    +0.000 A 
ENDBRANCH  10  11
ENDBRANCH   1   8
BRANCH   3  18
ATOM     18  C   UNL     1       6.561   6.916  16.798  0.00  0.00    +0.000 C 
BRANCH  18  19
ATOM     19  C   UNL     1       5.105   6.769  17.256  0.00  0.00    +0.000 C 
ATOM     20  O   UNL     1       4.451   7.753  17.608  0.00  0.00    +0.000 OA
ATOM     21  N   UNL     1       4.552   5.503  17.228  0.00  0.00    +0.000 N 
ATOM     22  C   UNL     1       3.156   5.275  17.579  0.00  0.00    +0.000 C 
ATOM     23  C   UNL     1       3.160   3.914  18.243  0.00  0.00    +0.000 C 
ATOM     24  F   UNL     1       1.982   3.273  18.109  0.00  0.00    +0.000 F 
ATOM     25  F   UNL     1       3.415   4.035  19.566  0.00  0.00    +0.000 F 
ATOM     26  C   UNL     1       4.280   3.144  17.575  0.00  0.00    +0.000 C 
ATOM     27  C   UNL     1       5.266   4.225  17.105  0.00  0.00    +0.000 C 
BRANCH  27  28
ATOM     28  C   UNL     1       5.683   3.946  15.714  0.00  0.00    +0.000 C 
ATOM     29  N   UNL     1       6.027   3.742  14.625  0.00  0.00    +0.000 NA
ENDBRANCH  27  28
ENDBRANCH  18  19
ENDBRANCH   3  18
TORSDOF 5
ENDMDL
MODEL 3
REMARK VINA RESULT:      -7.8      7.452      9.002
REMARK  Name = 
REMARK  6 active torsions:
REMARK  status: ('A' for Active; 'I' for Inactive)
REMARK    1  A    between atoms: C_1  and  N_2
REMARK    2  A    between atoms: C_4  and  C_5
REMARK    3  A    between atoms: N_7  and  C_8
REMARK    4  A    between atoms: C_8  and  C_9
REMARK    5  A    between atoms: C_17  and  C_18
REMARK    6  A    between atoms: C_21  and  C_22
REMARK                            x       y       z     vdW  Elec       q    Type
REMARK                         _______ _______ _______ _____ _____    ______ ____
ROOT
ATOM      1  C   UNL     1       1.877   8.780  18.192  0.00  0.00    +0.000 C 
ATOM      2  O   UNL     1       2.641   8.882  17.233  0.00  0.00    +0.000 OA
ATOM      3  N   UNL     1       2.022   7.777  19.117  0.00  0.00    +0.000 N 
ATOM      4  H   UNL     1       1.353   7.650  19.868  0.00  0.00    +0.000 HD
ENDROOT
BRANCH   1   8
ATOM      5  C   UNL     1      -0.575  12.578  20.181  0.00  0.00    +0.000 C 
ATOM      6  N   UNL     1      -0.338  11.460  19.292  0.00  0.00    +0.000 N 
ATOM      7  C   UNL     1       0.859  10.791  19.269  0.00  0.00    +0.000 A 
ATOM      8  C   UNL     1       0.775   9.719  18.404  0.00  0.00    +0.000 A 
ATOM      9  C   UNL     1      -0.543   9.782  17.860  0.00  0.00    +0.000 A 
ATOM     10  C   UNL     1      -1.230  10.869  18.411  0.00  0.00    +0.000 A 
BRANCH  10  11
ATOM     11  C   UNL     1      -2.629  11.290  18.174  0.00  0.00    +0.000 A 
ATOM     12  C   UNL     1      -3.219  11.098  16.912  0.00  0.00    +0.000 A 
ATOM     13  C   UNL     1      -4.550  11.465  16.668  0.00  0.00    +0.000 A 
ATOM     14  C   UNL     1      -5.315  12.018  17.689  0.00  0.00    +0.000 A 
ATOM     15 CL   UNL     1      -6.957  12.443  17.406  0.00  0.00    +0.000 Cl
ATOM     16  C   UNL     1      -4.751  12.234  18.941  0.00  0.00    +0.000 A 
ATOM     17  C   UNL     1      -3.412  11.895  19.169  0.00  0.00    +0.000 A 
ENDBRANCH  10  11
ENDBRANCH   1   8
BRANCH   3  18
ATOM     18  C   UNL     1       3.056   6.777  18.937  0.00  0.00    +0.000 C 
BRANCH  18  19
ATOM     19  C   UNL     1       2.516   5.490  18.302  0.00  0.00    +0.000 C 
ATOM     20  O   UNL     1       1.503   5.509  17.599  0.00  0.00    +0.000 OA
ATOM     21  N   UNL     1       3.223   4.323  18.523  0.00  0.00    +0.000 N 
ATOM     22  C   UNL     1       2.827   3.065  17.905  0.00  0.00    +0.000 C 
ATOM     23  C   UNL     1       3.183   2.017  18.938  0.00  0.00    +0.000 C 
ATOM     24  F   UNL     1       3.453   0.819  18.384  0.00  0.00    +0.000 F 
ATOM     25  F   UNL     1       2.162   1.847  19.810  0.00  0.00    +0.000 F 
ATOM     26  C   UNL     1       4.391   2.567  19.667  0.00  0.00    +0.000 C 
ATOM     27  C   UNL     1       4.261   4.093  19.537  0.00  0.00    +0.000 C 
BRANCH  27  28
ATOM     28  C   UNL     1       5.564   4.672  19.149  0.00  0.00    +0.000 C 
ATOM     29  N   UNL     1       6.597   5.114  18.858  0.00  0.00    +0.000 NA
ENDBRANCH  27  28
ENDBRANCH  18  19
ENDBRANCH   3  18
TORSDOF 5
ENDMDL
MODEL 4
REMARK VINA RESULT:      -7.7      8.477      9.767
REMARK  Name = 
REMARK  6 active torsions:
REMARK  status: ('A' for Active; 'I' for Inactive)
REMARK    1  A    between atoms: C_1  and  N_2
REMARK    2  A    between atoms: C_4  and  C_5
REMARK    3  A    between atoms: N_7  and  C_8
REMARK    4  A    between atoms: C_8  and  C_9
REMARK    5  A    between atoms: C_17  and  C_18
REMARK    6  A    between atoms: C_21  and  C_22
REMARK                            x       y       z     vdW  Elec       q    Type
REMARK                         _______ _______ _______ _____ _____    ______ ____
ROOT
ATOM      1  C   UNL     1       0.833   9.246  21.979  0.00  0.00    +0.000 C 
ATOM      2  O   UNL     1       1.804   9.344  22.726  0.00  0.00    +0.000 OA
ATOM      3  N   UNL     1       0.623   8.120  21.223  0.00  0.00    +0.000 N 
ATOM      4  H   UNL     1      -0.138   8.066  20.555  0.00  0.00    +0.000 HD
ENDROOT
BRANCH   1   8
ATOM      5  C   UNL     1      -1.998  12.616  19.736  0.00  0.00    +0.000 C 
ATOM      6  N   UNL     1      -1.461  11.841  20.835  0.00  0.00    +0.000 N 
ATOM      7  C   UNL     1      -0.570  10.817  20.635  0.00  0.00    +0.000 A 
ATOM      8  C   UNL     1      -0.154  10.319  21.853  0.00  0.00    +0.000 A 
ATOM      9  C   UNL     1      -0.869  11.077  22.829  0.00  0.00    +0.000 A 
ATOM     10  C   UNL     1      -1.685  12.018  22.191  0.00  0.00    +0.000 A 
BRANCH  10  11
ATOM     11  C   UNL     1      -2.562  13.041  22.803  0.00  0.00    +0.000 A 
ATOM     12  C   UNL     1      -2.003  14.193  23.383  0.00  0.00    +0.000 A 
ATOM     13  C   UNL     1      -2.812  15.189  23.948  0.00  0.00    +0.000 A 
ATOM     14  C   UNL     1      -4.195  15.052  23.929  0.00  0.00    +0.000 A 
ATOM     15 CL   UNL     1      -5.196  16.282  24.594  0.00  0.00    +0.000 Cl
ATOM     16  C   UNL     1      -4.773  13.914  23.378  0.00  0.00    +0.000 A 
ATOM     17  C   UNL     1      -3.958  12.909  22.844  0.00  0.00    +0.000 A 
ENDBRANCH  10  11
ENDBRANCH   1   8
BRANCH   3  18
ATOM     18  C   UNL     1       1.593   7.043  21.255  0.00  0.00    +0.000 C 
BRANCH  18  19
ATOM     19  C   UNL     1       2.166   6.737  19.866  0.00  0.00    +0.000 C 
ATOM     20  O   UNL     1       2.678   7.627  19.184  0.00  0.00    +0.000 OA
ATOM     21  N   UNL     1       2.116   5.426  19.429  0.00  0.00    +0.000 N 
ATOM     22  C   UNL     1       2.698   5.027  18.154  0.00  0.00    +0.000 C 
ATOM     23  C   UNL     1       1.781   3.929  17.657  0.00  0.00    +0.000 C 
ATOM     24  F   UNL     1       2.416   3.053  16.855  0.00  0.00    +0.000 F 
ATOM     25  F   UNL     1       0.748   4.455  16.959  0.00  0.00    +0.000 F 
ATOM     26  C   UNL     1       1.258   3.248  18.905  0.00  0.00    +0.000 C 
ATOM     27  C   UNL     1       1.310   4.334  19.990  0.00  0.00    +0.000 C 
BRANCH  27  28
ATOM     28  C   UNL     1       1.902   3.777  21.225  0.00  0.00    +0.000 C 
ATOM     29  N   UNL     1       2.369   3.359  22.201  0.00  0.00    +0.000 NA
ENDBRANCH  27  28
ENDBRANCH  18  19
ENDBRANCH   3  18
TORSDOF 5
ENDMDL
MODEL 5
REMARK VINA RESULT:      -7.7      6.408      7.758
REMARK  Name = 
REMARK  6 active torsions:
REMARK  status: ('A' for Active; 'I' for Inactive)
REMARK    1  A    between atoms: C_1  and  N_2
REMARK    2  A    between atoms: C_4  and  C_5
REMARK    3  A    between atoms: N_7  and  C_8
REMARK    4  A    between atoms: C_8  and  C_9
REMARK    5  A    between atoms: C_17  and  C_18
REMARK    6  A    between atoms: C_21  and  C_22
REMARK                            x       y       z     vdW  Elec       q    Type
REMARK                         _______ _______ _______ _____ _____    ______ ____
ROOT
ATOM      1  C   UNL     1       2.164   6.406  20.280  0.00  0.00    +0.000 C 
ATOM      2  O   UNL     1       1.496   5.425  20.603  0.00  0.00    +0.000 OA
ATOM      3  N   UNL     1       3.470   6.280  19.877  0.00  0.00    +0.000 N 
ATOM      4  H   UNL     1       4.042   7.092  19.678  0.00  0.00    +0.000 HD
ENDROOT
BRANCH   1   8
ATOM      5  C   UNL     1       1.059  10.922  18.613  0.00  0.00    +0.000 C 
ATOM      6  N   UNL     1       1.084   9.810  19.540  0.00  0.00    +0.000 N 
ATOM      7  C   UNL     1       1.635   8.599  19.206  0.00  0.00    +0.000 A 
ATOM      8  C   UNL     1       1.607   7.759  20.301  0.00  0.00    +0.000 A 
ATOM      9  C   UNL     1       0.972   8.513  21.333  0.00  0.00    +0.000 A 
ATOM     10  C   UNL     1       0.643   9.786  20.854  0.00  0.00    +0.000 A 
BRANCH  10  11
ATOM     11  C   UNL     1       0.017  10.911  21.584  0.00  0.00    +0.000 A 
ATOM     12  C   UNL     1       0.411  12.233  21.312  0.00  0.00    +0.000 A 
ATOM     13  C   UNL     1      -0.184  13.318  21.972  0.00  0.00    +0.000 A 
ATOM     14  C   UNL     1      -1.190  13.097  22.904  0.00  0.00    +0.000 A 
ATOM     15 CL   UNL     1      -1.944  14.424  23.696  0.00  0.00    +0.000 Cl
ATOM     16  C   UNL     1      -1.586  11.798  23.204  0.00  0.00    +0.000 A 
ATOM     17  C   UNL     1      -0.967  10.717  22.566  0.00  0.00    +0.000 A 
ENDBRANCH  10  11
ENDBRANCH   1   8
BRANCH   3  18
ATOM     18  C   UNL     1       4.102   4.975  19.889  0.00  0.00    +0.000 C 
BRANCH  18  19
ATOM     19  C   UNL     1       5.453   4.978  19.163  0.00  0.00    +0.000 C 
ATOM     20  O   UNL     1       6.474   5.372  19.730  0.00  0.00    +0.000 OA
ATOM     21  N   UNL     1       5.483   4.493  17.869  0.00  0.00    +0.000 N 
ATOM     22  C   UNL     1       6.732   4.391  17.124  0.00  0.00    +0.000 C 
ATOM     23  C   UNL     1       6.332   4.679  15.692  0.00  0.00    +0.000 C 
ATOM     24  F   UNL     1       7.148   4.082  14.801  0.00  0.00    +0.000 F 
ATOM     25  F   UNL     1       6.360   6.010  15.451  0.00  0.00    +0.000 F 
ATOM     26  C   UNL     1       4.913   4.166  15.562  0.00  0.00    +0.000 C 
ATOM     27  C   UNL     1       4.336   4.256  16.983  0.00  0.00    +0.000 C 
BRANCH  27  28
ATOM     28  C   UNL     1       3.623   3.003  17.311  0.00  0.00    +0.000 C 
ATOM     29  N   UNL     1       3.080   2.014  17.580  0.00  0.00    +0.000 NA
ENDBRANCH  27  28
ENDBRANCH  18  19
ENDBRANCH   3  18
TORSDOF 5
ENDMDL
MODEL 6
REMARK VINA RESULT:      -7.7      6.804      8.811
REMARK  Name = 
REMARK  6 active torsions:
REMARK  status: ('A' for Active; 'I' for Inactive)
REMARK    1  A    between atoms: C_1  and  N_2
REMARK    2  A    between atoms: C_4  and  C_5
REMARK    3  A    between atoms: N_7  and  C_8
REMARK    4  A    between atoms: C_8  and  C_9
REMARK    5  A    between atoms: C_17  and  C_18
REMARK    6  A    between atoms: C_21  and  C_22
REMARK                            x       y       z     vdW  Elec       q    Type
REMARK                         _______ _______ _______ _____ _____    ______ ____
ROOT
ATOM      1  C   UNL     1       2.374   6.004  19.812  0.00  0.00    +0.000 C 
ATOM      2  O   UNL     1       1.504   5.174  20.067  0.00  0.00    +0.000 OA
ATOM      3  N   UNL     1       2.300   7.288  20.293  0.00  0.00    +0.000 N 
ATOM      4  H   UNL     1       2.978   7.992  20.028  0.00  0.00    +0.000 HD
ENDROOT
BRANCH   1   8
ATOM      5  C   UNL     1       7.127   5.243  18.706  0.00  0.00    +0.000 C 
ATOM      6  N   UNL     1       5.698   5.307  18.483  0.00  0.00    +0.000 N 
ATOM      7  C   UNL     1       4.816   5.583  19.497  0.00  0.00    +0.000 A 
ATOM      8  C   UNL     1       3.537   5.675  18.988  0.00  0.00    +0.000 A 
ATOM      9  C   UNL     1       3.671   5.406  17.592  0.00  0.00    +0.000 A 
ATOM     10  C   UNL     1       5.016   5.172  17.284  0.00  0.00    +0.000 A 
BRANCH  10  11
ATOM     11  C   UNL     1       5.623   4.899  15.962  0.00  0.00    +0.000 A 
ATOM     12  C   UNL     1       4.961   4.069  15.041  0.00  0.00    +0.000 A 
ATOM     13  C   UNL     1       5.503   3.813  13.773  0.00  0.00    +0.000 A 
ATOM     14  C   UNL     1       6.709   4.397  13.403  0.00  0.00    +0.000 A 
ATOM     15 CL   UNL     1       7.365   4.113  11.839  0.00  0.00    +0.000 Cl
ATOM     16  C   UNL     1       7.392   5.208  14.302  0.00  0.00    +0.000 A 
ATOM     17  C   UNL     1       6.862   5.434  15.578  0.00  0.00    +0.000 A 
ENDBRANCH  10  11
ENDBRANCH   1   8
BRANCH   3  18
ATOM     18  C   UNL     1       1.145   7.699  21.068  0.00  0.00    +0.000 C 
BRANCH  18  19
ATOM     19  C   UNL     1       1.228   9.168  21.500  0.00  0.00    +0.000 C 
ATOM     20  O   UNL     1       1.538   9.471  22.654  0.00  0.00    +0.000 OA
ATOM     21  N   UNL     1       0.974  10.130  20.541  0.00  0.00    +0.000 N 
ATOM     22  C   UNL     1       1.096  11.551  20.838  0.00  0.00    +0.000 C 
ATOM     23  C   UNL     1       0.015  12.199  20.000  0.00  0.00    +0.000 C 
ATOM     24  F   UNL     1       0.314  13.469  19.666  0.00  0.00    +0.000 F 
ATOM     25  F   UNL     1      -1.159  12.215  20.673  0.00  0.00    +0.000 F 
ATOM     26  C   UNL     1      -0.115  11.326  18.769  0.00  0.00    +0.000 C 
ATOM     27  C   UNL     1       0.336   9.933  19.232  0.00  0.00    +0.000 C 
BRANCH  27  28
ATOM     28  C   UNL     1       1.263   9.353  18.238  0.00  0.00    +0.000 C 
ATOM     29  N   UNL     1       1.976   8.883  17.451  0.00  0.00    +0.000 NA
ENDBRANCH  27  28
ENDBRANCH  18  19
ENDBRANCH   3  18
TORSDOF 5
ENDMDL
MODEL 7
REMARK VINA RESULT:      -7.7      6.419      7.855
REMARK  Name = 
REMARK  6 active torsions:
REMARK  status: ('A' for Active; 'I' for Inactive)
REMARK    1  A    between atoms: C_1  and  N_2
REMARK    2  A    between atoms: C_4  and  C_5
REMARK    3  A    between atoms: N_7  and  C_8
REMARK    4  A    between atoms: C_8  and  C_9
REMARK    5  A    between atoms: C_17  and  C_18
REMARK    6  A    between atoms: C_21  and  C_22
REMARK                            x       y       z     vdW  Elec       q    Type
REMARK                         _______ _______ _______ _____ _____    ______ ____
ROOT
ATOM      1  C   UNL     1       2.927   5.866  19.736  0.00  0.00    +0.000 C 
ATOM      2  O   UNL     1       2.362   4.774  19.717  0.00  0.00    +0.000 OA
ATOM      3  N   UNL     1       4.296   5.963  19.701  0.00  0.00    +0.000 N 
ATOM      4  H   UNL     1       4.765   6.857  19.786  0.00  0.00    +0.000 HD
ENDROOT
BRANCH   1   8
ATOM      5  C   UNL     1       1.366  10.327  18.301  0.00  0.00    +0.000 C 
ATOM      6  N   UNL     1       1.449   9.145  19.133  0.00  0.00    +0.000 N 
ATOM      7  C   UNL     1       2.208   8.058  18.779  0.00  0.00    +0.000 A 
ATOM      8  C   UNL     1       2.178   7.121  19.792  0.00  0.00    +0.000 A 
ATOM      9  C   UNL     1       1.323   7.679  20.790  0.00  0.00    +0.000 A 
ATOM     10  C   UNL     1       0.868   8.934  20.374  0.00  0.00    +0.000 A 
BRANCH  10  11
ATOM     11  C   UNL     1       0.001   9.887  21.103  0.00  0.00    +0.000 A 
ATOM     12  C   UNL     1      -0.218   9.726  22.482  0.00  0.00    +0.000 A 
ATOM     13  C   UNL     1      -1.014  10.629  23.202  0.00  0.00    +0.000 A 
ATOM     14  C   UNL     1      -1.592  11.714  22.554  0.00  0.00    +0.000 A 
ATOM     15 CL   UNL     1      -2.546  12.841  23.435  0.00  0.00    +0.000 Cl
ATOM     16  C   UNL     1      -1.405  11.887  21.187  0.00  0.00    +0.000 A 
ATOM     17  C   UNL     1      -0.636  10.964  20.468  0.00  0.00    +0.000 A 
ENDBRANCH  10  11
ENDBRANCH   1   8
BRANCH   3  18
ATOM     18  C   UNL     1       5.102   4.757  19.704  0.00  0.00    +0.000 C 
BRANCH  18  19
ATOM     19  C   UNL     1       6.210   4.796  18.646  0.00  0.00    +0.000 C 
ATOM     20  O   UNL     1       7.341   5.197  18.929  0.00  0.00    +0.000 OA
ATOM     21  N   UNL     1       5.900   4.337  17.379  0.00  0.00    +0.000 N 
ATOM     22  C   UNL     1       6.906   4.270  16.327  0.00  0.00    +0.000 C 
ATOM     23  C   UNL     1       6.136   4.577  15.060  0.00  0.00    +0.000 C 
ATOM     24  F   UNL     1       6.691   4.011  13.971  0.00  0.00    +0.000 F 
ATOM     25  F   UNL     1       6.084   5.913  14.850  0.00  0.00    +0.000 F 
ATOM     26  C   UNL     1       4.739   4.044  15.300  0.00  0.00    +0.000 C 
ATOM     27  C   UNL     1       4.561   4.097  16.826  0.00  0.00    +0.000 C 
BRANCH  27  28
ATOM     28  C   UNL     1       3.975   2.827  17.303  0.00  0.00    +0.000 C 
ATOM     29  N   UNL     1       3.523   1.819  17.661  0.00  0.00    +0.000 NA
ENDBRANCH  27  28
ENDBRANCH  18  19
ENDBRANCH   3  18
TORSDOF 5
ENDMDL
MODEL 8
REMARK VINA RESULT:      -7.6      1.532      1.671
REMARK  Name = 
REMARK  6 active torsions:
REMARK  status: ('A' for Active; 'I' for Inactive)
REMARK    1  A    between atoms: C_1  and  N_2
REMARK    2  A    between atoms: C_4  and  C_5
REMARK    3  A    between atoms: N_7  and  C_8
REMARK    4  A    between atoms: C_8  and  C_9
REMARK    5  A    between atoms: C_17  and  C_18
REMARK    6  A    between atoms: C_21  and  C_22
REMARK                            x       y       z     vdW  Elec       q    Type
REMARK                         _______ _______ _______ _____ _____    ______ ____
ROOT
ATOM      1  C   UNL     1       7.545   7.669  17.406  0.00  0.00    +0.000 C 
ATOM      2  O   UNL     1       8.020   7.031  16.468  0.00  0.00    +0.000 OA
ATOM      3  N   UNL     1       6.398   7.262  18.039  0.00  0.00    +0.000 N 
ATOM      4  H   UNL     1       5.966   7.823  18.764  0.00  0.00    +0.000 HD
ENDROOT
BRANCH   1   8
ATOM      5  C   UNL     1       9.689  10.720  20.645  0.00  0.00    +0.000 C 
ATOM      6  N   UNL     1       9.169  10.280  19.367  0.00  0.00    +0.000 N 
ATOM      7  C   UNL     1       8.690   9.009  19.176  0.00  0.00    +0.000 A 
ATOM      8  C   UNL     1       8.173   8.894  17.902  0.00  0.00    +0.000 A 
ATOM      9  C   UNL     1       8.391  10.168  17.295  0.00  0.00    +0.000 A 
ATOM     10  C   UNL     1       9.015  11.025  18.208  0.00  0.00    +0.000 A 
BRANCH  10  11
ATOM     11  C   UNL     1       9.388  12.446  18.030  0.00  0.00    +0.000 A 
ATOM     12  C   UNL     1      10.602  12.783  17.407  0.00  0.00    +0.000 A 
ATOM     13  C   UNL     1      10.968  14.122  17.204  0.00  0.00    +0.000 A 
ATOM     14  C   UNL     1      10.116  15.143  17.610  0.00  0.00    +0.000 A 
ATOM     15 CL   UNL     1      10.544  16.786  17.338  0.00  0.00    +0.000 Cl
ATOM     16  C   UNL     1       8.918  14.837  18.244  0.00  0.00    +0.000 A 
ATOM     17  C   UNL     1       8.573  13.500  18.473  0.00  0.00    +0.000 A 
ENDBRANCH  10  11
ENDBRANCH   1   8
BRANCH   3  18
ATOM     18  C   UNL     1       5.691   6.090  17.561  0.00  0.00    +0.000 C 
BRANCH  18  19
ATOM     19  C   UNL     1       5.312   5.135  18.699  0.00  0.00    +0.000 C 
ATOM     20  O   UNL     1       6.180   4.607  19.397  0.00  0.00    +0.000 OA
ATOM     21  N   UNL     1       3.966   4.919  18.930  0.00  0.00    +0.000 N 
ATOM     22  C   UNL     1       3.508   4.084  20.032  0.00  0.00    +0.000 C 
ATOM     23  C   UNL     1       2.258   3.417  19.496  0.00  0.00    +0.000 C 
ATOM     24  F   UNL     1       1.387   3.098  20.473  0.00  0.00    +0.000 F 
ATOM     25  F   UNL     1       2.575   2.278  18.838  0.00  0.00    +0.000 F 
ATOM     26  C   UNL     1       1.655   4.414  18.530  0.00  0.00    +0.000 C 
ATOM     27  C   UNL     1       2.848   5.244  18.033  0.00  0.00    +0.000 C 
BRANCH  27  28
ATOM     28  C   UNL     1       2.503   6.681  18.065  0.00  0.00    +0.000 C 
ATOM     29  N   UNL     1       2.247   7.813  18.076  0.00  0.00    +0.000 NA
ENDBRANCH  27  28
ENDBRANCH  18  19
ENDBRANCH   3  18
TORSDOF 5
ENDMDL
MODEL 9
REMARK VINA RESULT:      -7.6      6.007      7.187
REMARK  Name = 
REMARK  6 active torsions:
REMARK  status: ('A' for Active; 'I' for Inactive)
REMARK    1  A    between atoms: C_1  and  N_2
REMARK    2  A    between atoms: C_4  and  C_5
REMARK    3  A    between atoms: N_7  and  C_8
REMARK    4  A    between atoms: C_8  and  C_9
REMARK    5  A    between atoms: C_17  and  C_18
REMARK    6  A    between atoms: C_21  and  C_22
REMARK                            x       y       z     vdW  Elec       q    Type
REMARK                         _______ _______ _______ _____ _____    ______ ____
ROOT
ATOM      1  C   UNL     1       1.996   6.390  20.371  0.00  0.00    +0.000 C 
ATOM      2  O   UNL     1       1.294   5.386  20.473  0.00  0.00    +0.000 OA
ATOM      3  N   UNL     1       3.324   6.302  20.037  0.00  0.00    +0.000 N 
ATOM      4  H   UNL     1       3.922   7.121  20.020  0.00  0.00    +0.000 HD
ENDROOT
BRANCH   1   8
ATOM      5  C   UNL     1      -0.432  10.018  22.682  0.00  0.00    +0.000 C 
ATOM      6  N   UNL     1       0.374   9.394  21.653  0.00  0.00    +0.000 N 
ATOM      7  C   UNL     1       0.797   8.093  21.750  0.00  0.00    +0.000 A 
ATOM      8  C   UNL     1       1.461   7.733  20.595  0.00  0.00    +0.000 A 
ATOM      9  C   UNL     1       1.454   8.906  19.781  0.00  0.00    +0.000 A 
ATOM     10  C   UNL     1       0.782   9.937  20.445  0.00  0.00    +0.000 A 
BRANCH  10  11
ATOM     11  C   UNL     1       0.494  11.308  19.964  0.00  0.00    +0.000 A 
ATOM     12  C   UNL     1       1.291  12.385  20.390  0.00  0.00    +0.000 A 
ATOM     13  C   UNL     1       1.055  13.689  19.931  0.00  0.00    +0.000 A 
ATOM     14  C   UNL     1       0.026  13.931  19.028  0.00  0.00    +0.000 A 
ATOM     15 CL   UNL     1      -0.250  15.523  18.438  0.00  0.00    +0.000 Cl
ATOM     16  C   UNL     1      -0.787  12.887  18.605  0.00  0.00    +0.000 A 
ATOM     17  C   UNL     1      -0.567  11.592  19.091  0.00  0.00    +0.000 A 
ENDBRANCH  10  11
ENDBRANCH   1   8
BRANCH   3  18
ATOM     18  C   UNL     1       3.935   4.999  19.858  0.00  0.00    +0.000 C 
BRANCH  18  19
ATOM     19  C   UNL     1       5.287   5.084  19.141  0.00  0.00    +0.000 C 
ATOM     20  O   UNL     1       6.265   5.594  19.693  0.00  0.00    +0.000 OA
ATOM     21  N   UNL     1       5.373   4.541  17.873  0.00  0.00    +0.000 N 
ATOM     22  C   UNL     1       6.633   4.512  17.141  0.00  0.00    +0.000 C 
ATOM     23  C   UNL     1       6.224   4.692  15.694  0.00  0.00    +0.000 C 
ATOM     24  F   UNL     1       7.097   4.126  14.839  0.00  0.00    +0.000 F 
ATOM     25  F   UNL     1       6.138   6.007  15.387  0.00  0.00    +0.000 F 
ATOM     26  C   UNL     1       4.856   4.051  15.582  0.00  0.00    +0.000 C 
ATOM     27  C   UNL     1       4.260   4.160  16.993  0.00  0.00    +0.000 C 
BRANCH  27  28
ATOM     28  C   UNL     1       3.656   2.868  17.380  0.00  0.00    +0.000 C 
ATOM     29  N   UNL     1       3.162   1.861  17.679  0.00  0.00    +0.000 NA
ENDBRANCH  27  28
ENDBRANCH  18  19
ENDBRANCH   3  18
TORSDOF 5
ENDMDL
