MODEL 1
REMARK VINA RESULT:      -8.7      0.000      0.000
REMARK  Name = 
REMARK  7 active torsions:
REMARK  status: ('A' for Active; 'I' for Inactive)
REMARK    1  A    between atoms: C_1  and  C_2
REMARK    2  A    between atoms: C_6  and  C_7
REMARK    3  A    between atoms: C_9  and  C_10
REMARK    4  A    between atoms: C_10  and  N_11
REMARK    5  A    between atoms: N_11  and  C_12
REMARK    6  A    between atoms: C_15  and  C_16
REMARK    7  A    between atoms: N_21  and  C_22
REMARK                            x       y       z     vdW  Elec       q    Type
REMARK                         _______ _______ _______ _____ _____    ______ ____
ROOT
ATOM      1  C   UNL     1       3.865   5.265  18.457  0.00  0.00    +0.000 A 
ATOM      2  N   UNL     1       5.070   4.790  18.164  0.00  0.00    +0.000 NA
ATOM      3  C   UNL     1       5.801   5.844  17.676  0.00  0.00    +0.000 A 
ATOM      4  C   UNL     1       5.058   6.998  17.732  0.00  0.00    +0.000 A 
ATOM      5  N   UNL     1       3.841   6.653  18.283  0.00  0.00    +0.000 N 
ENDROOT
BRANCH   5   6
ATOM      6  C   UNL     1       2.828   7.595  18.615  0.00  0.00    +0.000 A 
ATOM      7  C   UNL     1       2.382   8.511  17.634  0.00  0.00    +0.000 A 
ATOM      8  C   UNL     1       1.335   9.393  17.914  0.00  0.00    +0.000 A 
ATOM      9  C   UNL     1       0.778   9.349  19.173  0.00  0.00    +0.000 A 
ATOM     10  C   UNL     1       1.233   8.485  20.136  0.00  0.00    +0.000 A 
ATOM     11  C   UNL     1       2.268   7.614  19.899  0.00  0.00    +0.000 A 
ATOM     12  O   UNL     1       0.551   8.594  21.306  0.00  0.00    +0.000 OA
ATOM     13  C   UNL     1      -0.339   9.681  20.992  0.00  0.00    +0.000 C 
ATOM     14  O   UNL     1      -0.250  10.119  19.618  0.00  0.00    +0.000 OA
ENDBRANCH   5   6
BRANCH   1  20
ATOM     15  C   UNL     1       1.815   2.660  21.953  0.00  0.00    +0.000 C 
ATOM     16  C   UNL     1       1.739   3.153  20.538  0.00  0.00    +0.000 A 
ATOM     17  C   UNL     1       0.763   2.692  19.665  0.00  0.00    +0.000 A 
ATOM     18  C   UNL     1       0.767   3.155  18.351  0.00  0.00    +0.000 A 
ATOM     19  C   UNL     1       1.765   4.033  17.933  0.00  0.00    +0.000 A 
ATOM     20  C   UNL     1       2.722   4.427  18.854  0.00  0.00    +0.000 A 
ATOM     21  N   UNL     1       2.687   4.038  20.153  0.00  0.00    +0.000 NA
ENDBRANCH   1  20
BRANCH   3  22
ATOM     22  C   UNL     1       7.205   5.674  17.188  0.00  0.00    +0.000 C 
BRANCH  22  23
ATOM     23  N   UNL     1       7.421   6.004  15.777  0.00  0.00    +0.000 N 
ATOM     24  H   UNL     1       8.356   6.365  15.610  0.00  0.00    +0.000 HD
BRANCH  23  25
ATOM     25  C   UNL     1       6.984   5.102  14.806  0.00  0.00    +0.000 A 
ATOM     26  C   UNL     1       5.850   4.301  14.977  0.00  0.00    +0.000 A 
ATOM     27  C   UNL     1       5.391   3.457  13.960  0.00  0.00    +0.000 A 
ATOM     28  C   UNL     1       6.055   3.421  12.735  0.00  0.00    +0.000 A 
ATOM     29  C   UNL     1       7.165   4.242  12.531  0.00  0.00    +0.000 A 
ATOM     30  C   UNL     1       7.613   5.086  13.553  0.00  0.00    +0.000 A 
BRANCH  28  31
ATOM     31  C   UNL     1       5.591   2.559  11.695  0.00  0.00    +0.000 C 
ATOM     32  N   UNL     1       5.209   1.855  10.849  0.00  0.00    +0.000 NA
ENDBRANCH  28  31
ENDBRANCH  23  25
ENDBRANCH  22  23
ENDBRANCH   3  22
TORSDOF 6
ENDMDL
MODEL 2
REMARK VINA RESULT:      -8.6      3.936      8.124
REMARK  Name = 
REMARK  7 active torsions:
REMARK  status: ('A' for Active; 'I' for Inactive)
REMARK    1  A    between atoms: C_1  and  C_2
REMARK    2  A    between atoms: C_6  and  C_7
REMARK    3  A    between atoms: C_9  and  C_10
REMARK    4  A    between atoms: C_10  and  N_11
REMARK    5  A    between atoms: N_11  and  C_12
REMARK    6  A    between atoms: C_15  and  C_16
REMARK    7  A    between atoms: N_21  and  C_22
REMARK                            x       y       z     vdW  Elec       q    Type
REMARK                         _______ _______ _______ _____ _____    ______ ____
ROOT
ATOM      1  C   UNL     1       2.227   6.277  18.587  0.00  0.00    +0.000 A 
ATOM      2  N   UNL     1       1.312   7.200  18.859  0.00  0.00    +0.000 NA
ATOM      3  C   UNL     1       1.915   8.419  18.675  0.00  0.00    +0.000 A 
ATOM      4  C   UNL     1       3.198   8.244  18.218  0.00  0.00    +0.000 A 
ATOM      5  N   UNL     1       3.390   6.883  18.102  0.00  0.00    +0.000 N 
ENDROOT
BRANCH   5   6
ATOM      6  C   UNL     1       4.561   6.295  17.548  0.00  0.00    +0.000 A 
ATOM      7  C   UNL     1       5.509   5.691  18.407  0.00  0.00    +0.000 A 
ATOM      8  C   UNL     1       6.628   5.041  17.880  0.00  0.00    +0.000 A 
ATOM      9  C   UNL     1       6.778   5.029  16.510  0.00  0.00    +0.000 A 
ATOM     10  C   UNL     1       5.877   5.644  15.679  0.00  0.00    +0.000 A 
ATOM     11  C   UNL     1       4.774   6.304  16.164  0.00  0.00    +0.000 A 
ATOM     12  O   UNL     1       6.201   5.517  14.365  0.00  0.00    +0.000 OA
ATOM     13  C   UNL     1       7.453   4.812  14.470  0.00  0.00    +0.000 C 
ATOM     14  O   UNL     1       7.790   4.438  15.823  0.00  0.00    +0.000 OA
ENDBRANCH   5   6
BRANCH   1  20
ATOM     15  C   UNL     1       1.877   2.746  21.845  0.00  0.00    +0.000 C 
ATOM     16  C   UNL     1       1.889   3.125  20.394  0.00  0.00    +0.000 A 
ATOM     17  C   UNL     1       1.903   2.161  19.396  0.00  0.00    +0.000 A 
ATOM     18  C   UNL     1       1.955   2.574  18.066  0.00  0.00    +0.000 A 
ATOM     19  C   UNL     1       2.030   3.932  17.769  0.00  0.00    +0.000 A 
ATOM     20  C   UNL     1       2.040   4.836  18.820  0.00  0.00    +0.000 A 
ATOM     21  N   UNL     1       1.919   4.448  20.115  0.00  0.00    +0.000 NA
ENDBRANCH   1  20
BRANCH   3  22
ATOM     22  C   UNL     1       1.197   9.704  18.942  0.00  0.00    +0.000 C 
BRANCH  22  23
ATOM     23  N   UNL     1       0.477  10.268  17.797  0.00  0.00    +0.000 N 
ATOM     24  H   UNL     1       0.773   9.851  16.920  0.00  0.00    +0.000 HD
BRANCH  23  25
ATOM     25  C   UNL     1      -0.903  10.444  17.898  0.00  0.00    +0.000 A 
ATOM     26  C   UNL     1      -1.479  11.447  18.686  0.00  0.00    +0.000 A 
ATOM     27  C   UNL     1      -2.863  11.650  18.713  0.00  0.00    +0.000 A 
ATOM     28  C   UNL     1      -3.697  10.859  17.925  0.00  0.00    +0.000 A 
ATOM     29  C   UNL     1      -3.139   9.879  17.102  0.00  0.00    +0.000 A 
ATOM     30  C   UNL     1      -1.753   9.688  17.078  0.00  0.00    +0.000 A 
BRANCH  28  31
ATOM     31  C   UNL     1      -5.111  11.061  17.952  0.00  0.00    +0.000 C 
ATOM     32  N   UNL     1      -6.264  11.222  17.975  0.00  0.00    +0.000 NA
ENDBRANCH  28  31
ENDBRANCH  23  25
ENDBRANCH  22  23
ENDBRANCH   3  22
TORSDOF 6
ENDMDL
MODEL 3
REMARK VINA RESULT:      -8.5      4.013      8.220
REMARK  Name = 
REMARK  7 active torsions:
REMARK  status: ('A' for Active; 'I' for Inactive)
REMARK    1  A    between atoms: C_1  and  C_2
REMARK    2  A    between atoms: C_6  and  C_7
REMARK    3  A    between atoms: C_9  and  C_10
REMARK    4  A    between atoms: C_10  and  N_11
REMARK    5  A    between atoms: N_11  and  C_12
REMARK    6  A    between atoms: C_15  and  C_16
REMARK    7  A    between atoms: N_21  and  C_22
REMARK                            x       y       z     vdW  Elec       q    Type
REMARK                         _______ _______ _______ _____ _____    ______ ____
ROOT
ATOM      1  C   UNL     1       2.544   6.385  19.121  0.00  0.00    +0.000 A 
ATOM      2  N   UNL     1       1.559   7.240  19.369  0.00  0.00    +0.000 NA
ATOM      3  C   UNL     1       1.926   8.438  18.806  0.00  0.00    +0.000 A 
ATOM      4  C   UNL     1       3.122   8.299  18.146  0.00  0.00    +0.000 A 
ATOM      5  N   UNL     1       3.498   6.980  18.289  0.00  0.00    +0.000 N 
ENDROOT
BRANCH   5   6
ATOM      6  C   UNL     1       4.632   6.408  17.648  0.00  0.00    +0.000 A 
ATOM      7  C   UNL     1       5.787   6.115  18.410  0.00  0.00    +0.000 A 
ATOM      8  C   UNL     1       6.884   5.483  17.817  0.00  0.00    +0.000 A 
ATOM      9  C   UNL     1       6.803   5.179  16.476  0.00  0.00    +0.000 A 
ATOM     10  C   UNL     1       5.696   5.494  15.729  0.00  0.00    +0.000 A 
ATOM     11  C   UNL     1       4.607   6.127  16.276  0.00  0.00    +0.000 A 
ATOM     12  O   UNL     1       5.810   5.109  14.431  0.00  0.00    +0.000 OA
ATOM     13  C   UNL     1       7.149   4.581  14.430  0.00  0.00    +0.000 C 
ATOM     14  O   UNL     1       7.760   4.557  15.739  0.00  0.00    +0.000 OA
ENDBRANCH   5   6
BRANCH   1  20
ATOM     15  C   UNL     1       3.338   1.709  18.279  0.00  0.00    +0.000 C 
ATOM     16  C   UNL     1       2.991   2.767  19.283  0.00  0.00    +0.000 A 
ATOM     17  C   UNL     1       2.611   2.438  20.577  0.00  0.00    +0.000 A 
ATOM     18  C   UNL     1       2.261   3.463  21.453  0.00  0.00    +0.000 A 
ATOM     19  C   UNL     1       2.261   4.782  21.006  0.00  0.00    +0.000 A 
ATOM     20  C   UNL     1       2.625   5.031  19.692  0.00  0.00    +0.000 A 
ATOM     21  N   UNL     1       3.035   4.049  18.851  0.00  0.00    +0.000 NA
ENDBRANCH   1  20
BRANCH   3  22
ATOM     22  C   UNL     1       1.076   9.662  18.931  0.00  0.00    +0.000 C 
BRANCH  22  23
ATOM     23  N   UNL     1       0.352  10.047  17.716  0.00  0.00    +0.000 N 
ATOM     24  H   UNL     1       0.593   9.454  16.927  0.00  0.00    +0.000 HD
BRANCH  23  25
ATOM     25  C   UNL     1      -1.010  10.329  17.813  0.00  0.00    +0.000 A 
ATOM     26  C   UNL     1      -1.517  11.316  18.665  0.00  0.00    +0.000 A 
ATOM     27  C   UNL     1      -2.880  11.631  18.690  0.00  0.00    +0.000 A 
ATOM     28  C   UNL     1      -3.761  10.971  17.835  0.00  0.00    +0.000 A 
ATOM     29  C   UNL     1      -3.269  10.011  16.949  0.00  0.00    +0.000 A 
ATOM     30  C   UNL     1      -1.904   9.708  16.928  0.00  0.00    +0.000 A 
BRANCH  28  31
ATOM     31  C   UNL     1      -5.154  11.287  17.859  0.00  0.00    +0.000 C 
ATOM     32  N   UNL     1      -6.289  11.546  17.875  0.00  0.00    +0.000 NA
ENDBRANCH  28  31
ENDBRANCH  23  25
ENDBRANCH  22  23
ENDBRANCH   3  22
TORSDOF 6
ENDMDL
MODEL 4
REMARK VINA RESULT:      -8.4      4.022      8.379
REMARK  Name = 
REMARK  7 active torsions:
REMARK  status: ('A' for Active; 'I' for Inactive)
REMARK    1  A    between atoms: C_1  and  C_2
REMARK    2  A    between atoms: C_6  and  C_7
REMARK    3  A    between atoms: C_9  and  C_10
REMARK    4  A    between atoms: C_10  and  N_11
REMARK    5  A    between atoms: N_11  and  C_12
REMARK    6  A    between atoms: C_15  and  C_16
REMARK    7  A    between atoms: N_21  and  C_22
REMARK                            x       y       z     vdW  Elec       q    Type
REMARK                         _______ _______ _______ _____ _____    ______ ____
ROOT
ATOM      1  C   UNL     1       2.288   6.651  18.976  0.00  0.00    +0.000 A 
ATOM      2  N   UNL     1       1.365   7.600  19.081  0.00  0.00    +0.000 NA
ATOM      3  C   UNL     1       1.883   8.721  18.481  0.00  0.00    +0.000 A 
ATOM      4  C   UNL     1       3.114   8.439  17.941  0.00  0.00    +0.000 A 
ATOM      5  N   UNL     1       3.358   7.106  18.199  0.00  0.00    +0.000 N 
ENDROOT
BRANCH   5   6
ATOM      6  C   UNL     1       4.487   6.399  17.699  0.00  0.00    +0.000 A 
ATOM      7  C   UNL     1       5.279   5.637  18.588  0.00  0.00    +0.000 A 
ATOM      8  C   UNL     1       6.347   4.873  18.108  0.00  0.00    +0.000 A 
ATOM      9  C   UNL     1       6.604   4.909  16.755  0.00  0.00    +0.000 A 
ATOM     10  C   UNL     1       5.857   5.675  15.897  0.00  0.00    +0.000 A 
ATOM     11  C   UNL     1       4.810   6.447  16.337  0.00  0.00    +0.000 A 
ATOM     12  O   UNL     1       6.267   5.570  14.605  0.00  0.00    +0.000 OA
ATOM     13  C   UNL     1       7.408   4.706  14.761  0.00  0.00    +0.000 C 
ATOM     14  O   UNL     1       7.586   4.226  16.111  0.00  0.00    +0.000 OA
ENDBRANCH   5   6
BRANCH   1  20
ATOM     15  C   UNL     1       0.913   2.050  18.599  0.00  0.00    +0.000 C 
ATOM     16  C   UNL     1       1.520   3.117  19.461  0.00  0.00    +0.000 A 
ATOM     17  C   UNL     1       1.789   2.895  20.804  0.00  0.00    +0.000 A 
ATOM     18  C   UNL     1       2.315   3.937  21.563  0.00  0.00    +0.000 A 
ATOM     19  C   UNL     1       2.520   5.183  20.975  0.00  0.00    +0.000 A 
ATOM     20  C   UNL     1       2.200   5.338  19.635  0.00  0.00    +0.000 A 
ATOM     21  N   UNL     1       1.754   4.311  18.869  0.00  0.00    +0.000 NA
ENDBRANCH   1  20
BRANCH   3  22
ATOM     22  C   UNL     1       1.137  10.018  18.452  0.00  0.00    +0.000 C 
BRANCH  22  23
ATOM     23  N   UNL     1      -0.030  10.087  19.335  0.00  0.00    +0.000 N 
ATOM     24  H   UNL     1       0.203  10.478  20.243  0.00  0.00    +0.000 HD
BRANCH  23  25
ATOM     25  C   UNL     1      -1.235  10.557  18.813  0.00  0.00    +0.000 A 
ATOM     26  C   UNL     1      -1.884   9.939  17.738  0.00  0.00    +0.000 A 
ATOM     27  C   UNL     1      -3.127  10.386  17.280  0.00  0.00    +0.000 A 
ATOM     28  C   UNL     1      -3.757  11.457  17.913  0.00  0.00    +0.000 A 
ATOM     29  C   UNL     1      -3.144  12.062  19.012  0.00  0.00    +0.000 A 
ATOM     30  C   UNL     1      -1.903  11.603  19.465  0.00  0.00    +0.000 A 
BRANCH  28  31
ATOM     31  C   UNL     1      -5.025  11.918  17.446  0.00  0.00    +0.000 C 
ATOM     32  N   UNL     1      -6.058  12.299  17.066  0.00  0.00    +0.000 NA
ENDBRANCH  28  31
ENDBRANCH  23  25
ENDBRANCH  22  23
ENDBRANCH   3  22
TORSDOF 6
ENDMDL
MODEL 5
REMARK VINA RESULT:      -8.4      3.340      8.102
REMARK  Name = 
REMARK  7 active torsions:
REMARK  status: ('A' for Active; 'I' for Inactive)
REMARK    1  A    between atoms: C_1  and  C_2
REMARK    2  A    between atoms: C_6  and  C_7
REMARK    3  A    between atoms: C_9  and  C_10
REMARK    4  A    between atoms: C_10  and  N_11
REMARK    5  A    between atoms: N_11  and  C_12
REMARK    6  A    between atoms: C_15  and  C_16
REMARK    7  A    between atoms: N_21  and  C_22
REMARK                            x       y       z     vdW  Elec       q    Type
REMARK                         _______ _______ _______ _____ _____    ______ ____
ROOT
ATOM      1  C   UNL     1       3.623   7.345  17.685  0.00  0.00    +0.000 A 
ATOM      2  N   UNL     1       3.512   8.655  17.497  0.00  0.00    +0.000 NA
ATOM      3  C   UNL     1       2.243   9.003  17.889  0.00  0.00    +0.000 A 
ATOM      4  C   UNL     1       1.588   7.904  18.388  0.00  0.00    +0.000 A 
ATOM      5  N   UNL     1       2.478   6.852  18.318  0.00  0.00    +0.000 N 
ENDROOT
BRANCH   5   6
ATOM      6  C   UNL     1       2.214   5.557  18.847  0.00  0.00    +0.000 A 
ATOM      7  C   UNL     1       1.883   4.501  17.968  0.00  0.00    +0.000 A 
ATOM      8  C   UNL     1       1.695   3.205  18.457  0.00  0.00    +0.000 A 
ATOM      9  C   UNL     1       1.825   3.007  19.814  0.00  0.00    +0.000 A 
ATOM     10  C   UNL     1       2.113   4.038  20.672  0.00  0.00    +0.000 A 
ATOM     11  C   UNL     1       2.291   5.325  20.226  0.00  0.00    +0.000 A 
ATOM     12  O   UNL     1       2.204   3.636  21.967  0.00  0.00    +0.000 OA
ATOM     13  C   UNL     1       1.864   2.243  21.834  0.00  0.00    +0.000 C 
ATOM     14  O   UNL     1       1.692   1.820  20.463  0.00  0.00    +0.000 OA
ENDBRANCH   5   6
BRANCH   1  20
ATOM     15  C   UNL     1       7.902   5.457  18.841  0.00  0.00    +0.000 C 
ATOM     16  C   UNL     1       6.849   5.643  17.789  0.00  0.00    +0.000 A 
ATOM     17  C   UNL     1       7.059   5.238  16.478  0.00  0.00    +0.000 A 
ATOM     18  C   UNL     1       6.061   5.474  15.536  0.00  0.00    +0.000 A 
ATOM     19  C   UNL     1       4.899   6.142  15.916  0.00  0.00    +0.000 A 
ATOM     20  C   UNL     1       4.772   6.542  17.237  0.00  0.00    +0.000 A 
ATOM     21  N   UNL     1       5.707   6.255  18.177  0.00  0.00    +0.000 NA
ENDBRANCH   1  20
BRANCH   3  22
ATOM     22  C   UNL     1       1.736  10.405  17.769  0.00  0.00    +0.000 C 
BRANCH  22  23
ATOM     23  N   UNL     1       0.897  10.863  18.880  0.00  0.00    +0.000 N 
ATOM     24  H   UNL     1       1.290  11.679  19.341  0.00  0.00    +0.000 HD
BRANCH  23  25
ATOM     25  C   UNL     1      -0.483  10.935  18.689  0.00  0.00    +0.000 A 
ATOM     26  C   UNL     1      -1.288  11.863  19.357  0.00  0.00    +0.000 A 
ATOM     27  C   UNL     1      -2.659  11.964  19.094  0.00  0.00    +0.000 A 
ATOM     28  C   UNL     1      -3.244  11.144  18.130  0.00  0.00    +0.000 A 
ATOM     29  C   UNL     1      -2.449  10.239  17.424  0.00  0.00    +0.000 A 
ATOM     30  C   UNL     1      -1.079  10.150  17.691  0.00  0.00    +0.000 A 
BRANCH  28  31
ATOM     31  C   UNL     1      -4.643  11.242  17.860  0.00  0.00    +0.000 C 
ATOM     32  N   UNL     1      -5.783  11.326  17.640  0.00  0.00    +0.000 NA
ENDBRANCH  28  31
ENDBRANCH  23  25
ENDBRANCH  22  23
ENDBRANCH   3  22
TORSDOF 6
ENDMDL
MODEL 6
REMARK VINA RESULT:      -8.4      0.585      1.522
REMARK  Name = 
REMARK  7 active torsions:
REMARK  status: ('A' for Active; 'I' for Inactive)
REMARK    1  A    between atoms: C_1  and  C_2
REMARK    2  A    between atoms: C_6  and  C_7
REMARK    3  A    between atoms: C_9  and  C_10
REMARK    4  A    between atoms: C_10  and  N_11
REMARK    5  A    between atoms: N_11  and  C_12
REMARK    6  A    between atoms: C_15  and  C_16
REMARK    7  A    between atoms: N_21  and  C_22
REMARK                            x       y       z     vdW  Elec       q    Type
REMARK                         _______ _______ _______ _____ _____    ______ ____
ROOT
ATOM      1  C   UNL     1       3.887   5.038  18.512  0.00  0.00    +0.000 A 
ATOM      2  N   UNL     1       5.091   4.597  18.166  0.00  0.00    +0.000 NA
ATOM      3  C   UNL     1       5.794   5.686  17.714  0.00  0.00    +0.000 A 
ATOM      4  C   UNL     1       5.035   6.823  17.846  0.00  0.00    +0.000 A 
ATOM      5  N   UNL     1       3.838   6.432  18.408  0.00  0.00    +0.000 N 
ENDROOT
BRANCH   5   6
ATOM      6  C   UNL     1       2.820   7.340  18.810  0.00  0.00    +0.000 A 
ATOM      7  C   UNL     1       2.272   7.240  20.110  0.00  0.00    +0.000 A 
ATOM      8  C   UNL     1       1.326   8.169  20.553  0.00  0.00    +0.000 A 
ATOM      9  C   UNL     1       0.940   9.159  19.677  0.00  0.00    +0.000 A 
ATOM     10  C   UNL     1       1.445   9.236  18.404  0.00  0.00    +0.000 A 
ATOM     11  C   UNL     1       2.366   8.332  17.932  0.00  0.00    +0.000 A 
ATOM     12  O   UNL     1       0.942  10.284  17.700  0.00  0.00    +0.000 OA
ATOM     13  C   UNL     1       0.003  10.815  18.654  0.00  0.00    +0.000 C 
ATOM     14  O   UNL     1       0.047  10.150  19.936  0.00  0.00    +0.000 OA
ENDBRANCH   5   6
BRANCH   1  20
ATOM     15  C   UNL     1       1.757   2.548  22.043  0.00  0.00    +0.000 C 
ATOM     16  C   UNL     1       1.746   2.944  20.597  0.00  0.00    +0.000 A 
ATOM     17  C   UNL     1       0.855   2.373  19.699  0.00  0.00    +0.000 A 
ATOM     18  C   UNL     1       0.919   2.752  18.360  0.00  0.00    +0.000 A 
ATOM     19  C   UNL     1       1.893   3.656  17.945  0.00  0.00    +0.000 A 
ATOM     20  C   UNL     1       2.767   4.163  18.894  0.00  0.00    +0.000 A 
ATOM     21  N   UNL     1       2.669   3.856  20.212  0.00  0.00    +0.000 NA
ENDBRANCH   1  20
BRANCH   3  22
ATOM     22  C   UNL     1       7.188   5.562  17.185  0.00  0.00    +0.000 C 
BRANCH  22  23
ATOM     23  N   UNL     1       7.379   6.032  15.811  0.00  0.00    +0.000 N 
ATOM     24  H   UNL     1       8.305   6.425  15.668  0.00  0.00    +0.000 HD
BRANCH  23  25
ATOM     25  C   UNL     1       6.945   5.220  14.762  0.00  0.00    +0.000 A 
ATOM     26  C   UNL     1       7.644   5.111  13.555  0.00  0.00    +0.000 A 
ATOM     27  C   UNL     1       7.228   4.235  12.546  0.00  0.00    +0.000 A 
ATOM     28  C   UNL     1       6.108   3.429  12.744  0.00  0.00    +0.000 A 
ATOM     29  C   UNL     1       5.420   3.495  13.957  0.00  0.00    +0.000 A 
ATOM     30  C   UNL     1       5.848   4.371  14.961  0.00  0.00    +0.000 A 
BRANCH  28  31
ATOM     31  C   UNL     1       5.679   2.535  11.716  0.00  0.00    +0.000 C 
ATOM     32  N   UNL     1       5.332   1.804  10.879  0.00  0.00    +0.000 NA
ENDBRANCH  28  31
ENDBRANCH  23  25
ENDBRANCH  22  23
ENDBRANCH   3  22
TORSDOF 6
ENDMDL
MODEL 7
REMARK VINA RESULT:      -8.3      3.280      8.097
REMARK  Name = 
REMARK  7 active torsions:
REMARK  status: ('A' for Active; 'I' for Inactive)
REMARK    1  A    between atoms: C_1  and  C_2
REMARK    2  A    between atoms: C_6  and  C_7
REMARK    3  A    between atoms: C_9  and  C_10
REMARK    4  A    between atoms: C_10  and  N_11
REMARK    5  A    between atoms: N_11  and  C_12
REMARK    6  A    between atoms: C_15  and  C_16
REMARK    7  A    between atoms: N_21  and  C_22
REMARK                            x       y       z     vdW  Elec       q    Type
REMARK                         _______ _______ _______ _____ _____    ______ ____
ROOT
ATOM      1  C   UNL     1       3.793   7.146  17.729  0.00  0.00    +0.000 A 
ATOM      2  N   UNL     1       3.702   8.455  17.526  0.00  0.00    +0.000 NA
ATOM      3  C   UNL     1       2.430   8.822  17.889  0.00  0.00    +0.000 A 
ATOM      4  C   UNL     1       1.750   7.736  18.384  0.00  0.00    +0.000 A 
ATOM      5  N   UNL     1       2.628   6.673  18.342  0.00  0.00    +0.000 N 
ENDROOT
BRANCH   5   6
ATOM      6  C   UNL     1       2.338   5.386  18.877  0.00  0.00    +0.000 A 
ATOM      7  C   UNL     1       2.013   4.326  18.000  0.00  0.00    +0.000 A 
ATOM      8  C   UNL     1       1.799   3.037  18.497  0.00  0.00    +0.000 A 
ATOM      9  C   UNL     1       1.898   2.849  19.858  0.00  0.00    +0.000 A 
ATOM     10  C   UNL     1       2.180   3.885  20.712  0.00  0.00    +0.000 A 
ATOM     11  C   UNL     1       2.382   5.166  20.259  0.00  0.00    +0.000 A 
ATOM     12  O   UNL     1       2.237   3.494  22.013  0.00  0.00    +0.000 OA
ATOM     13  C   UNL     1       1.884   2.104  21.885  0.00  0.00    +0.000 C 
ATOM     14  O   UNL     1       1.736   1.671  20.515  0.00  0.00    +0.000 OA
ENDBRANCH   5   6
BRANCH   1  20
ATOM     15  C   UNL     1       5.697   4.346  14.301  0.00  0.00    +0.000 C 
ATOM     16  C   UNL     1       5.855   4.956  15.662  0.00  0.00    +0.000 A 
ATOM     17  C   UNL     1       6.912   4.607  16.491  0.00  0.00    +0.000 A 
ATOM     18  C   UNL     1       6.984   5.177  17.760  0.00  0.00    +0.000 A 
ATOM     19  C   UNL     1       5.981   6.045  18.184  0.00  0.00    +0.000 A 
ATOM     20  C   UNL     1       4.941   6.324  17.311  0.00  0.00    +0.000 A 
ATOM     21  N   UNL     1       4.898   5.831  16.048  0.00  0.00    +0.000 NA
ENDBRANCH   1  20
BRANCH   3  22
ATOM     22  C   UNL     1       1.942  10.229  17.746  0.00  0.00    +0.000 C 
BRANCH  22  23
ATOM     23  N   UNL     1       1.114  10.719  18.851  0.00  0.00    +0.000 N 
ATOM     24  H   UNL     1       1.541  11.511  19.322  0.00  0.00    +0.000 HD
BRANCH  23  25
ATOM     25  C   UNL     1      -0.258  10.859  18.645  0.00  0.00    +0.000 A 
ATOM     26  C   UNL     1      -1.004  11.896  19.216  0.00  0.00    +0.000 A 
ATOM     27  C   UNL     1      -2.365  12.057  18.936  0.00  0.00    +0.000 A 
ATOM     28  C   UNL     1      -3.000  11.188  18.052  0.00  0.00    +0.000 A 
ATOM     29  C   UNL     1      -2.265  10.171  17.440  0.00  0.00    +0.000 A 
ATOM     30  C   UNL     1      -0.903  10.021  17.723  0.00  0.00    +0.000 A 
BRANCH  28  31
ATOM     31  C   UNL     1      -4.390  11.347  17.765  0.00  0.00    +0.000 C 
ATOM     32  N   UNL     1      -5.524  11.474  17.530  0.00  0.00    +0.000 NA
ENDBRANCH  28  31
ENDBRANCH  23  25
ENDBRANCH  22  23
ENDBRANCH   3  22
TORSDOF 6
ENDMDL
MODEL 8
REMARK VINA RESULT:      -8.3      3.923      8.092
REMARK  Name = 
REMARK  7 active torsions:
REMARK  status: ('A' for Active; 'I' for Inactive)
REMARK    1  A    between atoms: C_1  and  C_2
REMARK    2  A    between atoms: C_6  and  C_7
REMARK    3  A    between atoms: C_9  and  C_10
REMARK    4  A    between atoms: C_10  and  N_11
REMARK    5  A    between atoms: N_11  and  C_12
REMARK    6  A    between atoms: C_15  and  C_16
REMARK    7  A    between atoms: N_21  and  C_22
REMARK                            x       y       z     vdW  Elec       q    Type
REMARK                         _______ _______ _______ _____ _____    ______ ____
ROOT
ATOM      1  C   UNL     1       2.243   6.249  19.386  0.00  0.00    +0.000 A 
ATOM      2  N   UNL     1       1.502   7.278  19.784  0.00  0.00    +0.000 NA
ATOM      3  C   UNL     1       1.898   8.360  19.037  0.00  0.00    +0.000 A 
ATOM      4  C   UNL     1       2.847   7.977  18.121  0.00  0.00    +0.000 A 
ATOM      5  N   UNL     1       3.033   6.621  18.294  0.00  0.00    +0.000 N 
ENDROOT
BRANCH   5   6
ATOM      6  C   UNL     1       3.860   5.823  17.454  0.00  0.00    +0.000 A 
ATOM      7  C   UNL     1       3.486   4.488  17.176  0.00  0.00    +0.000 A 
ATOM      8  C   UNL     1       4.241   3.711  16.293  0.00  0.00    +0.000 A 
ATOM      9  C   UNL     1       5.359   4.285  15.729  0.00  0.00    +0.000 A 
ATOM     10  C   UNL     1       5.741   5.568  16.025  0.00  0.00    +0.000 A 
ATOM     11  C   UNL     1       5.030   6.355  16.898  0.00  0.00    +0.000 A 
ATOM     12  O   UNL     1       6.866   5.949  15.364  0.00  0.00    +0.000 OA
ATOM     13  C   UNL     1       7.191   4.727  14.674  0.00  0.00    +0.000 C 
ATOM     14  O   UNL     1       6.201   3.689  14.844  0.00  0.00    +0.000 OA
ENDBRANCH   5   6
BRANCH   1  20
ATOM     15  C   UNL     1       4.736   2.232  20.308  0.00  0.00    +0.000 C 
ATOM     16  C   UNL     1       3.450   2.984  20.479  0.00  0.00    +0.000 A 
ATOM     17  C   UNL     1       2.336   2.388  21.056  0.00  0.00    +0.000 A 
ATOM     18  C   UNL     1       1.157   3.124  21.151  0.00  0.00    +0.000 A 
ATOM     19  C   UNL     1       1.108   4.417  20.635  0.00  0.00    +0.000 A 
ATOM     20  C   UNL     1       2.252   4.935  20.048  0.00  0.00    +0.000 A 
ATOM     21  N   UNL     1       3.424   4.253  20.013  0.00  0.00    +0.000 NA
ENDBRANCH   1  20
BRANCH   3  22
ATOM     22  C   UNL     1       1.314   9.721  19.247  0.00  0.00    +0.000 C 
BRANCH  22  23
ATOM     23  N   UNL     1       0.662  10.309  18.074  0.00  0.00    +0.000 N 
ATOM     24  H   UNL     1       1.005   9.906  17.207  0.00  0.00    +0.000 HD
BRANCH  23  25
ATOM     25  C   UNL     1      -0.721  10.492  18.101  0.00  0.00    +0.000 A 
ATOM     26  C   UNL     1      -1.333  11.501  18.852  0.00  0.00    +0.000 A 
ATOM     27  C   UNL     1      -2.715  11.711  18.806  0.00  0.00    +0.000 A 
ATOM     28  C   UNL     1      -3.510  10.919  17.978  0.00  0.00    +0.000 A 
ATOM     29  C   UNL     1      -2.913   9.933  17.190  0.00  0.00    +0.000 A 
ATOM     30  C   UNL     1      -1.529   9.735  17.241  0.00  0.00    +0.000 A 
BRANCH  28  31
ATOM     31  C   UNL     1      -4.922  11.128  17.929  0.00  0.00    +0.000 C 
ATOM     32  N   UNL     1      -6.074  11.300  17.893  0.00  0.00    +0.000 NA
ENDBRANCH  28  31
ENDBRANCH  23  25
ENDBRANCH  22  23
ENDBRANCH   3  22
TORSDOF 6
ENDMDL
MODEL 9
REMARK VINA RESULT:      -8.2      3.912      8.631
REMARK  Name = 
REMARK  7 active torsions:
REMARK  status: ('A' for Active; 'I' for Inactive)
REMARK    1  A    between atoms: C_1  and  C_2
REMARK    2  A    between atoms: C_6  and  C_7
REMARK    3  A    between atoms: C_9  and  C_10
REMARK    4  A    between atoms: C_10  and  N_11
REMARK    5  A    between atoms: N_11  and  C_12
REMARK    6  A    between atoms: C_15  and  C_16
REMARK    7  A    between atoms: N_21  and  C_22
REMARK                            x       y       z     vdW  Elec       q    Type
REMARK                         _______ _______ _______ _____ _____    ______ ____
ROOT
ATOM      1  C   UNL     1       2.242   6.515  18.337  0.00  0.00    +0.000 A 
ATOM      2  N   UNL     1       1.334   7.469  18.511  0.00  0.00    +0.000 NA
ATOM      3  C   UNL     1       1.959   8.661  18.242  0.00  0.00    +0.000 A 
ATOM      4  C   UNL     1       3.251   8.434  17.834  0.00  0.00    +0.000 A 
ATOM      5  N   UNL     1       3.426   7.065  17.834  0.00  0.00    +0.000 N 
ENDROOT
BRANCH   5   6
ATOM      6  C   UNL     1       4.601   6.419  17.360  0.00  0.00    +0.000 A 
ATOM      7  C   UNL     1       5.474   5.799  18.283  0.00  0.00    +0.000 A 
ATOM      8  C   UNL     1       6.594   5.093  17.834  0.00  0.00    +0.000 A 
ATOM      9  C   UNL     1       6.820   5.044  16.476  0.00  0.00    +0.000 A 
ATOM     10  C   UNL     1       5.992   5.675  15.582  0.00  0.00    +0.000 A 
ATOM     11  C   UNL     1       4.891   6.388  15.990  0.00  0.00    +0.000 A 
ATOM     12  O   UNL     1       6.383   5.505  14.291  0.00  0.00    +0.000 OA
ATOM     13  C   UNL     1       7.598   4.755  14.482  0.00  0.00    +0.000 C 
ATOM     14  O   UNL     1       7.844   4.398  15.859  0.00  0.00    +0.000 OA
ENDBRANCH   5   6
BRANCH   1  20
ATOM     15  C   UNL     1       2.162   3.200  21.831  0.00  0.00    +0.000 C 
ATOM     16  C   UNL     1       2.008   3.493  20.369  0.00  0.00    +0.000 A 
ATOM     17  C   UNL     1       1.860   2.473  19.439  0.00  0.00    +0.000 A 
ATOM     18  C   UNL     1       1.762   2.805  18.090  0.00  0.00    +0.000 A 
ATOM     19  C   UNL     1       1.854   4.139  17.700  0.00  0.00    +0.000 A 
ATOM     20  C   UNL     1       2.029   5.100  18.683  0.00  0.00    +0.000 A 
ATOM     21  N   UNL     1       2.056   4.795  20.004  0.00  0.00    +0.000 NA
ENDBRANCH   1  20
BRANCH   3  22
ATOM     22  C   UNL     1       1.254   9.972  18.386  0.00  0.00    +0.000 C 
BRANCH  22  23
ATOM     23  N   UNL     1      -0.075  10.038  17.772  0.00  0.00    +0.000 N 
ATOM     24  H   UNL     1      -0.366   9.138  17.402  0.00  0.00    +0.000 HD
BRANCH  23  25
ATOM     25  C   UNL     1      -1.087  10.724  18.443  0.00  0.00    +0.000 A 
ATOM     26  C   UNL     1      -0.870  11.394  19.652  0.00  0.00    +0.000 A 
ATOM     27  C   UNL     1      -1.883  12.136  20.269  0.00  0.00    +0.000 A 
ATOM     28  C   UNL     1      -3.134  12.240  19.664  0.00  0.00    +0.000 A 
ATOM     29  C   UNL     1      -3.359  11.612  18.437  0.00  0.00    +0.000 A 
ATOM     30  C   UNL     1      -2.337  10.877  17.827  0.00  0.00    +0.000 A 
BRANCH  28  31
ATOM     31  C   UNL     1      -4.172  12.995  20.290  0.00  0.00    +0.000 C 
ATOM     32  N   UNL     1      -5.016  13.612  20.805  0.00  0.00    +0.000 NA
ENDBRANCH  28  31
ENDBRANCH  23  25
ENDBRANCH  22  23
ENDBRANCH   3  22
TORSDOF 6
ENDMDL
