MODEL 1
REMARK VINA RESULT:      -7.6      0.000      0.000
REMARK  Name = 
REMARK  11 active torsions:
REMARK  status: ('A' for Active; 'I' for Inactive)
REMARK    1  A    between atoms: C_1  and  O_2
REMARK    2  A    between atoms: O_2  and  C_3
REMARK    3  A    between atoms: C_6  and  C_7
REMARK    4  A    between atoms: C_7  and  C_8
REMARK    5  A    between atoms: C_8  and  N_9
REMARK    6  A    between atoms: C_10  and  C_12
REMARK    7  A    between atoms: C_12  and  S_13
REMARK    8  A    between atoms: S_13  and  C_14
REMARK    9  A    between atoms: C_17  and  C_18
REMARK   10  A    between atoms: C_27  and  O_28
REMARK   11  A    between atoms: O_28  and  C_29
REMARK                            x       y       z     vdW  Elec       q    Type
REMARK                         _______ _______ _______ _____ _____    ______ ____
ROOT
ATOM      1  N   UNL     1       7.613   7.144  17.771  0.00  0.00    +0.000 N 
ATOM      2  C   UNL     1       7.379   5.906  18.350  0.00  0.00    +0.000 C 
ATOM      3  O   UNL     1       7.684   5.659  19.513  0.00  0.00    +0.000 OA
ATOM      4  H   UNL     1       7.506   7.223  16.766  0.00  0.00    +0.000 HD
ENDROOT
BRANCH   1   5
ATOM      5  C   UNL     1       8.402   8.123  18.497  0.00  0.00    +0.000 C 
BRANCH   5   6
ATOM      6  C   UNL     1       8.169   9.566  18.043  0.00  0.00    +0.000 C 
BRANCH   6  10
ATOM      7  C   UNL     1      11.128  12.369  19.520  0.00  0.00    +0.000 A 
ATOM      8  C   UNL     1      11.172  11.906  18.194  0.00  0.00    +0.000 A 
ATOM      9  C   UNL     1      10.235  10.986  17.717  0.00  0.00    +0.000 A 
ATOM     10  C   UNL     1       9.252  10.479  18.569  0.00  0.00    +0.000 A 
ATOM     11  C   UNL     1       9.256  10.885  19.910  0.00  0.00    +0.000 A 
ATOM     12  C   UNL     1      10.188  11.816  20.402  0.00  0.00    +0.000 A 
BRANCH   7  14
ATOM     13  C   UNL     1      11.542  14.677  19.847  0.00  0.00    +0.000 C 
ATOM     14  O   UNL     1      11.998  13.329  19.964  0.00  0.00    +0.000 OA
ENDBRANCH   7  14
BRANCH  12  15
ATOM     15  O   UNL     1      10.001  12.072  21.735  0.00  0.00    +0.000 OA
ATOM     16  C   UNL     1       8.793  12.682  22.162  0.00  0.00    +0.000 C 
ENDBRANCH  12  15
ENDBRANCH   6  10
ENDBRANCH   5   6
ENDBRANCH   1   5
BRANCH   2  17
ATOM     17  C   UNL     1       6.619   4.908  17.492  0.00  0.00    +0.000 C 
BRANCH  17  18
ATOM     18  S   UNL     1       5.284   4.084  18.413  0.00  0.00    +0.000 S 
BRANCH  18  19
ATOM     19  C   UNL     1       4.127   5.425  18.608  0.00  0.00    +0.000 A 
ATOM     20  C   UNL     1       4.052   6.385  17.617  0.00  0.00    +0.000 A 
ATOM     21  C   UNL     1       3.179   7.460  17.780  0.00  0.00    +0.000 A 
ATOM     22  C   UNL     1       2.411   7.560  18.933  0.00  0.00    +0.000 A 
ATOM     23  N   UNL     1       2.527   6.614  19.897  0.00  0.00    +0.000 NA
ATOM     24  N   UNL     1       3.392   5.537  19.730  0.00  0.00    +0.000 NA
BRANCH  22  25
ATOM     25  C   UNL     1       1.482   8.681  19.186  0.00  0.00    +0.000 A 
ATOM     26  C   UNL     1       1.056   9.539  18.152  0.00  0.00    +0.000 A 
ATOM     27  C   UNL     1       0.213  10.628  18.402  0.00  0.00    +0.000 A 
ATOM     28  C   UNL     1      -0.233  10.882  19.694  0.00  0.00    +0.000 A 
ATOM     29  C   UNL     1       0.157  10.040  20.734  0.00  0.00    +0.000 A 
ATOM     30  C   UNL     1       0.999   8.952  20.481  0.00  0.00    +0.000 A 
ENDBRANCH  22  25
ENDBRANCH  18  19
ENDBRANCH  17  18
ENDBRANCH   2  17
TORSDOF 9
ENDMDL
MODEL 2
REMARK VINA RESULT:      -7.4      6.650     11.934
REMARK  Name = 
REMARK  11 active torsions:
REMARK  status: ('A' for Active; 'I' for Inactive)
REMARK    1  A    between atoms: C_1  and  O_2
REMARK    2  A    between atoms: O_2  and  C_3
REMARK    3  A    between atoms: C_6  and  C_7
REMARK    4  A    between atoms: C_7  and  C_8
REMARK    5  A    between atoms: C_8  and  N_9
REMARK    6  A    between atoms: C_10  and  C_12
REMARK    7  A    between atoms: C_12  and  S_13
REMARK    8  A    between atoms: S_13  and  C_14
REMARK    9  A    between atoms: C_17  and  C_18
REMARK   10  A    between atoms: C_27  and  O_28
REMARK   11  A    between atoms: O_28  and  C_29
REMARK                            x       y       z     vdW  Elec       q    Type
REMARK                         _______ _______ _______ _____ _____    ______ ____
ROOT
ATOM      1  N   UNL     1      -2.694  11.770  17.161  0.00  0.00    +0.000 N 
ATOM      2  C   UNL     1      -1.853  10.986  17.936  0.00  0.00    +0.000 C 
ATOM      3  O   UNL     1      -2.056   9.790  18.119  0.00  0.00    +0.000 OA
ATOM      4  H   UNL     1      -2.573  12.776  17.200  0.00  0.00    +0.000 HD
ENDROOT
BRANCH   1   5
ATOM      5  C   UNL     1      -3.949  11.207  16.693  0.00  0.00    +0.000 C 
BRANCH   5   6
ATOM      6  C   UNL     1      -5.175  12.056  17.034  0.00  0.00    +0.000 C 
BRANCH   6  10
ATOM      7  C   UNL     1      -6.265  11.983  21.229  0.00  0.00    +0.000 A 
ATOM      8  C   UNL     1      -5.195  12.773  20.776  0.00  0.00    +0.000 A 
ATOM      9  C   UNL     1      -4.824  12.786  19.429  0.00  0.00    +0.000 A 
ATOM     10  C   UNL     1      -5.493  11.977  18.509  0.00  0.00    +0.000 A 
ATOM     11  C   UNL     1      -6.510  11.134  18.976  0.00  0.00    +0.000 A 
ATOM     12  C   UNL     1      -6.900  11.116  20.327  0.00  0.00    +0.000 A 
BRANCH   7  14
ATOM     13  C   UNL     1      -7.639  13.042  22.841  0.00  0.00    +0.000 C 
ATOM     14  O   UNL     1      -6.678  12.031  22.534  0.00  0.00    +0.000 OA
ENDBRANCH   7  14
BRANCH  12  15
ATOM     15  O   UNL     1      -7.915  10.225  20.556  0.00  0.00    +0.000 OA
ATOM     16  C   UNL     1      -7.629   8.836  20.573  0.00  0.00    +0.000 C 
ENDBRANCH  12  15
ENDBRANCH   6  10
ENDBRANCH   5   6
ENDBRANCH   1   5
BRANCH   2  17
ATOM     17  C   UNL     1      -0.603  11.676  18.458  0.00  0.00    +0.000 C 
BRANCH  17  18
ATOM     18  S   UNL     1      -0.050  10.986  20.048  0.00  0.00    +0.000 S 
BRANCH  18  19
ATOM     19  C   UNL     1       1.016   9.669  19.497  0.00  0.00    +0.000 A 
ATOM     20  C   UNL     1       1.514   9.714  18.208  0.00  0.00    +0.000 A 
ATOM     21  C   UNL     1       2.315   8.668  17.754  0.00  0.00    +0.000 A 
ATOM     22  C   UNL     1       2.591   7.594  18.590  0.00  0.00    +0.000 A 
ATOM     23  N   UNL     1       2.066   7.568  19.840  0.00  0.00    +0.000 NA
ATOM     24  N   UNL     1       1.274   8.617  20.296  0.00  0.00    +0.000 NA
BRANCH  22  25
ATOM     25  C   UNL     1       3.412   6.439  18.172  0.00  0.00    +0.000 A 
ATOM     26  C   UNL     1       3.445   5.244  18.919  0.00  0.00    +0.000 A 
ATOM     27  C   UNL     1       4.259   4.168  18.546  0.00  0.00    +0.000 A 
ATOM     28  C   UNL     1       5.057   4.257  17.411  0.00  0.00    +0.000 A 
ATOM     29  C   UNL     1       5.031   5.419  16.643  0.00  0.00    +0.000 A 
ATOM     30  C   UNL     1       4.216   6.493  17.017  0.00  0.00    +0.000 A 
ENDBRANCH  22  25
ENDBRANCH  18  19
ENDBRANCH  17  18
ENDBRANCH   2  17
TORSDOF 9
ENDMDL
MODEL 3
REMARK VINA RESULT:      -7.3      4.094      6.888
REMARK  Name = 
REMARK  11 active torsions:
REMARK  status: ('A' for Active; 'I' for Inactive)
REMARK    1  A    between atoms: C_1  and  O_2
REMARK    2  A    between atoms: O_2  and  C_3
REMARK    3  A    between atoms: C_6  and  C_7
REMARK    4  A    between atoms: C_7  and  C_8
REMARK    5  A    between atoms: C_8  and  N_9
REMARK    6  A    between atoms: C_10  and  C_12
REMARK    7  A    between atoms: C_12  and  S_13
REMARK    8  A    between atoms: S_13  and  C_14
REMARK    9  A    between atoms: C_17  and  C_18
REMARK   10  A    between atoms: C_27  and  O_28
REMARK   11  A    between atoms: O_28  and  C_29
REMARK                            x       y       z     vdW  Elec       q    Type
REMARK                         _______ _______ _______ _____ _____    ______ ____
ROOT
ATOM      1  N   UNL     1       2.214   4.609  18.609  0.00  0.00    +0.000 N 
ATOM      2  C   UNL     1       1.943   4.516  19.965  0.00  0.00    +0.000 C 
ATOM      3  O   UNL     1       1.947   3.444  20.563  0.00  0.00    +0.000 OA
ATOM      4  H   UNL     1       2.017   5.489  18.146  0.00  0.00    +0.000 HD
ENDROOT
BRANCH   1   5
ATOM      5  C   UNL     1       2.333   3.389  17.829  0.00  0.00    +0.000 C 
BRANCH   5   6
ATOM      6  C   UNL     1       3.754   2.824  17.775  0.00  0.00    +0.000 C 
BRANCH   6  10
ATOM      7  C   UNL     1       6.823   5.819  17.146  0.00  0.00    +0.000 A 
ATOM      8  C   UNL     1       6.409   5.474  18.443  0.00  0.00    +0.000 A 
ATOM      9  C   UNL     1       5.405   4.525  18.653  0.00  0.00    +0.000 A 
ATOM     10  C   UNL     1       4.766   3.926  17.566  0.00  0.00    +0.000 A 
ATOM     11  C   UNL     1       5.129   4.327  16.274  0.00  0.00    +0.000 A 
ATOM     12  C   UNL     1       6.143   5.275  16.047  0.00  0.00    +0.000 A 
BRANCH   7  14
ATOM     13  C   UNL     1       7.659   8.016  17.433  0.00  0.00    +0.000 C 
ATOM     14  O   UNL     1       7.861   6.690  16.943  0.00  0.00    +0.000 OA
ENDBRANCH   7  14
BRANCH  12  15
ATOM     15  O   UNL     1       6.336   5.508  14.710  0.00  0.00    +0.000 OA
ATOM     16  C   UNL     1       6.440   4.407  13.822  0.00  0.00    +0.000 C 
ENDBRANCH  12  15
ENDBRANCH   6  10
ENDBRANCH   5   6
ENDBRANCH   1   5
BRANCH   2  17
ATOM     17  C   UNL     1       1.749   5.838  20.692  0.00  0.00    +0.000 C 
BRANCH  17  18
ATOM     18  S   UNL     1       2.323   7.255  19.706  0.00  0.00    +0.000 S 
BRANCH  18  19
ATOM     19  C   UNL     1       1.379   8.580  20.431  0.00  0.00    +0.000 A 
ATOM     20  C   UNL     1       0.832   9.538  19.598  0.00  0.00    +0.000 A 
ATOM     21  C   UNL     1       0.126  10.601  20.159  0.00  0.00    +0.000 A 
ATOM     22  C   UNL     1      -0.008  10.692  21.538  0.00  0.00    +0.000 A 
ATOM     23  N   UNL     1       0.562   9.750  22.329  0.00  0.00    +0.000 NA
ATOM     24  N   UNL     1       1.259   8.684  21.768  0.00  0.00    +0.000 NA
BRANCH  22  25
ATOM     25  C   UNL     1      -0.721  11.801  22.206  0.00  0.00    +0.000 A 
ATOM     26  C   UNL     1      -0.266  13.132  22.122  0.00  0.00    +0.000 A 
ATOM     27  C   UNL     1      -0.917  14.174  22.793  0.00  0.00    +0.000 A 
ATOM     28  C   UNL     1      -2.046  13.911  23.560  0.00  0.00    +0.000 A 
ATOM     29  C   UNL     1      -2.530  12.607  23.646  0.00  0.00    +0.000 A 
ATOM     30  C   UNL     1      -1.878  11.568  22.974  0.00  0.00    +0.000 A 
ENDBRANCH  22  25
ENDBRANCH  18  19
ENDBRANCH  17  18
ENDBRANCH   2  17
TORSDOF 9
ENDMDL
MODEL 4
REMARK VINA RESULT:      -7.3      1.815      2.127
REMARK  Name = 
REMARK  11 active torsions:
REMARK  status: ('A' for Active; 'I' for Inactive)
REMARK    1  A    between atoms: C_1  and  O_2
REMARK    2  A    between atoms: O_2  and  C_3
REMARK    3  A    between atoms: C_6  and  C_7
REMARK    4  A    between atoms: C_7  and  C_8
REMARK    5  A    between atoms: C_8  and  N_9
REMARK    6  A    between atoms: C_10  and  C_12
REMARK    7  A    between atoms: C_12  and  S_13
REMARK    8  A    between atoms: S_13  and  C_14
REMARK    9  A    between atoms: C_17  and  C_18
REMARK   10  A    between atoms: C_27  and  O_28
REMARK   11  A    between atoms: O_28  and  C_29
REMARK                            x       y       z     vdW  Elec       q    Type
REMARK                         _______ _______ _______ _____ _____    ______ ____
ROOT
ATOM      1  N   UNL     1       7.687   7.113  18.306  0.00  0.00    +0.000 N 
ATOM      2  C   UNL     1       7.392   6.214  17.292  0.00  0.00    +0.000 C 
ATOM      3  O   UNL     1       7.601   6.468  16.110  0.00  0.00    +0.000 OA
ATOM      4  H   UNL     1       7.325   6.917  19.232  0.00  0.00    +0.000 HD
ENDROOT
BRANCH   1   5
ATOM      5  C   UNL     1       8.091   8.463  17.954  0.00  0.00    +0.000 C 
BRANCH   5   6
ATOM      6  C   UNL     1       9.017   9.121  18.980  0.00  0.00    +0.000 C 
BRANCH   6  10
ATOM      7  C   UNL     1       8.911  13.435  18.576  0.00  0.00    +0.000 A 
ATOM      8  C   UNL     1       8.452  12.604  17.542  0.00  0.00    +0.000 A 
ATOM      9  C   UNL     1       8.503  11.212  17.656  0.00  0.00    +0.000 A 
ATOM     10  C   UNL     1       9.050  10.620  18.795  0.00  0.00    +0.000 A 
ATOM     11  C   UNL     1       9.576  11.451  19.793  0.00  0.00    +0.000 A 
ATOM     12  C   UNL     1       9.524  12.853  19.696  0.00  0.00    +0.000 A 
BRANCH   7  14
ATOM     13  C   UNL     1       7.625  15.275  17.821  0.00  0.00    +0.000 C 
ATOM     14  O   UNL     1       8.789  14.797  18.497  0.00  0.00    +0.000 OA
ENDBRANCH   7  14
BRANCH  12  15
ATOM     15  O   UNL     1      10.088  13.462  20.786  0.00  0.00    +0.000 OA
ATOM     16  C   UNL     1       9.433  13.382  22.042  0.00  0.00    +0.000 C 
ENDBRANCH  12  15
ENDBRANCH   6  10
ENDBRANCH   5   6
ENDBRANCH   1   5
BRANCH   2  17
ATOM     17  C   UNL     1       6.895   4.850  17.743  0.00  0.00    +0.000 C 
BRANCH  17  18
ATOM     18  S   UNL     1       5.275   4.436  17.026  0.00  0.00    +0.000 S 
BRANCH  18  19
ATOM     19  C   UNL     1       4.217   5.576  17.894  0.00  0.00    +0.000 A 
ATOM     20  C   UNL     1       3.619   5.162  19.070  0.00  0.00    +0.000 A 
ATOM     21  C   UNL     1       2.757   6.033  19.735  0.00  0.00    +0.000 A 
ATOM     22  C   UNL     1       2.499   7.291  19.205  0.00  0.00    +0.000 A 
ATOM     23  N   UNL     1       3.082   7.656  18.037  0.00  0.00    +0.000 NA
ATOM     24  N   UNL     1       3.950   6.790  17.379  0.00  0.00    +0.000 NA
BRANCH  22  25
ATOM     25  C   UNL     1       1.580   8.258  19.841  0.00  0.00    +0.000 A 
ATOM     26  C   UNL     1       1.085   8.063  21.145  0.00  0.00    +0.000 A 
ATOM     27  C   UNL     1       0.179   8.957  21.728  0.00  0.00    +0.000 A 
ATOM     28  C   UNL     1      -0.251  10.074  21.021  0.00  0.00    +0.000 A 
ATOM     29  C   UNL     1       0.235  10.302  19.735  0.00  0.00    +0.000 A 
ATOM     30  C   UNL     1       1.143   9.408  19.156  0.00  0.00    +0.000 A 
ENDBRANCH  22  25
ENDBRANCH  18  19
ENDBRANCH  17  18
ENDBRANCH   2  17
TORSDOF 9
ENDMDL
MODEL 5
REMARK VINA RESULT:      -7.2      4.127      7.565
REMARK  Name = 
REMARK  11 active torsions:
REMARK  status: ('A' for Active; 'I' for Inactive)
REMARK    1  A    between atoms: C_1  and  O_2
REMARK    2  A    between atoms: O_2  and  C_3
REMARK    3  A    between atoms: C_6  and  C_7
REMARK    4  A    between atoms: C_7  and  C_8
REMARK    5  A    between atoms: C_8  and  N_9
REMARK    6  A    between atoms: C_10  and  C_12
REMARK    7  A    between atoms: C_12  and  S_13
REMARK    8  A    between atoms: S_13  and  C_14
REMARK    9  A    between atoms: C_17  and  C_18
REMARK   10  A    between atoms: C_27  and  O_28
REMARK   11  A    between atoms: O_28  and  C_29
REMARK                            x       y       z     vdW  Elec       q    Type
REMARK                         _______ _______ _______ _____ _____    ______ ____
ROOT
ATOM      1  N   UNL     1       2.632   7.039  18.273  0.00  0.00    +0.000 N 
ATOM      2  C   UNL     1       1.986   8.167  18.755  0.00  0.00    +0.000 C 
ATOM      3  O   UNL     1       1.621   8.264  19.923  0.00  0.00    +0.000 OA
ATOM      4  H   UNL     1       2.741   6.949  17.269  0.00  0.00    +0.000 HD
ENDROOT
BRANCH   1   5
ATOM      5  C   UNL     1       2.725   5.864  19.122  0.00  0.00    +0.000 C 
BRANCH   5   6
ATOM      6  C   UNL     1       4.161   5.437  19.434  0.00  0.00    +0.000 C 
BRANCH   6  10
ATOM      7  C   UNL     1       6.329   5.123  15.693  0.00  0.00    +0.000 A 
ATOM      8  C   UNL     1       5.303   4.217  16.010  0.00  0.00    +0.000 A 
ATOM      9  C   UNL     1       4.615   4.299  17.223  0.00  0.00    +0.000 A 
ATOM     10  C   UNL     1       4.963   5.268  18.165  0.00  0.00    +0.000 A 
ATOM     11  C   UNL     1       6.035   6.123  17.878  0.00  0.00    +0.000 A 
ATOM     12  C   UNL     1       6.732   6.058  16.658  0.00  0.00    +0.000 A 
BRANCH   7  14
ATOM     13  C   UNL     1       6.448   4.125  13.549  0.00  0.00    +0.000 C 
ATOM     14  O   UNL     1       6.949   5.092  14.473  0.00  0.00    +0.000 OA
ENDBRANCH   7  14
BRANCH  12  15
ATOM     15  O   UNL     1       7.734   6.990  16.591  0.00  0.00    +0.000 OA
ATOM     16  C   UNL     1       7.810   8.000  17.585  0.00  0.00    +0.000 C 
ENDBRANCH  12  15
ENDBRANCH   6  10
ENDBRANCH   5   6
ENDBRANCH   1   5
BRANCH   2  17
ATOM     17  C   UNL     1       1.855   9.322  17.776  0.00  0.00    +0.000 C 
BRANCH  17  18
ATOM     18  S   UNL     1       1.784  10.933  18.619  0.00  0.00    +0.000 S 
BRANCH  18  19
ATOM     19  C   UNL     1       0.027  11.225  18.651  0.00  0.00    +0.000 A 
ATOM     20  C   UNL     1      -0.449  12.330  19.331  0.00  0.00    +0.000 A 
ATOM     21  C   UNL     1      -1.825  12.544  19.396  0.00  0.00    +0.000 A 
ATOM     22  C   UNL     1      -2.695  11.645  18.794  0.00  0.00    +0.000 A 
ATOM     23  N   UNL     1      -2.197  10.558  18.157  0.00  0.00    +0.000 NA
ATOM     24  N   UNL     1      -0.823  10.349  18.084  0.00  0.00    +0.000 NA
BRANCH  22  25
ATOM     25  C   UNL     1      -4.165  11.794  18.841  0.00  0.00    +0.000 A 
ATOM     26  C   UNL     1      -4.816  12.377  19.946  0.00  0.00    +0.000 A 
ATOM     27  C   UNL     1      -6.211  12.475  20.009  0.00  0.00    +0.000 A 
ATOM     28  C   UNL     1      -6.991  11.997  18.963  0.00  0.00    +0.000 A 
ATOM     29  C   UNL     1      -6.374  11.431  17.849  0.00  0.00    +0.000 A 
ATOM     30  C   UNL     1      -4.979  11.336  17.788  0.00  0.00    +0.000 A 
ENDBRANCH  22  25
ENDBRANCH  18  19
ENDBRANCH  17  18
ENDBRANCH   2  17
TORSDOF 9
ENDMDL
MODEL 6
REMARK VINA RESULT:      -7.1      4.723      7.418
REMARK  Name = 
REMARK  11 active torsions:
REMARK  status: ('A' for Active; 'I' for Inactive)
REMARK    1  A    between atoms: C_1  and  O_2
REMARK    2  A    between atoms: O_2  and  C_3
REMARK    3  A    between atoms: C_6  and  C_7
REMARK    4  A    between atoms: C_7  and  C_8
REMARK    5  A    between atoms: C_8  and  N_9
REMARK    6  A    between atoms: C_10  and  C_12
REMARK    7  A    between atoms: C_12  and  S_13
REMARK    8  A    between atoms: S_13  and  C_14
REMARK    9  A    between atoms: C_17  and  C_18
REMARK   10  A    between atoms: C_27  and  O_28
REMARK   11  A    between atoms: O_28  and  C_29
REMARK                            x       y       z     vdW  Elec       q    Type
REMARK                         _______ _______ _______ _____ _____    ______ ____
ROOT
ATOM      1  N   UNL     1       2.998   5.609  20.064  0.00  0.00    +0.000 N 
ATOM      2  C   UNL     1       1.793   5.406  20.720  0.00  0.00    +0.000 C 
ATOM      3  O   UNL     1       1.472   4.313  21.176  0.00  0.00    +0.000 OA
ATOM      4  H   UNL     1       3.120   6.479  19.557  0.00  0.00    +0.000 HD
ENDROOT
BRANCH   1   5
ATOM      5  C   UNL     1       3.830   4.461  19.748  0.00  0.00    +0.000 C 
BRANCH   5   6
ATOM      6  C   UNL     1       3.567   3.868  18.362  0.00  0.00    +0.000 C 
BRANCH   6  10
ATOM      7  C   UNL     1       6.792   4.880  15.648  0.00  0.00    +0.000 A 
ATOM      8  C   UNL     1       5.685   4.138  15.206  0.00  0.00    +0.000 A 
ATOM      9  C   UNL     1       4.651   3.790  16.080  0.00  0.00    +0.000 A 
ATOM     10  C   UNL     1       4.721   4.145  17.427  0.00  0.00    +0.000 A 
ATOM     11  C   UNL     1       5.862   4.820  17.882  0.00  0.00    +0.000 A 
ATOM     12  C   UNL     1       6.906   5.185  17.012  0.00  0.00    +0.000 A 
BRANCH   7  14
ATOM     13  C   UNL     1       7.559   4.931  13.408  0.00  0.00    +0.000 C 
ATOM     14  O   UNL     1       7.765   5.289  14.775  0.00  0.00    +0.000 OA
ENDBRANCH   7  14
BRANCH  12  15
ATOM     15  O   UNL     1       7.913   5.842  17.670  0.00  0.00    +0.000 OA
ATOM     16  C   UNL     1       7.877   5.928  19.086  0.00  0.00    +0.000 C 
ENDBRANCH  12  15
ENDBRANCH   6  10
ENDBRANCH   5   6
ENDBRANCH   1   5
BRANCH   2  17
ATOM     17  C   UNL     1       0.943   6.647  20.937  0.00  0.00    +0.000 C 
BRANCH  17  18
ATOM     18  S   UNL     1       1.905   8.181  20.760  0.00  0.00    +0.000 S 
BRANCH  18  19
ATOM     19  C   UNL     1       0.786   9.371  21.471  0.00  0.00    +0.000 A 
ATOM     20  C   UNL     1       0.052  10.178  20.623  0.00  0.00    +0.000 A 
ATOM     21  C   UNL     1      -0.797  11.140  21.169  0.00  0.00    +0.000 A 
ATOM     22  C   UNL     1      -0.883  11.284  22.548  0.00  0.00    +0.000 A 
ATOM     23  N   UNL     1      -0.131  10.493  23.351  0.00  0.00    +0.000 NA
ATOM     24  N   UNL     1       0.709   9.527  22.805  0.00  0.00    +0.000 NA
BRANCH  22  25
ATOM     25  C   UNL     1      -1.742  12.296  23.199  0.00  0.00    +0.000 A 
ATOM     26  C   UNL     1      -3.047  11.991  23.634  0.00  0.00    +0.000 A 
ATOM     27  C   UNL     1      -3.875  12.962  24.208  0.00  0.00    +0.000 A 
ATOM     28  C   UNL     1      -3.415  14.264  24.369  0.00  0.00    +0.000 A 
ATOM     29  C   UNL     1      -2.122  14.591  23.965  0.00  0.00    +0.000 A 
ATOM     30  C   UNL     1      -1.296  13.617  23.392  0.00  0.00    +0.000 A 
ENDBRANCH  22  25
ENDBRANCH  18  19
ENDBRANCH  17  18
ENDBRANCH   2  17
TORSDOF 9
ENDMDL
MODEL 7
REMARK VINA RESULT:      -7.1      1.775      2.266
REMARK  Name = 
REMARK  11 active torsions:
REMARK  status: ('A' for Active; 'I' for Inactive)
REMARK    1  A    between atoms: C_1  and  O_2
REMARK    2  A    between atoms: O_2  and  C_3
REMARK    3  A    between atoms: C_6  and  C_7
REMARK    4  A    between atoms: C_7  and  C_8
REMARK    5  A    between atoms: C_8  and  N_9
REMARK    6  A    between atoms: C_10  and  C_12
REMARK    7  A    between atoms: C_12  and  S_13
REMARK    8  A    between atoms: S_13  and  C_14
REMARK    9  A    between atoms: C_17  and  C_18
REMARK   10  A    between atoms: C_27  and  O_28
REMARK   11  A    between atoms: O_28  and  C_29
REMARK                            x       y       z     vdW  Elec       q    Type
REMARK                         _______ _______ _______ _____ _____    ______ ____
ROOT
ATOM      1  N   UNL     1       6.621   7.364  17.698  0.00  0.00    +0.000 N 
ATOM      2  C   UNL     1       6.577   6.490  16.623  0.00  0.00    +0.000 C 
ATOM      3  O   UNL     1       7.594   6.065  16.083  0.00  0.00    +0.000 OA
ATOM      4  H   UNL     1       5.756   7.815  17.977  0.00  0.00    +0.000 HD
ENDROOT
BRANCH   1   5
ATOM      5  C   UNL     1       7.897   7.936  18.090  0.00  0.00    +0.000 C 
BRANCH   5   6
ATOM      6  C   UNL     1       8.248   9.232  17.356  0.00  0.00    +0.000 C 
BRANCH   6  10
ATOM      7  C   UNL     1       9.807  12.273  20.023  0.00  0.00    +0.000 A 
ATOM      8  C   UNL     1       9.781  10.922  20.407  0.00  0.00    +0.000 A 
ATOM      9  C   UNL     1       9.260   9.939  19.562  0.00  0.00    +0.000 A 
ATOM     10  C   UNL     1       8.718  10.292  18.325  0.00  0.00    +0.000 A 
ATOM     11  C   UNL     1       8.677  11.648  17.976  0.00  0.00    +0.000 A 
ATOM     12  C   UNL     1       9.205  12.648  18.813  0.00  0.00    +0.000 A 
BRANCH   7  14
ATOM     13  C   UNL     1       9.534  13.820  21.795  0.00  0.00    +0.000 C 
ATOM     14  O   UNL     1      10.389  13.225  20.818  0.00  0.00    +0.000 OA
ENDBRANCH   7  14
BRANCH  12  15
ATOM     15  O   UNL     1       9.064  13.897  18.268  0.00  0.00    +0.000 OA
ATOM     16  C   UNL     1       7.777  14.336  17.861  0.00  0.00    +0.000 C 
ENDBRANCH  12  15
ENDBRANCH   6  10
ENDBRANCH   5   6
ENDBRANCH   1   5
BRANCH   2  17
ATOM     17  C   UNL     1       5.194   6.004  16.223  0.00  0.00    +0.000 C 
BRANCH  17  18
ATOM     18  S   UNL     1       4.474   4.884  17.462  0.00  0.00    +0.000 S 
BRANCH  18  19
ATOM     19  C   UNL     1       3.496   6.022  18.423  0.00  0.00    +0.000 A 
ATOM     20  C   UNL     1       2.890   5.564  19.578  0.00  0.00    +0.000 A 
ATOM     21  C   UNL     1       2.090   6.436  20.315  0.00  0.00    +0.000 A 
ATOM     22  C   UNL     1       1.901   7.740  19.877  0.00  0.00    +0.000 A 
ATOM     23  N   UNL     1       2.489   8.150  18.727  0.00  0.00    +0.000 NA
ATOM     24  N   UNL     1       3.295   7.282  17.996  0.00  0.00    +0.000 NA
BRANCH  22  25
ATOM     25  C   UNL     1       1.049   8.713  20.592  0.00  0.00    +0.000 A 
ATOM     26  C   UNL     1       0.307   9.694  19.904  0.00  0.00    +0.000 A 
ATOM     27  C   UNL     1      -0.463  10.644  20.585  0.00  0.00    +0.000 A 
ATOM     28  C   UNL     1      -0.515  10.633  21.974  0.00  0.00    +0.000 A 
ATOM     29  C   UNL     1       0.194   9.664  22.681  0.00  0.00    +0.000 A 
ATOM     30  C   UNL     1       0.962   8.714  21.997  0.00  0.00    +0.000 A 
ENDBRANCH  22  25
ENDBRANCH  18  19
ENDBRANCH  17  18
ENDBRANCH   2  17
TORSDOF 9
ENDMDL
MODEL 8
REMARK VINA RESULT:      -7.1      4.477      7.227
REMARK  Name = 
REMARK  11 active torsions:
REMARK  status: ('A' for Active; 'I' for Inactive)
REMARK    1  A    between atoms: C_1  and  O_2
REMARK    2  A    between atoms: O_2  and  C_3
REMARK    3  A    between atoms: C_6  and  C_7
REMARK    4  A    between atoms: C_7  and  C_8
REMARK    5  A    between atoms: C_8  and  N_9
REMARK    6  A    between atoms: C_10  and  C_12
REMARK    7  A    between atoms: C_12  and  S_13
REMARK    8  A    between atoms: S_13  and  C_14
REMARK    9  A    between atoms: C_17  and  C_18
REMARK   10  A    between atoms: C_27  and  O_28
REMARK   11  A    between atoms: O_28  and  C_29
REMARK                            x       y       z     vdW  Elec       q    Type
REMARK                         _______ _______ _______ _____ _____    ______ ____
ROOT
ATOM      1  N   UNL     1       1.889   4.317  18.753  0.00  0.00    +0.000 N 
ATOM      2  C   UNL     1       1.424   4.306  20.059  0.00  0.00    +0.000 C 
ATOM      3  O   UNL     1       1.115   3.268  20.636  0.00  0.00    +0.000 OA
ATOM      4  H   UNL     1       1.951   5.212  18.280  0.00  0.00    +0.000 HD
ENDROOT
BRANCH   1   5
ATOM      5  C   UNL     1       1.846   3.089  17.979  0.00  0.00    +0.000 C 
BRANCH   5   6
ATOM      6  C   UNL     1       3.204   2.398  17.837  0.00  0.00    +0.000 C 
BRANCH   6  10
ATOM      7  C   UNL     1       6.560   5.129  17.584  0.00  0.00    +0.000 A 
ATOM      8  C   UNL     1       5.987   4.806  18.824  0.00  0.00    +0.000 A 
ATOM      9  C   UNL     1       4.891   3.943  18.912  0.00  0.00    +0.000 A 
ATOM     10  C   UNL     1       4.320   3.412  17.754  0.00  0.00    +0.000 A 
ATOM     11  C   UNL     1       4.847   3.795  16.514  0.00  0.00    +0.000 A 
ATOM     12  C   UNL     1       5.955   4.656  16.410  0.00  0.00    +0.000 A 
BRANCH   7  14
ATOM     13  C   UNL     1       7.450   7.318  17.430  0.00  0.00    +0.000 C 
ATOM     14  O   UNL     1       7.682   5.911  17.504  0.00  0.00    +0.000 OA
ENDBRANCH   7  14
BRANCH  12  15
ATOM     15  O   UNL     1       6.303   4.887  15.105  0.00  0.00    +0.000 OA
ATOM     16  C   UNL     1       5.560   4.266  14.068  0.00  0.00    +0.000 C 
ENDBRANCH  12  15
ENDBRANCH   6  10
ENDBRANCH   5   6
ENDBRANCH   1   5
BRANCH   2  17
ATOM     17  C   UNL     1       1.423   5.649  20.771  0.00  0.00    +0.000 C 
BRANCH  17  18
ATOM     18  S   UNL     1       2.167   6.965  19.759  0.00  0.00    +0.000 S 
BRANCH  18  19
ATOM     19  C   UNL     1       1.403   8.411  20.464  0.00  0.00    +0.000 A 
ATOM     20  C   UNL     1       0.997   8.370  21.784  0.00  0.00    +0.000 A 
ATOM     21  C   UNL     1       0.361   9.483  22.333  0.00  0.00    +0.000 A 
ATOM     22  C   UNL     1       0.132  10.606  21.550  0.00  0.00    +0.000 A 
ATOM     23  N   UNL     1       0.520  10.605  20.251  0.00  0.00    +0.000 NA
ATOM     24  N   UNL     1       1.162   9.497  19.706  0.00  0.00    +0.000 NA
BRANCH  22  25
ATOM     25  C   UNL     1      -0.556  11.813  22.055  0.00  0.00    +0.000 A 
ATOM     26  C   UNL     1      -0.016  13.102  21.877  0.00  0.00    +0.000 A 
ATOM     27  C   UNL     1      -0.646  14.239  22.396  0.00  0.00    +0.000 A 
ATOM     28  C   UNL     1      -1.837  14.116  23.101  0.00  0.00    +0.000 A 
ATOM     29  C   UNL     1      -2.404  12.855  23.277  0.00  0.00    +0.000 A 
ATOM     30  C   UNL     1      -1.773  11.720  22.756  0.00  0.00    +0.000 A 
ENDBRANCH  22  25
ENDBRANCH  18  19
ENDBRANCH  17  18
ENDBRANCH   2  17
TORSDOF 9
ENDMDL
MODEL 9
REMARK VINA RESULT:      -6.9      4.070      7.496
REMARK  Name = 
REMARK  11 active torsions:
REMARK  status: ('A' for Active; 'I' for Inactive)
REMARK    1  A    between atoms: C_1  and  O_2
REMARK    2  A    between atoms: O_2  and  C_3
REMARK    3  A    between atoms: C_6  and  C_7
REMARK    4  A    between atoms: C_7  and  C_8
REMARK    5  A    between atoms: C_8  and  N_9
REMARK    6  A    between atoms: C_10  and  C_12
REMARK    7  A    between atoms: C_12  and  S_13
REMARK    8  A    between atoms: S_13  and  C_14
REMARK    9  A    between atoms: C_17  and  C_18
REMARK   10  A    between atoms: C_27  and  O_28
REMARK   11  A    between atoms: O_28  and  C_29
REMARK                            x       y       z     vdW  Elec       q    Type
REMARK                         _______ _______ _______ _____ _____    ______ ____
ROOT
ATOM      1  N   UNL     1       2.014   6.662  20.038  0.00  0.00    +0.000 N 
ATOM      2  C   UNL     1       1.947   7.693  19.113  0.00  0.00    +0.000 C 
ATOM      3  O   UNL     1       2.090   7.503  17.909  0.00  0.00    +0.000 OA
ATOM      4  H   UNL     1       2.069   6.910  21.019  0.00  0.00    +0.000 HD
ENDROOT
BRANCH   1   5
ATOM      5  C   UNL     1       2.441   5.346  19.596  0.00  0.00    +0.000 C 
BRANCH   5   6
ATOM      6  C   UNL     1       3.929   5.070  19.818  0.00  0.00    +0.000 C 
BRANCH   6  10
ATOM      7  C   UNL     1       6.032   5.511  16.053  0.00  0.00    +0.000 A 
ATOM      8  C   UNL     1       4.828   4.792  16.125  0.00  0.00    +0.000 A 
ATOM      9  C   UNL     1       4.155   4.627  17.339  0.00  0.00    +0.000 A 
ATOM     10  C   UNL     1       4.694   5.148  18.517  0.00  0.00    +0.000 A 
ATOM     11  C   UNL     1       5.932   5.799  18.454  0.00  0.00    +0.000 A 
ATOM     12  C   UNL     1       6.617   5.980  17.239  0.00  0.00    +0.000 A 
BRANCH   7  14
ATOM     13  C   UNL     1       6.868   4.585  14.040  0.00  0.00    +0.000 C 
ATOM     14  O   UNL     1       6.649   5.739  14.852  0.00  0.00    +0.000 OA
ENDBRANCH   7  14
BRANCH  12  15
ATOM     15  O   UNL     1       7.800   6.649  17.412  0.00  0.00    +0.000 OA
ATOM     16  C   UNL     1       7.790   8.064  17.510  0.00  0.00    +0.000 C 
ENDBRANCH  12  15
ENDBRANCH   6  10
ENDBRANCH   5   6
ENDBRANCH   1   5
BRANCH   2  17
ATOM     17  C   UNL     1       1.576   9.058  19.671  0.00  0.00    +0.000 C 
BRANCH  17  18
ATOM     18  S   UNL     1       1.422  10.315  18.365  0.00  0.00    +0.000 S 
BRANCH  18  19
ATOM     19  C   UNL     1      -0.314  10.700  18.464  0.00  0.00    +0.000 A 
ATOM     20  C   UNL     1      -1.191  10.023  17.636  0.00  0.00    +0.000 A 
ATOM     21  C   UNL     1      -2.547  10.345  17.677  0.00  0.00    +0.000 A 
ATOM     22  C   UNL     1      -2.996  11.344  18.531  0.00  0.00    +0.000 A 
ATOM     23  N   UNL     1      -2.106  12.006  19.311  0.00  0.00    +0.000 NA
ATOM     24  N   UNL     1      -0.754  11.677  19.277  0.00  0.00    +0.000 NA
BRANCH  22  25
ATOM     25  C   UNL     1      -4.413  11.756  18.612  0.00  0.00    +0.000 A 
ATOM     26  C   UNL     1      -5.288  11.619  17.517  0.00  0.00    +0.000 A 
ATOM     27  C   UNL     1      -6.618  12.052  17.581  0.00  0.00    +0.000 A 
ATOM     28  C   UNL     1      -7.108  12.629  18.747  0.00  0.00    +0.000 A 
ATOM     29  C   UNL     1      -6.270  12.761  19.852  0.00  0.00    +0.000 A 
ATOM     30  C   UNL     1      -4.941  12.326  19.786  0.00  0.00    +0.000 A 
ENDBRANCH  22  25
ENDBRANCH  18  19
ENDBRANCH  17  18
ENDBRANCH   2  17
TORSDOF 9
ENDMDL
