MODEL 1
REMARK VINA RESULT:      -7.0      0.000      0.000
REMARK  Name = 
REMARK  5 active torsions:
REMARK  status: ('A' for Active; 'I' for Inactive)
REMARK    1  A    between atoms: C_2  and  C_3
REMARK    2  A    between atoms: C_3  and  N_4
REMARK    3  A    between atoms: C_6  and  N_7
REMARK    4  A    between atoms: N_14  and  C_15
REMARK    5  A    between atoms: C_15  and  C_16
REMARK                            x       y       z     vdW  Elec       q    Type
REMARK                         _______ _______ _______ _____ _____    ______ ____
ROOT
ATOM      1  C   UNL     1       6.758   6.177  18.004  0.00  0.00    +0.000 C 
ENDROOT
BRANCH   1   2
ATOM      2  N   UNL     1       5.361   5.922  18.286  0.00  0.00    +0.000 N 
ATOM      3  C   UNL     1       4.853   4.957  19.108  0.00  0.00    +0.000 A 
ATOM      4  C   UNL     1       3.483   5.064  19.009  0.00  0.00    +0.000 A 
ATOM      5  C   UNL     1       3.265   6.145  18.135  0.00  0.00    +0.000 A 
ATOM      6  N   UNL     1       4.412   6.655  17.670  0.00  0.00    +0.000 NA
BRANCH   4   7
ATOM      7  N   UNL     1       2.506   4.254  19.636  0.00  0.00    +0.000 N 
ATOM      8  C   UNL     1       2.414   3.977  20.985  0.00  0.00    +0.000 A 
ATOM      9  C   UNL     1       1.303   3.193  21.208  0.00  0.00    +0.000 A 
ATOM     10  C   UNL     1       0.697   2.962  19.955  0.00  0.00    +0.000 A 
ATOM     11  C   UNL     1       1.453   3.619  19.009  0.00  0.00    +0.000 A 
ENDBRANCH   4   7
ENDBRANCH   1   2
BRANCH   1  13
ATOM     12  O   UNL     1       8.032   4.442  16.934  0.00  0.00    +0.000 OA
ATOM     13  C   UNL     1       7.235   5.371  16.817  0.00  0.00    +0.000 C 
ATOM     14  N   UNL     1       6.759   5.781  15.589  0.00  0.00    +0.000 N 
ATOM     15  H   UNL     1       5.944   6.390  15.569  0.00  0.00    +0.000 HD
BRANCH  14  16
ATOM     16  C   UNL     1       7.107   5.041  14.373  0.00  0.00    +0.000 C 
BRANCH  16  17
ATOM     17  C   UNL     1       6.150   3.913  13.962  0.00  0.00    +0.000 C 
ATOM     18  F   UNL     1       4.908   4.367  13.690  0.00  0.00    +0.000 F 
ATOM     19  F   UNL     1       6.605   3.300  12.841  0.00  0.00    +0.000 F 
ATOM     20  F   UNL     1       6.049   2.968  14.922  0.00  0.00    +0.000 F 
ENDBRANCH  16  17
ENDBRANCH  14  16
ENDBRANCH   1  13
TORSDOF 5
ENDMDL
MODEL 2
REMARK VINA RESULT:      -6.9      1.625      1.968
REMARK  Name = 
REMARK  5 active torsions:
REMARK  status: ('A' for Active; 'I' for Inactive)
REMARK    1  A    between atoms: C_2  and  C_3
REMARK    2  A    between atoms: C_3  and  N_4
REMARK    3  A    between atoms: C_6  and  N_7
REMARK    4  A    between atoms: N_14  and  C_15
REMARK    5  A    between atoms: C_15  and  C_16
REMARK                            x       y       z     vdW  Elec       q    Type
REMARK                         _______ _______ _______ _____ _____    ______ ____
ROOT
ATOM      1  C   UNL     1       5.311   6.246  15.856  0.00  0.00    +0.000 C 
ENDROOT
BRANCH   1   2
ATOM      2  N   UNL     1       4.978   5.697  17.154  0.00  0.00    +0.000 N 
ATOM      3  C   UNL     1       3.841   5.021  17.492  0.00  0.00    +0.000 A 
ATOM      4  C   UNL     1       3.951   4.754  18.839  0.00  0.00    +0.000 A 
ATOM      5  C   UNL     1       5.204   5.273  19.212  0.00  0.00    +0.000 A 
ATOM      6  N   UNL     1       5.824   5.874  18.190  0.00  0.00    +0.000 NA
BRANCH   4   7
ATOM      7  N   UNL     1       3.003   4.111  19.672  0.00  0.00    +0.000 N 
ATOM      8  C   UNL     1       1.713   4.533  19.923  0.00  0.00    +0.000 A 
ATOM      9  C   UNL     1       1.093   3.617  20.745  0.00  0.00    +0.000 A 
ATOM     10  C   UNL     1       2.033   2.603  21.025  0.00  0.00    +0.000 A 
ATOM     11  C   UNL     1       3.195   2.930  20.360  0.00  0.00    +0.000 A 
ENDBRANCH   4   7
ENDBRANCH   1   2
BRANCH   1  13
ATOM     12  O   UNL     1       7.426   5.439  15.049  0.00  0.00    +0.000 OA
ATOM     13  C   UNL     1       6.204   5.309  15.076  0.00  0.00    +0.000 C 
ATOM     14  N   UNL     1       5.553   4.331  14.352  0.00  0.00    +0.000 N 
ATOM     15  H   UNL     1       4.583   4.127  14.584  0.00  0.00    +0.000 HD
BRANCH  14  16
ATOM     16  C   UNL     1       6.317   3.330  13.602  0.00  0.00    +0.000 C 
BRANCH  16  17
ATOM     17  C   UNL     1       6.174   3.365  12.075  0.00  0.00    +0.000 C 
ATOM     18  F   UNL     1       4.923   3.688  11.682  0.00  0.00    +0.000 F 
ATOM     19  F   UNL     1       7.010   4.296  11.549  0.00  0.00    +0.000 F 
ATOM     20  F   UNL     1       6.495   2.179  11.515  0.00  0.00    +0.000 F 
ENDBRANCH  16  17
ENDBRANCH  14  16
ENDBRANCH   1  13
TORSDOF 5
ENDMDL
MODEL 3
REMARK VINA RESULT:      -6.8      1.564      2.106
REMARK  Name = 
REMARK  5 active torsions:
REMARK  status: ('A' for Active; 'I' for Inactive)
REMARK    1  A    between atoms: C_2  and  C_3
REMARK    2  A    between atoms: C_3  and  N_4
REMARK    3  A    between atoms: C_6  and  N_7
REMARK    4  A    between atoms: N_14  and  C_15
REMARK    5  A    between atoms: C_15  and  C_16
REMARK                            x       y       z     vdW  Elec       q    Type
REMARK                         _______ _______ _______ _____ _____    ______ ____
ROOT
ATOM      1  C   UNL     1       5.450   6.127  16.133  0.00  0.00    +0.000 C 
ENDROOT
BRANCH   1   2
ATOM      2  N   UNL     1       4.962   5.283  17.203  0.00  0.00    +0.000 N 
ATOM      3  C   UNL     1       3.666   5.135  17.606  0.00  0.00    +0.000 A 
ATOM      4  C   UNL     1       3.704   4.283  18.687  0.00  0.00    +0.000 A 
ATOM      5  C   UNL     1       5.061   3.941  18.833  0.00  0.00    +0.000 A 
ATOM      6  N   UNL     1       5.838   4.572  17.944  0.00  0.00    +0.000 NA
BRANCH   4   7
ATOM      7  N   UNL     1       2.618   3.854  19.489  0.00  0.00    +0.000 N 
ATOM      8  C   UNL     1       1.339   3.572  19.053  0.00  0.00    +0.000 A 
ATOM      9  C   UNL     1       0.586   3.141  20.123  0.00  0.00    +0.000 A 
ATOM     10  C   UNL     1       1.418   3.173  21.260  0.00  0.00    +0.000 A 
ATOM     11  C   UNL     1       2.656   3.615  20.848  0.00  0.00    +0.000 A 
ENDBRANCH   4   7
ENDBRANCH   1   2
BRANCH   1  13
ATOM     12  O   UNL     1       7.416   5.667  14.828  0.00  0.00    +0.000 OA
ATOM     13  C   UNL     1       6.273   5.337  15.142  0.00  0.00    +0.000 C 
ATOM     14  N   UNL     1       5.638   4.253  14.571  0.00  0.00    +0.000 N 
ATOM     15  H   UNL     1       4.799   3.896  15.022  0.00  0.00    +0.000 HD
BRANCH  14  16
ATOM     16  C   UNL     1       6.355   3.379  13.639  0.00  0.00    +0.000 C 
BRANCH  16  17
ATOM     17  C   UNL     1       5.864   3.381  12.185  0.00  0.00    +0.000 C 
ATOM     18  F   UNL     1       6.553   4.247  11.410  0.00  0.00    +0.000 F 
ATOM     19  F   UNL     1       6.017   2.149  11.638  0.00  0.00    +0.000 F 
ATOM     20  F   UNL     1       4.553   3.696  12.100  0.00  0.00    +0.000 F 
ENDBRANCH  16  17
ENDBRANCH  14  16
ENDBRANCH   1  13
TORSDOF 5
ENDMDL
MODEL 4
REMARK VINA RESULT:      -6.8      1.615      1.966
REMARK  Name = 
REMARK  5 active torsions:
REMARK  status: ('A' for Active; 'I' for Inactive)
REMARK    1  A    between atoms: C_2  and  C_3
REMARK    2  A    between atoms: C_3  and  N_4
REMARK    3  A    between atoms: C_6  and  N_7
REMARK    4  A    between atoms: N_14  and  C_15
REMARK    5  A    between atoms: C_15  and  C_16
REMARK                            x       y       z     vdW  Elec       q    Type
REMARK                         _______ _______ _______ _____ _____    ______ ____
ROOT
ATOM      1  C   UNL     1       7.050   4.359  16.639  0.00  0.00    +0.000 C 
ENDROOT
BRANCH   1   2
ATOM      2  N   UNL     1       5.719   4.520  17.185  0.00  0.00    +0.000 N 
ATOM      3  C   UNL     1       5.207   3.908  18.293  0.00  0.00    +0.000 A 
ATOM      4  C   UNL     1       3.897   4.323  18.379  0.00  0.00    +0.000 A 
ATOM      5  C   UNL     1       3.726   5.212  17.302  0.00  0.00    +0.000 A 
ATOM      6  N   UNL     1       4.831   5.315  16.554  0.00  0.00    +0.000 NA
BRANCH   4   7
ATOM      7  N   UNL     1       2.927   3.929  19.332  0.00  0.00    +0.000 N 
ATOM      8  C   UNL     1       1.598   4.303  19.351  0.00  0.00    +0.000 A 
ATOM      9  C   UNL     1       0.970   3.677  20.406  0.00  0.00    +0.000 A 
ATOM     10  C   UNL     1       1.944   2.905  21.073  0.00  0.00    +0.000 A 
ATOM     11  C   UNL     1       3.133   3.078  20.399  0.00  0.00    +0.000 A 
ENDBRANCH   4   7
ENDBRANCH   1   2
BRANCH   1  13
ATOM     12  O   UNL     1       7.619   5.653  14.694  0.00  0.00    +0.000 OA
ATOM     13  C   UNL     1       7.075   4.652  15.156  0.00  0.00    +0.000 C 
ATOM     14  N   UNL     1       6.399   3.749  14.360  0.00  0.00    +0.000 N 
ATOM     15  H   UNL     1       6.169   2.840  14.754  0.00  0.00    +0.000 HD
BRANCH  14  16
ATOM     16  C   UNL     1       6.402   3.898  12.903  0.00  0.00    +0.000 C 
BRANCH  16  17
ATOM     17  C   UNL     1       5.251   3.223  12.145  0.00  0.00    +0.000 C 
ATOM     18  F   UNL     1       4.101   3.221  12.852  0.00  0.00    +0.000 F 
ATOM     19  F   UNL     1       5.004   3.884  10.985  0.00  0.00    +0.000 F 
ATOM     20  F   UNL     1       5.545   1.945  11.822  0.00  0.00    +0.000 F 
ENDBRANCH  16  17
ENDBRANCH  14  16
ENDBRANCH   1  13
TORSDOF 5
ENDMDL
MODEL 5
REMARK VINA RESULT:      -6.5      2.910      6.264
REMARK  Name = 
REMARK  5 active torsions:
REMARK  status: ('A' for Active; 'I' for Inactive)
REMARK    1  A    between atoms: C_2  and  C_3
REMARK    2  A    between atoms: C_3  and  N_4
REMARK    3  A    between atoms: C_6  and  N_7
REMARK    4  A    between atoms: N_14  and  C_15
REMARK    5  A    between atoms: C_15  and  C_16
REMARK                            x       y       z     vdW  Elec       q    Type
REMARK                         _______ _______ _______ _____ _____    ______ ____
ROOT
ATOM      1  C   UNL     1       5.847   4.856  18.905  0.00  0.00    +0.000 C 
ENDROOT
BRANCH   1   2
ATOM      2  N   UNL     1       5.775   5.078  17.476  0.00  0.00    +0.000 N 
ATOM      3  C   UNL     1       6.276   4.272  16.494  0.00  0.00    +0.000 A 
ATOM      4  C   UNL     1       6.019   4.923  15.308  0.00  0.00    +0.000 A 
ATOM      5  C   UNL     1       5.325   6.091  15.676  0.00  0.00    +0.000 A 
ATOM      6  N   UNL     1       5.197   6.202  17.004  0.00  0.00    +0.000 NA
BRANCH   4   7
ATOM      7  N   UNL     1       6.385   4.517  14.002  0.00  0.00    +0.000 N 
ATOM      8  C   UNL     1       5.767   3.544  13.243  0.00  0.00    +0.000 A 
ATOM      9  C   UNL     1       6.385   3.473  12.013  0.00  0.00    +0.000 A 
ATOM     10  C   UNL     1       7.430   4.420  12.016  0.00  0.00    +0.000 A 
ATOM     11  C   UNL     1       7.411   5.044  13.244  0.00  0.00    +0.000 A 
ENDBRANCH   4   7
ENDBRANCH   1   2
BRANCH   1  13
ATOM     12  O   UNL     1       4.995   2.860  19.938  0.00  0.00    +0.000 OA
ATOM     13  C   UNL     1       4.753   3.925  19.373  0.00  0.00    +0.000 C 
ATOM     14  N   UNL     1       3.465   4.323  19.075  0.00  0.00    +0.000 N 
ATOM     15  H   UNL     1       3.310   5.295  18.819  0.00  0.00    +0.000 HD
BRANCH  14  16
ATOM     16  C   UNL     1       2.320   3.529  19.529  0.00  0.00    +0.000 C 
BRANCH  16  17
ATOM     17  C   UNL     1       1.366   3.021  18.439  0.00  0.00    +0.000 C 
ATOM     18  F   UNL     1       0.249   2.462  18.953  0.00  0.00    +0.000 F 
ATOM     19  F   UNL     1       0.968   4.051  17.650  0.00  0.00    +0.000 F 
ATOM     20  F   UNL     1       1.960   2.110  17.639  0.00  0.00    +0.000 F 
ENDBRANCH  16  17
ENDBRANCH  14  16
ENDBRANCH   1  13
TORSDOF 5
ENDMDL
MODEL 6
REMARK VINA RESULT:      -6.5      4.200      4.764
REMARK  Name = 
REMARK  5 active torsions:
REMARK  status: ('A' for Active; 'I' for Inactive)
REMARK    1  A    between atoms: C_2  and  C_3
REMARK    2  A    between atoms: C_3  and  N_4
REMARK    3  A    between atoms: C_6  and  N_7
REMARK    4  A    between atoms: N_14  and  C_15
REMARK    5  A    between atoms: C_15  and  C_16
REMARK                            x       y       z     vdW  Elec       q    Type
REMARK                         _______ _______ _______ _____ _____    ______ ____
ROOT
ATOM      1  C   UNL     1       7.513   5.720  18.296  0.00  0.00    +0.000 C 
ENDROOT
BRANCH   1   2
ATOM      2  N   UNL     1       6.221   5.067  18.319  0.00  0.00    +0.000 N 
ATOM      3  C   UNL     1       5.291   5.122  19.317  0.00  0.00    +0.000 A 
ATOM      4  C   UNL     1       4.261   4.300  18.916  0.00  0.00    +0.000 A 
ATOM      5  C   UNL     1       4.647   3.826  17.648  0.00  0.00    +0.000 A 
ATOM      6  N   UNL     1       5.857   4.272  17.291  0.00  0.00    +0.000 NA
BRANCH   4   7
ATOM      7  N   UNL     1       3.079   3.984  19.628  0.00  0.00    +0.000 N 
ATOM      8  C   UNL     1       2.946   3.023  20.610  0.00  0.00    +0.000 A 
ATOM      9  C   UNL     1       1.656   3.052  21.094  0.00  0.00    +0.000 A 
ATOM     10  C   UNL     1       0.963   4.050  20.378  0.00  0.00    +0.000 A 
ATOM     11  C   UNL     1       1.854   4.604  19.485  0.00  0.00    +0.000 A 
ENDBRANCH   4   7
ENDBRANCH   1   2
BRANCH   1  13
ATOM     12  O   UNL     1       6.712   7.344  16.715  0.00  0.00    +0.000 OA
ATOM     13  C   UNL     1       7.419   7.102  17.691  0.00  0.00    +0.000 C 
ATOM     14  N   UNL     1       8.220   8.062  18.274  0.00  0.00    +0.000 N 
ATOM     15  H   UNL     1       8.601   7.873  19.198  0.00  0.00    +0.000 HD
BRANCH  14  16
ATOM     16  C   UNL     1       8.171   9.451  17.810  0.00  0.00    +0.000 C 
BRANCH  16  17
ATOM     17  C   UNL     1       9.179  10.420  18.444  0.00  0.00    +0.000 C 
ATOM     18  F   UNL     1      10.216  10.692  17.623  0.00  0.00    +0.000 F 
ATOM     19  F   UNL     1       8.575  11.601  18.728  0.00  0.00    +0.000 F 
ATOM     20  F   UNL     1       9.678   9.936  19.602  0.00  0.00    +0.000 F 
ENDBRANCH  16  17
ENDBRANCH  14  16
ENDBRANCH   1  13
TORSDOF 5
ENDMDL
MODEL 7
REMARK VINA RESULT:      -6.5      1.163      1.309
REMARK  Name = 
REMARK  5 active torsions:
REMARK  status: ('A' for Active; 'I' for Inactive)
REMARK    1  A    between atoms: C_2  and  C_3
REMARK    2  A    between atoms: C_3  and  N_4
REMARK    3  A    between atoms: C_6  and  N_7
REMARK    4  A    between atoms: N_14  and  C_15
REMARK    5  A    between atoms: C_15  and  C_16
REMARK                            x       y       z     vdW  Elec       q    Type
REMARK                         _______ _______ _______ _____ _____    ______ ____
ROOT
ATOM      1  C   UNL     1       6.308   6.374  16.702  0.00  0.00    +0.000 C 
ENDROOT
BRANCH   1   2
ATOM      2  N   UNL     1       5.095   6.130  17.453  0.00  0.00    +0.000 N 
ATOM      3  C   UNL     1       4.818   5.048  18.238  0.00  0.00    +0.000 A 
ATOM      4  C   UNL     1       3.531   5.232  18.691  0.00  0.00    +0.000 A 
ATOM      5  C   UNL     1       3.131   6.472  18.157  0.00  0.00    +0.000 A 
ATOM      6  N   UNL     1       4.076   7.011  17.377  0.00  0.00    +0.000 NA
BRANCH   4   7
ATOM      7  N   UNL     1       2.768   4.360  19.504  0.00  0.00    +0.000 N 
ATOM      8  C   UNL     1       2.332   4.609  20.790  0.00  0.00    +0.000 A 
ATOM      9  C   UNL     1       1.581   3.539  21.225  0.00  0.00    +0.000 A 
ATOM     10  C   UNL     1       1.564   2.590  20.182  0.00  0.00    +0.000 A 
ATOM     11  C   UNL     1       2.299   3.113  19.141  0.00  0.00    +0.000 A 
ENDBRANCH   4   7
ENDBRANCH   1   2
BRANCH   1  13
ATOM     12  O   UNL     1       7.763   4.498  16.321  0.00  0.00    +0.000 OA
ATOM     13  C   UNL     1       6.765   5.128  15.977  0.00  0.00    +0.000 C 
ATOM     14  N   UNL     1       6.018   4.776  14.871  0.00  0.00    +0.000 N 
ATOM     15  H   UNL     1       5.092   5.184  14.767  0.00  0.00    +0.000 HD
BRANCH  14  16
ATOM     16  C   UNL     1       6.331   3.555  14.123  0.00  0.00    +0.000 C 
BRANCH  16  17
ATOM     17  C   UNL     1       6.155   3.623  12.600  0.00  0.00    +0.000 C 
ATOM     18  F   UNL     1       6.917   4.585  12.037  0.00  0.00    +0.000 F 
ATOM     19  F   UNL     1       6.518   2.444  12.035  0.00  0.00    +0.000 F 
ATOM     20  F   UNL     1       4.869   3.853  12.255  0.00  0.00    +0.000 F 
ENDBRANCH  16  17
ENDBRANCH  14  16
ENDBRANCH   1  13
TORSDOF 5
ENDMDL
MODEL 8
REMARK VINA RESULT:      -6.5      1.007      1.373
REMARK  Name = 
REMARK  5 active torsions:
REMARK  status: ('A' for Active; 'I' for Inactive)
REMARK    1  A    between atoms: C_2  and  C_3
REMARK    2  A    between atoms: C_3  and  N_4
REMARK    3  A    between atoms: C_6  and  N_7
REMARK    4  A    between atoms: N_14  and  C_15
REMARK    5  A    between atoms: C_15  and  C_16
REMARK                            x       y       z     vdW  Elec       q    Type
REMARK                         _______ _______ _______ _____ _____    ______ ____
ROOT
ATOM      1  C   UNL     1       6.323   5.850  17.418  0.00  0.00    +0.000 C 
ENDROOT
BRANCH   1   2
ATOM      2  N   UNL     1       5.100   5.169  17.785  0.00  0.00    +0.000 N 
ATOM      3  C   UNL     1       4.688   4.843  19.046  0.00  0.00    +0.000 A 
ATOM      4  C   UNL     1       3.504   4.158  18.888  0.00  0.00    +0.000 A 
ATOM      5  C   UNL     1       3.266   4.158  17.501  0.00  0.00    +0.000 A 
ATOM      6  N   UNL     1       4.253   4.752  16.821  0.00  0.00    +0.000 NA
BRANCH   4   7
ATOM      7  N   UNL     1       2.706   3.567  19.898  0.00  0.00    +0.000 N 
ATOM      8  C   UNL     1       3.154   2.789  20.945  0.00  0.00    +0.000 A 
ATOM      9  C   UNL     1       2.082   2.442  21.738  0.00  0.00    +0.000 A 
ATOM     10  C   UNL     1       0.930   3.010  21.154  0.00  0.00    +0.000 A 
ATOM     11  C   UNL     1       1.337   3.691  20.028  0.00  0.00    +0.000 A 
ENDBRANCH   4   7
ENDBRANCH   1   2
BRANCH   1  13
ATOM     12  O   UNL     1       7.913   4.460  16.268  0.00  0.00    +0.000 OA
ATOM     13  C   UNL     1       6.953   5.226  16.194  0.00  0.00    +0.000 C 
ATOM     14  N   UNL     1       6.414   5.613  14.984  0.00  0.00    +0.000 N 
ATOM     15  H   UNL     1       5.499   6.056  14.986  0.00  0.00    +0.000 HD
BRANCH  14  16
ATOM     16  C   UNL     1       6.905   5.030  13.732  0.00  0.00    +0.000 C 
BRANCH  16  17
ATOM     17  C   UNL     1       6.211   3.746  13.258  0.00  0.00    +0.000 C 
ATOM     18  F   UNL     1       6.149   2.807  14.227  0.00  0.00    +0.000 F 
ATOM     19  F   UNL     1       4.936   4.016  12.883  0.00  0.00    +0.000 F 
ATOM     20  F   UNL     1       6.837   3.203  12.191  0.00  0.00    +0.000 F 
ENDBRANCH  16  17
ENDBRANCH  14  16
ENDBRANCH   1  13
TORSDOF 5
ENDMDL
MODEL 9
REMARK VINA RESULT:      -6.5      4.237      4.796
REMARK  Name = 
REMARK  5 active torsions:
REMARK  status: ('A' for Active; 'I' for Inactive)
REMARK    1  A    between atoms: C_2  and  C_3
REMARK    2  A    between atoms: C_3  and  N_4
REMARK    3  A    between atoms: C_6  and  N_7
REMARK    4  A    between atoms: N_14  and  C_15
REMARK    5  A    between atoms: C_15  and  C_16
REMARK                            x       y       z     vdW  Elec       q    Type
REMARK                         _______ _______ _______ _____ _____    ______ ____
ROOT
ATOM      1  C   UNL     1       7.513   5.775  18.240  0.00  0.00    +0.000 C 
ENDROOT
BRANCH   1   2
ATOM      2  N   UNL     1       6.227   5.111  18.255  0.00  0.00    +0.000 N 
ATOM      3  C   UNL     1       5.278   5.182  19.235  0.00  0.00    +0.000 A 
ATOM      4  C   UNL     1       4.263   4.341  18.835  0.00  0.00    +0.000 A 
ATOM      5  C   UNL     1       4.676   3.840  17.586  0.00  0.00    +0.000 A 
ATOM      6  N   UNL     1       5.888   4.288  17.241  0.00  0.00    +0.000 NA
BRANCH   4   7
ATOM      7  N   UNL     1       3.071   4.032  19.534  0.00  0.00    +0.000 N 
ATOM      8  C   UNL     1       2.106   4.930  19.945  0.00  0.00    +0.000 A 
ATOM      9  C   UNL     1       1.079   4.239  20.549  0.00  0.00    +0.000 A 
ATOM     10  C   UNL     1       1.424   2.872  20.527  0.00  0.00    +0.000 A 
ATOM     11  C   UNL     1       2.649   2.771  19.904  0.00  0.00    +0.000 A 
ENDBRANCH   4   7
ENDBRANCH   1   2
BRANCH   1  13
ATOM     12  O   UNL     1       6.673   7.419  16.700  0.00  0.00    +0.000 OA
ATOM     13  C   UNL     1       7.407   7.164  17.653  0.00  0.00    +0.000 C 
ATOM     14  N   UNL     1       8.229   8.115  18.222  0.00  0.00    +0.000 N 
ATOM     15  H   UNL     1       8.636   7.914  19.133  0.00  0.00    +0.000 HD
BRANCH  14  16
ATOM     16  C   UNL     1       8.172   9.509  17.774  0.00  0.00    +0.000 C 
BRANCH  16  17
ATOM     17  C   UNL     1       9.167  10.478  18.428  0.00  0.00    +0.000 C 
ATOM     18  F   UNL     1       9.645  10.010  19.601  0.00  0.00    +0.000 F 
ATOM     19  F   UNL     1      10.233  10.672  17.612  0.00  0.00    +0.000 F 
ATOM     20  F   UNL     1       8.611  11.687  18.656  0.00  0.00    +0.000 F 
ENDBRANCH  16  17
ENDBRANCH  14  16
ENDBRANCH   1  13
TORSDOF 5
ENDMDL
