MODEL 1
REMARK VINA RESULT:      -6.5      0.000      0.000
REMARK  Name = 
REMARK  6 active torsions:
REMARK  status: ('A' for Active; 'I' for Inactive)
REMARK    1  A    between atoms: C_1  and  C_2
REMARK    2  A    between atoms: C_2  and  C_3
REMARK    3  A    between atoms: C_2  and  C_4
REMARK    4  A    between atoms: C_2  and  C_5
REMARK    5  A    between atoms: N_7  and  C_8
REMARK    6  A    between atoms: C_8  and  C_9
REMARK                            x       y       z     vdW  Elec       q    Type
REMARK                         _______ _______ _______ _____ _____    ______ ____
ROOT
ATOM      1  C   UNL     1       3.246   3.433  19.559  0.00  0.00    +0.000 C 
ATOM      2  O   UNL     1       3.927   2.424  19.720  0.00  0.00    +0.000 OA
ATOM      3  N   UNL     1       3.521   4.346  18.565  0.00  0.00    +0.000 N 
ATOM      4  H   UNL     1       2.923   5.149  18.429  0.00  0.00    +0.000 HD
ENDROOT
BRANCH   1   6
ATOM      5  C   UNL     1       2.197   3.032  21.804  0.00  0.00    +0.000 C 
ATOM      6  C   UNL     1       2.038   3.765  20.458  0.00  0.00    +0.000 C 
ATOM      7  C   UNL     1       0.732   3.296  19.800  0.00  0.00    +0.000 C 
ATOM      8  C   UNL     1       1.981   5.276  20.723  0.00  0.00    +0.000 C 
ENDBRANCH   1   6
BRANCH   3   9
ATOM      9  C   UNL     1       4.603   4.149  17.625  0.00  0.00    +0.000 C 
BRANCH   9  10
ATOM     10  C   UNL     1       5.736   5.114  17.866  0.00  0.00    +0.000 A 
ATOM     11  C   UNL     1       6.448   5.025  19.078  0.00  0.00    +0.000 A 
ATOM     12  C   UNL     1       7.532   5.868  19.340  0.00  0.00    +0.000 A 
ATOM     13  C   UNL     1       7.915   6.819  18.401  0.00  0.00    +0.000 A 
ATOM     14  C   UNL     1       7.208   6.938  17.205  0.00  0.00    +0.000 A 
ATOM     15  C   UNL     1       6.120   6.097  16.941  0.00  0.00    +0.000 A 
ATOM     16 CL   UNL     1       5.281   6.323  15.448  0.00  0.00    +0.000 Cl
ENDBRANCH   9  10
ENDBRANCH   3   9
TORSDOF 3
ENDMDL
MODEL 2
REMARK VINA RESULT:      -6.5      2.297      5.664
REMARK  Name = 
REMARK  6 active torsions:
REMARK  status: ('A' for Active; 'I' for Inactive)
REMARK    1  A    between atoms: C_1  and  C_2
REMARK    2  A    between atoms: C_2  and  C_3
REMARK    3  A    between atoms: C_2  and  C_4
REMARK    4  A    between atoms: C_2  and  C_5
REMARK    5  A    between atoms: N_7  and  C_8
REMARK    6  A    between atoms: C_8  and  C_9
REMARK                            x       y       z     vdW  Elec       q    Type
REMARK                         _______ _______ _______ _____ _____    ______ ____
ROOT
ATOM      1  C   UNL     1       5.293   4.580  17.554  0.00  0.00    +0.000 C 
ATOM      2  O   UNL     1       6.050   4.136  18.413  0.00  0.00    +0.000 OA
ATOM      3  N   UNL     1       4.151   3.910  17.173  0.00  0.00    +0.000 N 
ATOM      4  H   UNL     1       3.524   4.316  16.493  0.00  0.00    +0.000 HD
ENDROOT
BRANCH   1   6
ATOM      5  C   UNL     1       5.541   5.673  15.308  0.00  0.00    +0.000 C 
ATOM      6  C   UNL     1       5.560   5.915  16.829  0.00  0.00    +0.000 C 
ATOM      7  C   UNL     1       6.938   6.471  17.217  0.00  0.00    +0.000 C 
ATOM      8  C   UNL     1       4.464   6.931  17.181  0.00  0.00    +0.000 C 
ENDBRANCH   1   6
BRANCH   3   9
ATOM      9  C   UNL     1       3.755   2.664  17.792  0.00  0.00    +0.000 C 
BRANCH   9  10
ATOM     10  C   UNL     1       2.935   2.894  19.037  0.00  0.00    +0.000 A 
ATOM     11  C   UNL     1       1.680   3.518  18.908  0.00  0.00    +0.000 A 
ATOM     12  C   UNL     1       0.861   3.723  20.022  0.00  0.00    +0.000 A 
ATOM     13  C   UNL     1       1.286   3.315  21.283  0.00  0.00    +0.000 A 
ATOM     14  C   UNL     1       2.537   2.716  21.432  0.00  0.00    +0.000 A 
ATOM     15  C   UNL     1       3.360   2.513  20.318  0.00  0.00    +0.000 A 
ATOM     16 CL   UNL     1       4.905   1.786  20.591  0.00  0.00    +0.000 Cl
ENDBRANCH   9  10
ENDBRANCH   3   9
TORSDOF 3
ENDMDL
MODEL 3
REMARK VINA RESULT:      -6.5      2.548      5.835
REMARK  Name = 
REMARK  6 active torsions:
REMARK  status: ('A' for Active; 'I' for Inactive)
REMARK    1  A    between atoms: C_1  and  C_2
REMARK    2  A    between atoms: C_2  and  C_3
REMARK    3  A    between atoms: C_2  and  C_4
REMARK    4  A    between atoms: C_2  and  C_5
REMARK    5  A    between atoms: N_7  and  C_8
REMARK    6  A    between atoms: C_8  and  C_9
REMARK                            x       y       z     vdW  Elec       q    Type
REMARK                         _______ _______ _______ _____ _____    ______ ____
ROOT
ATOM      1  C   UNL     1       5.358   5.860  17.263  0.00  0.00    +0.000 C 
ATOM      2  O   UNL     1       5.080   5.789  16.069  0.00  0.00    +0.000 OA
ATOM      3  N   UNL     1       4.387   6.019  18.227  0.00  0.00    +0.000 N 
ATOM      4  H   UNL     1       4.637   6.035  19.206  0.00  0.00    +0.000 HD
ENDROOT
BRANCH   1   6
ATOM      5  C   UNL     1       6.790   5.547  19.300  0.00  0.00    +0.000 C 
ATOM      6  C   UNL     1       6.809   5.786  17.779  0.00  0.00    +0.000 C 
ATOM      7  C   UNL     1       7.547   7.105  17.501  0.00  0.00    +0.000 C 
ATOM      8  C   UNL     1       7.545   4.620  17.105  0.00  0.00    +0.000 C 
ENDBRANCH   1   6
BRANCH   3   9
ATOM      9  C   UNL     1       2.980   6.069  17.894  0.00  0.00    +0.000 C 
BRANCH   9  10
ATOM     10  C   UNL     1       2.211   4.947  18.545  0.00  0.00    +0.000 A 
ATOM     11  C   UNL     1       2.045   3.744  17.833  0.00  0.00    +0.000 A 
ATOM     12  C   UNL     1       1.375   2.657  18.401  0.00  0.00    +0.000 A 
ATOM     13  C   UNL     1       0.852   2.758  19.686  0.00  0.00    +0.000 A 
ATOM     14  C   UNL     1       0.986   3.950  20.398  0.00  0.00    +0.000 A 
ATOM     15  C   UNL     1       1.654   5.040  19.830  0.00  0.00    +0.000 A 
ATOM     16 CL   UNL     1       1.756   6.489  20.767  0.00  0.00    +0.000 Cl
ENDBRANCH   9  10
ENDBRANCH   3   9
TORSDOF 3
ENDMDL
MODEL 4
REMARK VINA RESULT:      -6.5      2.318      5.686
REMARK  Name = 
REMARK  6 active torsions:
REMARK  status: ('A' for Active; 'I' for Inactive)
REMARK    1  A    between atoms: C_1  and  C_2
REMARK    2  A    between atoms: C_2  and  C_3
REMARK    3  A    between atoms: C_2  and  C_4
REMARK    4  A    between atoms: C_2  and  C_5
REMARK    5  A    between atoms: N_7  and  C_8
REMARK    6  A    between atoms: C_8  and  C_9
REMARK                            x       y       z     vdW  Elec       q    Type
REMARK                         _______ _______ _______ _____ _____    ______ ____
ROOT
ATOM      1  C   UNL     1       5.431   5.774  17.706  0.00  0.00    +0.000 C 
ATOM      2  O   UNL     1       4.771   6.801  17.570  0.00  0.00    +0.000 OA
ATOM      3  N   UNL     1       4.851   4.525  17.662  0.00  0.00    +0.000 N 
ATOM      4  H   UNL     1       5.421   3.694  17.738  0.00  0.00    +0.000 HD
ENDROOT
BRANCH   1   6
ATOM      5  C   UNL     1       7.599   4.619  17.191  0.00  0.00    +0.000 C 
ATOM      6  C   UNL     1       6.954   5.797  17.945  0.00  0.00    +0.000 C 
ATOM      7  C   UNL     1       7.267   5.649  19.441  0.00  0.00    +0.000 C 
ATOM      8  C   UNL     1       7.547   7.109  17.411  0.00  0.00    +0.000 C 
ENDBRANCH   1   6
BRANCH   3   9
ATOM      9  C   UNL     1       3.437   4.348  17.411  0.00  0.00    +0.000 C 
BRANCH   9  10
ATOM     10  C   UNL     1       2.694   3.944  18.660  0.00  0.00    +0.000 A 
ATOM     11  C   UNL     1       1.997   4.935  19.377  0.00  0.00    +0.000 A 
ATOM     12  C   UNL     1       1.260   4.612  20.520  0.00  0.00    +0.000 A 
ATOM     13  C   UNL     1       1.215   3.297  20.969  0.00  0.00    +0.000 A 
ATOM     14  C   UNL     1       1.919   2.306  20.285  0.00  0.00    +0.000 A 
ATOM     15  C   UNL     1       2.660   2.627  19.142  0.00  0.00    +0.000 A 
ATOM     16 CL   UNL     1       3.523   1.346  18.366  0.00  0.00    +0.000 Cl
ENDBRANCH   9  10
ENDBRANCH   3   9
TORSDOF 3
ENDMDL
MODEL 5
REMARK VINA RESULT:      -6.5      2.580      5.852
REMARK  Name = 
REMARK  6 active torsions:
REMARK  status: ('A' for Active; 'I' for Inactive)
REMARK    1  A    between atoms: C_1  and  C_2
REMARK    2  A    between atoms: C_2  and  C_3
REMARK    3  A    between atoms: C_2  and  C_4
REMARK    4  A    between atoms: C_2  and  C_5
REMARK    5  A    between atoms: N_7  and  C_8
REMARK    6  A    between atoms: C_8  and  C_9
REMARK                            x       y       z     vdW  Elec       q    Type
REMARK                         _______ _______ _______ _____ _____    ______ ____
ROOT
ATOM      1  C   UNL     1       5.351   5.921  17.313  0.00  0.00    +0.000 C 
ATOM      2  O   UNL     1       5.045   5.925  16.123  0.00  0.00    +0.000 OA
ATOM      3  N   UNL     1       4.406   6.040  18.308  0.00  0.00    +0.000 N 
ATOM      4  H   UNL     1       4.679   5.994  19.280  0.00  0.00    +0.000 HD
ENDROOT
BRANCH   1   6
ATOM      5  C   UNL     1       7.559   7.102  17.480  0.00  0.00    +0.000 C 
ATOM      6  C   UNL     1       6.812   5.791  17.788  0.00  0.00    +0.000 C 
ATOM      7  C   UNL     1       7.519   4.643  17.051  0.00  0.00    +0.000 C 
ATOM      8  C   UNL     1       6.850   5.545  19.303  0.00  0.00    +0.000 C 
ENDBRANCH   1   6
BRANCH   3   9
ATOM      9  C   UNL     1       2.993   6.134  18.011  0.00  0.00    +0.000 C 
BRANCH   9  10
ATOM     10  C   UNL     1       2.221   4.976  18.594  0.00  0.00    +0.000 A 
ATOM     11  C   UNL     1       2.109   3.796  17.835  0.00  0.00    +0.000 A 
ATOM     12  C   UNL     1       1.438   2.678  18.340  0.00  0.00    +0.000 A 
ATOM     13  C   UNL     1       0.863   2.725  19.605  0.00  0.00    +0.000 A 
ATOM     14  C   UNL     1       0.945   3.894  20.361  0.00  0.00    +0.000 A 
ATOM     15  C   UNL     1       1.613   5.015  19.857  0.00  0.00    +0.000 A 
ATOM     16 CL   UNL     1       1.649   6.433  20.845  0.00  0.00    +0.000 Cl
ENDBRANCH   9  10
ENDBRANCH   3   9
TORSDOF 3
ENDMDL
MODEL 6
REMARK VINA RESULT:      -6.5      2.305      5.611
REMARK  Name = 
REMARK  6 active torsions:
REMARK  status: ('A' for Active; 'I' for Inactive)
REMARK    1  A    between atoms: C_1  and  C_2
REMARK    2  A    between atoms: C_2  and  C_3
REMARK    3  A    between atoms: C_2  and  C_4
REMARK    4  A    between atoms: C_2  and  C_5
REMARK    5  A    between atoms: N_7  and  C_8
REMARK    6  A    between atoms: C_8  and  C_9
REMARK                            x       y       z     vdW  Elec       q    Type
REMARK                         _______ _______ _______ _____ _____    ______ ____
ROOT
ATOM      1  C   UNL     1       5.306   4.564  17.587  0.00  0.00    +0.000 C 
ATOM      2  O   UNL     1       6.026   4.168  18.500  0.00  0.00    +0.000 OA
ATOM      3  N   UNL     1       4.206   3.851  17.166  0.00  0.00    +0.000 N 
ATOM      4  H   UNL     1       3.606   4.217  16.440  0.00  0.00    +0.000 HD
ENDROOT
BRANCH   1   6
ATOM      5  C   UNL     1       4.529   6.928  17.261  0.00  0.00    +0.000 C 
ATOM      6  C   UNL     1       5.577   5.883  16.836  0.00  0.00    +0.000 C 
ATOM      7  C   UNL     1       5.467   5.671  15.319  0.00  0.00    +0.000 C 
ATOM      8  C   UNL     1       6.974   6.412  17.193  0.00  0.00    +0.000 C 
ENDBRANCH   1   6
BRANCH   3   9
ATOM      9  C   UNL     1       3.809   2.612  17.801  0.00  0.00    +0.000 C 
BRANCH   9  10
ATOM     10  C   UNL     1       2.967   2.859  19.028  0.00  0.00    +0.000 A 
ATOM     11  C   UNL     1       1.714   3.481  18.868  0.00  0.00    +0.000 A 
ATOM     12  C   UNL     1       0.874   3.700  19.963  0.00  0.00    +0.000 A 
ATOM     13  C   UNL     1       1.276   3.310  21.237  0.00  0.00    +0.000 A 
ATOM     14  C   UNL     1       2.524   2.713  21.417  0.00  0.00    +0.000 A 
ATOM     15  C   UNL     1       3.368   2.495  20.322  0.00  0.00    +0.000 A 
ATOM     16 CL   UNL     1       4.907   1.773  20.633  0.00  0.00    +0.000 Cl
ENDBRANCH   9  10
ENDBRANCH   3   9
TORSDOF 3
ENDMDL
MODEL 7
REMARK VINA RESULT:      -6.5      2.401      5.599
REMARK  Name = 
REMARK  6 active torsions:
REMARK  status: ('A' for Active; 'I' for Inactive)
REMARK    1  A    between atoms: C_1  and  C_2
REMARK    2  A    between atoms: C_2  and  C_3
REMARK    3  A    between atoms: C_2  and  C_4
REMARK    4  A    between atoms: C_2  and  C_5
REMARK    5  A    between atoms: N_7  and  C_8
REMARK    6  A    between atoms: C_8  and  C_9
REMARK                            x       y       z     vdW  Elec       q    Type
REMARK                         _______ _______ _______ _____ _____    ______ ____
ROOT
ATOM      1  C   UNL     1       5.585   5.709  18.593  0.00  0.00    +0.000 C 
ATOM      2  O   UNL     1       5.282   5.451  19.755  0.00  0.00    +0.000 OA
ATOM      3  N   UNL     1       4.633   5.999  17.640  0.00  0.00    +0.000 N 
ATOM      4  H   UNL     1       4.910   6.246  16.700  0.00  0.00    +0.000 HD
ENDROOT
BRANCH   1   6
ATOM      5  C   UNL     1       7.305   7.024  17.324  0.00  0.00    +0.000 C 
ATOM      6  C   UNL     1       7.047   5.721  18.105  0.00  0.00    +0.000 C 
ATOM      7  C   UNL     1       7.313   4.532  17.170  0.00  0.00    +0.000 C 
ATOM      8  C   UNL     1       8.001   5.669  19.307  0.00  0.00    +0.000 C 
ENDBRANCH   1   6
BRANCH   3   9
ATOM      9  C   UNL     1       3.223   6.058  17.962  0.00  0.00    +0.000 C 
BRANCH   9  10
ATOM     10  C   UNL     1       2.668   4.694  18.291  0.00  0.00    +0.000 A 
ATOM     11  C   UNL     1       2.863   3.649  17.368  0.00  0.00    +0.000 A 
ATOM     12  C   UNL     1       2.404   2.357  17.637  0.00  0.00    +0.000 A 
ATOM     13  C   UNL     1       1.736   2.090  18.828  0.00  0.00    +0.000 A 
ATOM     14  C   UNL     1       1.514   3.118  19.743  0.00  0.00    +0.000 A 
ATOM     15  C   UNL     1       1.970   4.414  19.475  0.00  0.00    +0.000 A 
ATOM     16 CL   UNL     1       1.633   5.637  20.649  0.00  0.00    +0.000 Cl
ENDBRANCH   9  10
ENDBRANCH   3   9
TORSDOF 3
ENDMDL
MODEL 8
REMARK VINA RESULT:      -6.5      0.400      1.210
REMARK  Name = 
REMARK  6 active torsions:
REMARK  status: ('A' for Active; 'I' for Inactive)
REMARK    1  A    between atoms: C_1  and  C_2
REMARK    2  A    between atoms: C_2  and  C_3
REMARK    3  A    between atoms: C_2  and  C_4
REMARK    4  A    between atoms: C_2  and  C_5
REMARK    5  A    between atoms: N_7  and  C_8
REMARK    6  A    between atoms: C_8  and  C_9
REMARK                            x       y       z     vdW  Elec       q    Type
REMARK                         _______ _______ _______ _____ _____    ______ ____
ROOT
ATOM      1  C   UNL     1       3.120   3.245  19.204  0.00  0.00    +0.000 C 
ATOM      2  O   UNL     1       3.492   2.105  18.939  0.00  0.00    +0.000 OA
ATOM      3  N   UNL     1       3.695   4.353  18.621  0.00  0.00    +0.000 N 
ATOM      4  H   UNL     1       3.345   5.278  18.826  0.00  0.00    +0.000 HD
ENDROOT
BRANCH   1   6
ATOM      5  C   UNL     1       1.869   5.052  20.417  0.00  0.00    +0.000 C 
ATOM      6  C   UNL     1       1.988   3.530  20.212  0.00  0.00    +0.000 C 
ATOM      7  C   UNL     1       2.299   2.878  21.568  0.00  0.00    +0.000 C 
ATOM      8  C   UNL     1       0.655   3.000  19.666  0.00  0.00    +0.000 C 
ENDBRANCH   1   6
BRANCH   3   9
ATOM      9  C   UNL     1       4.744   4.237  17.631  0.00  0.00    +0.000 C 
BRANCH   9  10
ATOM     10  C   UNL     1       5.837   5.252  17.853  0.00  0.00    +0.000 A 
ATOM     11  C   UNL     1       6.712   5.069  18.940  0.00  0.00    +0.000 A 
ATOM     12  C   UNL     1       7.767   5.957  19.173  0.00  0.00    +0.000 A 
ATOM     13  C   UNL     1       7.957   7.046  18.329  0.00  0.00    +0.000 A 
ATOM     14  C   UNL     1       7.086   7.256  17.261  0.00  0.00    +0.000 A 
ATOM     15  C   UNL     1       6.028   6.370  17.028  0.00  0.00    +0.000 A 
ATOM     16 CL   UNL     1       4.978   6.715  15.698  0.00  0.00    +0.000 Cl
ENDBRANCH   9  10
ENDBRANCH   3   9
TORSDOF 3
ENDMDL
MODEL 9
REMARK VINA RESULT:      -6.5      2.312      5.695
REMARK  Name = 
REMARK  6 active torsions:
REMARK  status: ('A' for Active; 'I' for Inactive)
REMARK    1  A    between atoms: C_1  and  C_2
REMARK    2  A    between atoms: C_2  and  C_3
REMARK    3  A    between atoms: C_2  and  C_4
REMARK    4  A    between atoms: C_2  and  C_5
REMARK    5  A    between atoms: N_7  and  C_8
REMARK    6  A    between atoms: C_8  and  C_9
REMARK                            x       y       z     vdW  Elec       q    Type
REMARK                         _______ _______ _______ _____ _____    ______ ____
ROOT
ATOM      1  C   UNL     1       5.425   5.794  17.697  0.00  0.00    +0.000 C 
ATOM      2  O   UNL     1       4.768   6.827  17.598  0.00  0.00    +0.000 OA
ATOM      3  N   UNL     1       4.839   4.549  17.629  0.00  0.00    +0.000 N 
ATOM      4  H   UNL     1       5.405   3.714  17.674  0.00  0.00    +0.000 HD
ENDROOT
BRANCH   1   6
ATOM      5  C   UNL     1       7.246   5.657  19.419  0.00  0.00    +0.000 C 
ATOM      6  C   UNL     1       6.951   5.804  17.914  0.00  0.00    +0.000 C 
ATOM      7  C   UNL     1       7.556   7.130  17.427  0.00  0.00    +0.000 C 
ATOM      8  C   UNL     1       7.595   4.627  17.168  0.00  0.00    +0.000 C 
ENDBRANCH   1   6
BRANCH   3   9
ATOM      9  C   UNL     1       3.420   4.385  17.394  0.00  0.00    +0.000 C 
BRANCH   9  10
ATOM     10  C   UNL     1       2.690   3.972  18.648  0.00  0.00    +0.000 A 
ATOM     11  C   UNL     1       2.003   4.959  19.380  0.00  0.00    +0.000 A 
ATOM     12  C   UNL     1       1.278   4.628  20.528  0.00  0.00    +0.000 A 
ATOM     13  C   UNL     1       1.235   3.309  20.968  0.00  0.00    +0.000 A 
ATOM     14  C   UNL     1       1.929   2.322  20.268  0.00  0.00    +0.000 A 
ATOM     15  C   UNL     1       2.659   2.651  19.119  0.00  0.00    +0.000 A 
ATOM     16 CL   UNL     1       3.511   1.376  18.323  0.00  0.00    +0.000 Cl
ENDBRANCH   9  10
ENDBRANCH   3   9
TORSDOF 3
ENDMDL
