MODEL 1
REMARK VINA RESULT:      -8.1      0.000      0.000
REMARK  Name = 
REMARK  10 active torsions:
REMARK  status: ('A' for Active; 'I' for Inactive)
REMARK    1  A    between atoms: C_1  and  C_2
REMARK    2  A    between atoms: C_6  and  C_7
REMARK    3  A    between atoms: C_9  and  C_10
REMARK    4  A    between atoms: C_15  and  C_16
REMARK    5  A    between atoms: C_16  and  C_17
REMARK    6  A    between atoms: C_17  and  C_18
REMARK    7  A    between atoms: C_18  and  O_20
REMARK    8  A    between atoms: C_21  and  O_22
REMARK    9  A    between atoms: O_22  and  C_23
REMARK   10  A    between atoms: C_23  and  C_24
REMARK                            x       y       z     vdW  Elec       q    Type
REMARK                         _______ _______ _______ _____ _____    ______ ____
ROOT
ATOM      1  C   UNL     1       7.848   4.589  18.043  0.00  0.00    +0.000 C 
ATOM      2  C   UNL     1       6.623   5.207  17.426  0.00  0.00    +0.000 A 
ATOM      3  C   UNL     1       6.728   5.600  16.083  0.00  0.00    +0.000 A 
ATOM      4  C   UNL     1       5.728   6.351  15.470  0.00  0.00    +0.000 A 
ATOM      5  C   UNL     1       4.613   6.759  16.205  0.00  0.00    +0.000 A 
ATOM      6  C   UNL     1       4.445   6.372  17.546  0.00  0.00    +0.000 A 
ATOM      7  C   UNL     1       5.441   5.527  18.129  0.00  0.00    +0.000 A 
ENDROOT
BRANCH   6   8
ATOM      8  C   UNL     1       3.237   6.788  18.390  0.00  0.00    +0.000 C 
ATOM      9  C   UNL     1       1.907   6.471  17.734  0.00  0.00    +0.000 C 
ATOM     10  C   UNL     1       2.196   7.874  18.162  0.00  0.00    +0.000 C 
BRANCH  10  11
ATOM     11  C   UNL     1       1.444   8.498  19.350  0.00  0.00    +0.000 A 
ATOM     12  C   UNL     1       1.705   7.978  20.642  0.00  0.00    +0.000 A 
ATOM     13  C   UNL     1       1.213   8.576  21.810  0.00  0.00    +0.000 A 
ATOM     14  C   UNL     1       0.442   9.723  21.727  0.00  0.00    +0.000 A 
ATOM     15  C   UNL     1       0.107  10.226  20.476  0.00  0.00    +0.000 A 
ATOM     16  C   UNL     1       0.572   9.617  19.284  0.00  0.00    +0.000 A 
BRANCH  16  17
ATOM     17  C   UNL     1       0.052  10.221  17.992  0.00  0.00    +0.000 C 
BRANCH  17  18
ATOM     18  C   UNL     1      -1.482  10.169  17.922  0.00  0.00    +0.000 C 
BRANCH  18  19
ATOM     19  C   UNL     1      -2.094  11.545  18.003  0.00  0.00    +0.000 C 
ATOM     20  O   UNL     1      -3.079  11.843  18.652  0.00  0.00    +0.000 OA
BRANCH  19  21
ATOM     21  O   UNL     1      -1.425  12.452  17.248  0.00  0.00    +0.000 OA
ATOM     22  H   UNL     1      -1.997  12.978  16.659  0.00  0.00    +0.000 HD
ENDBRANCH  19  21
ENDBRANCH  18  19
ENDBRANCH  17  18
ENDBRANCH  16  17
ENDBRANCH  10  11
ENDBRANCH   6   8
BRANCH   7  23
ATOM     23  O   UNL     1       5.137   5.152  19.422  0.00  0.00    +0.000 OA
BRANCH  23  24
ATOM     24  C   UNL     1       4.849   3.783  19.692  0.00  0.00    +0.000 C 
BRANCH  24  25
ATOM     25  C   UNL     1       3.362   3.494  19.701  0.00  0.00    +0.000 A 
ATOM     26  C   UNL     1       2.720   2.771  18.689  0.00  0.00    +0.000 A 
ATOM     27  C   UNL     1       1.324   2.690  18.662  0.00  0.00    +0.000 A 
ATOM     28  C   UNL     1       0.564   3.302  19.658  0.00  0.00    +0.000 A 
ATOM     29  C   UNL     1       1.196   3.939  20.720  0.00  0.00    +0.000 A 
ATOM     30  C   UNL     1       2.588   4.017  20.752  0.00  0.00    +0.000 A 
ENDBRANCH  24  25
ENDBRANCH  23  24
ENDBRANCH   7  23
TORSDOF 9
ENDMDL
MODEL 2
REMARK VINA RESULT:      -7.5      0.623      1.133
REMARK  Name = 
REMARK  10 active torsions:
REMARK  status: ('A' for Active; 'I' for Inactive)
REMARK    1  A    between atoms: C_1  and  C_2
REMARK    2  A    between atoms: C_6  and  C_7
REMARK    3  A    between atoms: C_9  and  C_10
REMARK    4  A    between atoms: C_15  and  C_16
REMARK    5  A    between atoms: C_16  and  C_17
REMARK    6  A    between atoms: C_17  and  C_18
REMARK    7  A    between atoms: C_18  and  O_20
REMARK    8  A    between atoms: C_21  and  O_22
REMARK    9  A    between atoms: O_22  and  C_23
REMARK   10  A    between atoms: C_23  and  C_24
REMARK                            x       y       z     vdW  Elec       q    Type
REMARK                         _______ _______ _______ _____ _____    ______ ____
ROOT
ATOM      1  C   UNL     1       7.906   4.498  17.913  0.00  0.00    +0.000 C 
ATOM      2  C   UNL     1       6.652   5.108  17.348  0.00  0.00    +0.000 A 
ATOM      3  C   UNL     1       6.698   5.501  16.001  0.00  0.00    +0.000 A 
ATOM      4  C   UNL     1       5.669   6.244  15.430  0.00  0.00    +0.000 A 
ATOM      5  C   UNL     1       4.583   6.647  16.211  0.00  0.00    +0.000 A 
ATOM      6  C   UNL     1       4.474   6.259  17.558  0.00  0.00    +0.000 A 
ATOM      7  C   UNL     1       5.499   5.421  18.099  0.00  0.00    +0.000 A 
ENDROOT
BRANCH   6   8
ATOM      8  C   UNL     1       3.300   6.668  18.452  0.00  0.00    +0.000 C 
ATOM      9  C   UNL     1       1.945   6.429  17.812  0.00  0.00    +0.000 C 
ATOM     10  C   UNL     1       2.291   7.798  18.306  0.00  0.00    +0.000 C 
BRANCH  10  11
ATOM     11  C   UNL     1       1.586   8.381  19.543  0.00  0.00    +0.000 A 
ATOM     12  C   UNL     1       1.724   7.686  20.769  0.00  0.00    +0.000 A 
ATOM     13  C   UNL     1       1.275   8.209  21.989  0.00  0.00    +0.000 A 
ATOM     14  C   UNL     1       0.672   9.455  22.027  0.00  0.00    +0.000 A 
ATOM     15  C   UNL     1       0.458  10.140  20.837  0.00  0.00    +0.000 A 
ATOM     16  C   UNL     1       0.880   9.612  19.591  0.00  0.00    +0.000 A 
BRANCH  16  17
ATOM     17  C   UNL     1       0.498  10.428  18.369  0.00  0.00    +0.000 C 
BRANCH  17  18
ATOM     18  C   UNL     1       0.369  11.921  18.706  0.00  0.00    +0.000 C 
BRANCH  18  19
ATOM     19  C   UNL     1      -1.002  12.455  18.371  0.00  0.00    +0.000 C 
ATOM     20  O   UNL     1      -2.002  12.311  19.050  0.00  0.00    +0.000 OA
BRANCH  19  21
ATOM     21  O   UNL     1      -1.019  13.127  17.193  0.00  0.00    +0.000 OA
ATOM     22  H   UNL     1      -0.223  13.667  17.032  0.00  0.00    +0.000 HD
ENDBRANCH  19  21
ENDBRANCH  18  19
ENDBRANCH  17  18
ENDBRANCH  16  17
ENDBRANCH  10  11
ENDBRANCH   6   8
BRANCH   7  23
ATOM     23  O   UNL     1       5.251   5.045  19.404  0.00  0.00    +0.000 OA
BRANCH  23  24
ATOM     24  C   UNL     1       4.881   3.695  19.673  0.00  0.00    +0.000 C 
BRANCH  24  25
ATOM     25  C   UNL     1       3.387   3.471  19.565  0.00  0.00    +0.000 A 
ATOM     26  C   UNL     1       2.484   3.849  20.566  0.00  0.00    +0.000 A 
ATOM     27  C   UNL     1       1.145   3.457  20.488  0.00  0.00    +0.000 A 
ATOM     28  C   UNL     1       0.692   2.714  19.398  0.00  0.00    +0.000 A 
ATOM     29  C   UNL     1       1.558   2.418  18.351  0.00  0.00    +0.000 A 
ATOM     30  C   UNL     1       2.894   2.811  18.425  0.00  0.00    +0.000 A 
ENDBRANCH  24  25
ENDBRANCH  23  24
ENDBRANCH   7  23
TORSDOF 9
ENDMDL
MODEL 3
REMARK VINA RESULT:      -7.5      1.734      4.328
REMARK  Name = 
REMARK  10 active torsions:
REMARK  status: ('A' for Active; 'I' for Inactive)
REMARK    1  A    between atoms: C_1  and  C_2
REMARK    2  A    between atoms: C_6  and  C_7
REMARK    3  A    between atoms: C_9  and  C_10
REMARK    4  A    between atoms: C_15  and  C_16
REMARK    5  A    between atoms: C_16  and  C_17
REMARK    6  A    between atoms: C_17  and  C_18
REMARK    7  A    between atoms: C_18  and  O_20
REMARK    8  A    between atoms: C_21  and  O_22
REMARK    9  A    between atoms: O_22  and  C_23
REMARK   10  A    between atoms: C_23  and  C_24
REMARK                            x       y       z     vdW  Elec       q    Type
REMARK                         _______ _______ _______ _____ _____    ______ ____
ROOT
ATOM      1  C   UNL     1       2.519   3.937  17.134  0.00  0.00    +0.000 C 
ATOM      2  C   UNL     1       2.347   4.570  18.488  0.00  0.00    +0.000 A 
ATOM      3  C   UNL     1       2.075   3.701  19.556  0.00  0.00    +0.000 A 
ATOM      4  C   UNL     1       1.711   4.188  20.808  0.00  0.00    +0.000 A 
ATOM      5  C   UNL     1       1.573   5.563  21.008  0.00  0.00    +0.000 A 
ATOM      6  C   UNL     1       1.857   6.479  19.981  0.00  0.00    +0.000 A 
ATOM      7  C   UNL     1       2.315   5.960  18.729  0.00  0.00    +0.000 A 
ENDROOT
BRANCH   6   8
ATOM      8  C   UNL     1       1.728   7.995  20.154  0.00  0.00    +0.000 C 
ATOM      9  C   UNL     1       1.333   8.409  21.559  0.00  0.00    +0.000 C 
ATOM     10  C   UNL     1       0.502   8.862  20.401  0.00  0.00    +0.000 C 
BRANCH  10  11
ATOM     11  C   UNL     1       0.494  10.342  19.980  0.00  0.00    +0.000 A 
ATOM     12  C   UNL     1       1.231  11.257  20.770  0.00  0.00    +0.000 A 
ATOM     13  C   UNL     1       1.437  12.590  20.389  0.00  0.00    +0.000 A 
ATOM     14  C   UNL     1       0.914  13.056  19.195  0.00  0.00    +0.000 A 
ATOM     15  C   UNL     1       0.129  12.209  18.423  0.00  0.00    +0.000 A 
ATOM     16  C   UNL     1      -0.114  10.867  18.808  0.00  0.00    +0.000 A 
BRANCH  16  17
ATOM     17  C   UNL     1      -1.063  10.089  17.915  0.00  0.00    +0.000 C 
BRANCH  17  18
ATOM     18  C   UNL     1      -2.259  10.948  17.479  0.00  0.00    +0.000 C 
BRANCH  18  19
ATOM     19  C   UNL     1      -2.723  10.598  16.087  0.00  0.00    +0.000 C 
ATOM     20  O   UNL     1      -2.692   9.487  15.590  0.00  0.00    +0.000 OA
BRANCH  19  21
ATOM     21  O   UNL     1      -3.187  11.679  15.411  0.00  0.00    +0.000 OA
ATOM     22  H   UNL     1      -3.930  11.483  14.811  0.00  0.00    +0.000 HD
ENDBRANCH  19  21
ENDBRANCH  18  19
ENDBRANCH  17  18
ENDBRANCH  16  17
ENDBRANCH  10  11
ENDBRANCH   6   8
BRANCH   7  23
ATOM     23  O   UNL     1       2.632   6.951  17.821  0.00  0.00    +0.000 OA
BRANCH  23  24
ATOM     24  C   UNL     1       3.955   7.482  17.816  0.00  0.00    +0.000 C 
BRANCH  24  25
ATOM     25  C   UNL     1       4.959   6.532  17.196  0.00  0.00    +0.000 A 
ATOM     26  C   UNL     1       5.059   6.323  15.816  0.00  0.00    +0.000 A 
ATOM     27  C   UNL     1       5.880   5.307  15.318  0.00  0.00    +0.000 A 
ATOM     28  C   UNL     1       6.627   4.515  16.190  0.00  0.00    +0.000 A 
ATOM     29  C   UNL     1       6.609   4.779  17.555  0.00  0.00    +0.000 A 
ATOM     30  C   UNL     1       5.794   5.795  18.054  0.00  0.00    +0.000 A 
ENDBRANCH  24  25
ENDBRANCH  23  24
ENDBRANCH   7  23
TORSDOF 9
ENDMDL
MODEL 4
REMARK VINA RESULT:      -7.5      1.291      1.690
REMARK  Name = 
REMARK  10 active torsions:
REMARK  status: ('A' for Active; 'I' for Inactive)
REMARK    1  A    between atoms: C_1  and  C_2
REMARK    2  A    between atoms: C_6  and  C_7
REMARK    3  A    between atoms: C_9  and  C_10
REMARK    4  A    between atoms: C_15  and  C_16
REMARK    5  A    between atoms: C_16  and  C_17
REMARK    6  A    between atoms: C_17  and  C_18
REMARK    7  A    between atoms: C_18  and  O_20
REMARK    8  A    between atoms: C_21  and  O_22
REMARK    9  A    between atoms: O_22  and  C_23
REMARK   10  A    between atoms: C_23  and  C_24
REMARK                            x       y       z     vdW  Elec       q    Type
REMARK                         _______ _______ _______ _____ _____    ______ ____
ROOT
ATOM      1  C   UNL     1       7.833   4.380  17.827  0.00  0.00    +0.000 C 
ATOM      2  C   UNL     1       6.586   5.027  17.290  0.00  0.00    +0.000 A 
ATOM      3  C   UNL     1       6.609   5.409  15.939  0.00  0.00    +0.000 A 
ATOM      4  C   UNL     1       5.591   6.182  15.390  0.00  0.00    +0.000 A 
ATOM      5  C   UNL     1       4.540   6.625  16.195  0.00  0.00    +0.000 A 
ATOM      6  C   UNL     1       4.453   6.251  17.548  0.00  0.00    +0.000 A 
ATOM      7  C   UNL     1       5.464   5.383  18.069  0.00  0.00    +0.000 A 
ENDROOT
BRANCH   6   8
ATOM      8  C   UNL     1       3.317   6.704  18.469  0.00  0.00    +0.000 C 
ATOM      9  C   UNL     1       1.945   6.267  17.992  0.00  0.00    +0.000 C 
ATOM     10  C   UNL     1       2.204   7.718  18.243  0.00  0.00    +0.000 C 
BRANCH  10  11
ATOM     11  C   UNL     1       1.545   8.432  19.436  0.00  0.00    +0.000 A 
ATOM     12  C   UNL     1       1.470   7.732  20.665  0.00  0.00    +0.000 A 
ATOM     13  C   UNL     1       1.051   8.340  21.856  0.00  0.00    +0.000 A 
ATOM     14  C   UNL     1       0.693   9.677  21.861  0.00  0.00    +0.000 A 
ATOM     15  C   UNL     1       0.688  10.382  20.663  0.00  0.00    +0.000 A 
ATOM     16  C   UNL     1       1.082   9.775  19.444  0.00  0.00    +0.000 A 
BRANCH  16  17
ATOM     17  C   UNL     1       0.939  10.639  18.205  0.00  0.00    +0.000 C 
BRANCH  17  18
ATOM     18  C   UNL     1       2.216  11.447  17.930  0.00  0.00    +0.000 C 
BRANCH  18  19
ATOM     19  C   UNL     1       2.017  12.919  18.196  0.00  0.00    +0.000 C 
ATOM     20  O   UNL     1       2.904  13.726  18.402  0.00  0.00    +0.000 OA
BRANCH  19  21
ATOM     21  O   UNL     1       0.706  13.269  18.195  0.00  0.00    +0.000 OA
ATOM     22  H   UNL     1       0.407  13.691  19.022  0.00  0.00    +0.000 HD
ENDBRANCH  19  21
ENDBRANCH  18  19
ENDBRANCH  17  18
ENDBRANCH  16  17
ENDBRANCH  10  11
ENDBRANCH   6   8
BRANCH   7  23
ATOM     23  O   UNL     1       5.238   5.024  19.382  0.00  0.00    +0.000 OA
BRANCH  23  24
ATOM     24  C   UNL     1       4.966   3.658  19.686  0.00  0.00    +0.000 C 
BRANCH  24  25
ATOM     25  C   UNL     1       3.491   3.328  19.600  0.00  0.00    +0.000 A 
ATOM     26  C   UNL     1       2.919   2.674  18.502  0.00  0.00    +0.000 A 
ATOM     27  C   UNL     1       1.530   2.556  18.401  0.00  0.00    +0.000 A 
ATOM     28  C   UNL     1       0.706   3.061  19.407  0.00  0.00    +0.000 A 
ATOM     29  C   UNL     1       1.268   3.624  20.547  0.00  0.00    +0.000 A 
ATOM     30  C   UNL     1       2.654   3.739  20.652  0.00  0.00    +0.000 A 
ENDBRANCH  24  25
ENDBRANCH  23  24
ENDBRANCH   7  23
TORSDOF 9
ENDMDL
MODEL 5
REMARK VINA RESULT:      -7.4      1.529      4.324
REMARK  Name = 
REMARK  10 active torsions:
REMARK  status: ('A' for Active; 'I' for Inactive)
REMARK    1  A    between atoms: C_1  and  C_2
REMARK    2  A    between atoms: C_6  and  C_7
REMARK    3  A    between atoms: C_9  and  C_10
REMARK    4  A    between atoms: C_15  and  C_16
REMARK    5  A    between atoms: C_16  and  C_17
REMARK    6  A    between atoms: C_17  and  C_18
REMARK    7  A    between atoms: C_18  and  O_20
REMARK    8  A    between atoms: C_21  and  O_22
REMARK    9  A    between atoms: O_22  and  C_23
REMARK   10  A    between atoms: C_23  and  C_24
REMARK                            x       y       z     vdW  Elec       q    Type
REMARK                         _______ _______ _______ _____ _____    ______ ____
ROOT
ATOM      1  C   UNL     1       2.680   3.894  17.139  0.00  0.00    +0.000 C 
ATOM      2  C   UNL     1       2.428   4.522  18.483  0.00  0.00    +0.000 A 
ATOM      3  C   UNL     1       2.059   3.653  19.522  0.00  0.00    +0.000 A 
ATOM      4  C   UNL     1       1.619   4.141  20.749  0.00  0.00    +0.000 A 
ATOM      5  C   UNL     1       1.502   5.518  20.950  0.00  0.00    +0.000 A 
ATOM      6  C   UNL     1       1.882   6.434  19.953  0.00  0.00    +0.000 A 
ATOM      7  C   UNL     1       2.415   5.912  18.733  0.00  0.00    +0.000 A 
ENDROOT
BRANCH   6   8
ATOM      8  C   UNL     1       1.779   7.951  20.130  0.00  0.00    +0.000 C 
ATOM      9  C   UNL     1       1.464   8.372  21.553  0.00  0.00    +0.000 C 
ATOM     10  C   UNL     1       0.579   8.833  20.440  0.00  0.00    +0.000 C 
BRANCH  10  11
ATOM     11  C   UNL     1       0.565  10.312  20.016  0.00  0.00    +0.000 A 
ATOM     12  C   UNL     1       1.199  11.248  20.869  0.00  0.00    +0.000 A 
ATOM     13  C   UNL     1       1.400  12.587  20.505  0.00  0.00    +0.000 A 
ATOM     14  C   UNL     1       0.974  13.038  19.268  0.00  0.00    +0.000 A 
ATOM     15  C   UNL     1       0.288  12.168  18.429  0.00  0.00    +0.000 A 
ATOM     16  C   UNL     1       0.051  10.819  18.793  0.00  0.00    +0.000 A 
BRANCH  16  17
ATOM     17  C   UNL     1      -0.789  10.014  17.818  0.00  0.00    +0.000 C 
BRANCH  17  18
ATOM     18  C   UNL     1      -2.289  10.149  18.120  0.00  0.00    +0.000 C 
BRANCH  18  19
ATOM     19  C   UNL     1      -2.961  11.133  17.194  0.00  0.00    +0.000 C 
ATOM     20  O   UNL     1      -4.069  11.611  17.354  0.00  0.00    +0.000 OA
BRANCH  19  21
ATOM     21  O   UNL     1      -2.190  11.440  16.121  0.00  0.00    +0.000 OA
ATOM     22  H   UNL     1      -2.517  11.073  15.279  0.00  0.00    +0.000 HD
ENDBRANCH  19  21
ENDBRANCH  18  19
ENDBRANCH  17  18
ENDBRANCH  16  17
ENDBRANCH  10  11
ENDBRANCH   6   8
BRANCH   7  23
ATOM     23  O   UNL     1       2.821   6.900  17.859  0.00  0.00    +0.000 OA
BRANCH  23  24
ATOM     24  C   UNL     1       4.186   7.312  17.871  0.00  0.00    +0.000 C 
BRANCH  24  25
ATOM     25  C   UNL     1       5.105   6.296  17.226  0.00  0.00    +0.000 A 
ATOM     26  C   UNL     1       6.025   5.531  17.952  0.00  0.00    +0.000 A 
ATOM     27  C   UNL     1       6.965   4.742  17.282  0.00  0.00    +0.000 A 
ATOM     28  C   UNL     1       6.973   4.688  15.888  0.00  0.00    +0.000 A 
ATOM     29  C   UNL     1       6.001   5.367  15.162  0.00  0.00    +0.000 A 
ATOM     30  C   UNL     1       5.060   6.151  15.828  0.00  0.00    +0.000 A 
ENDBRANCH  24  25
ENDBRANCH  23  24
ENDBRANCH   7  23
TORSDOF 9
ENDMDL
MODEL 6
REMARK VINA RESULT:      -7.1      2.176      4.792
REMARK  Name = 
REMARK  10 active torsions:
REMARK  status: ('A' for Active; 'I' for Inactive)
REMARK    1  A    between atoms: C_1  and  C_2
REMARK    2  A    between atoms: C_6  and  C_7
REMARK    3  A    between atoms: C_9  and  C_10
REMARK    4  A    between atoms: C_15  and  C_16
REMARK    5  A    between atoms: C_16  and  C_17
REMARK    6  A    between atoms: C_17  and  C_18
REMARK    7  A    between atoms: C_18  and  O_20
REMARK    8  A    between atoms: C_21  and  O_22
REMARK    9  A    between atoms: O_22  and  C_23
REMARK   10  A    between atoms: C_23  and  C_24
REMARK                            x       y       z     vdW  Elec       q    Type
REMARK                         _______ _______ _______ _____ _____    ______ ____
ROOT
ATOM      1  C   UNL     1       2.481   3.683  17.178  0.00  0.00    +0.000 C 
ATOM      2  C   UNL     1       2.394   4.399  18.499  0.00  0.00    +0.000 A 
ATOM      3  C   UNL     1       2.157   3.602  19.630  0.00  0.00    +0.000 A 
ATOM      4  C   UNL     1       1.871   4.171  20.867  0.00  0.00    +0.000 A 
ATOM      5  C   UNL     1       1.775   5.559  20.991  0.00  0.00    +0.000 A 
ATOM      6  C   UNL     1       2.028   6.405  19.897  0.00  0.00    +0.000 A 
ATOM      7  C   UNL     1       2.408   5.802  18.657  0.00  0.00    +0.000 A 
ENDROOT
BRANCH   6   8
ATOM      8  C   UNL     1       1.944   7.931  19.985  0.00  0.00    +0.000 C 
ATOM      9  C   UNL     1       1.035   8.421  21.097  0.00  0.00    +0.000 C 
ATOM     10  C   UNL     1       0.788   8.878  19.695  0.00  0.00    +0.000 C 
BRANCH  10  11
ATOM     11  C   UNL     1       1.056  10.338  19.292  0.00  0.00    +0.000 A 
ATOM     12  C   UNL     1       2.192  10.603  18.490  0.00  0.00    +0.000 A 
ATOM     13  C   UNL     1       2.440  11.860  17.922  0.00  0.00    +0.000 A 
ATOM     14  C   UNL     1       1.553  12.901  18.135  0.00  0.00    +0.000 A 
ATOM     15  C   UNL     1       0.461  12.701  18.970  0.00  0.00    +0.000 A 
ATOM     16  C   UNL     1       0.212  11.444  19.577  0.00  0.00    +0.000 A 
BRANCH  16  17
ATOM     17  C   UNL     1      -0.964  11.400  20.535  0.00  0.00    +0.000 C 
BRANCH  17  18
ATOM     18  C   UNL     1      -0.598  11.991  21.905  0.00  0.00    +0.000 C 
BRANCH  18  19
ATOM     19  C   UNL     1      -1.161  11.169  23.038  0.00  0.00    +0.000 C 
ATOM     20  O   UNL     1      -0.594  10.244  23.590  0.00  0.00    +0.000 OA
BRANCH  19  21
ATOM     21  O   UNL     1      -2.409  11.566  23.393  0.00  0.00    +0.000 OA
ATOM     22  H   UNL     1      -3.097  10.891  23.245  0.00  0.00    +0.000 HD
ENDBRANCH  19  21
ENDBRANCH  18  19
ENDBRANCH  17  18
ENDBRANCH  16  17
ENDBRANCH  10  11
ENDBRANCH   6   8
BRANCH   7  23
ATOM     23  O   UNL     1       2.701   6.728  17.677  0.00  0.00    +0.000 OA
BRANCH  23  24
ATOM     24  C   UNL     1       4.022   7.258  17.603  0.00  0.00    +0.000 C 
BRANCH  24  25
ATOM     25  C   UNL     1       5.050   6.204  17.244  0.00  0.00    +0.000 A 
ATOM     26  C   UNL     1       5.911   5.627  18.184  0.00  0.00    +0.000 A 
ATOM     27  C   UNL     1       6.953   4.795  17.764  0.00  0.00    +0.000 A 
ATOM     28  C   UNL     1       7.123   4.510  16.410  0.00  0.00    +0.000 A 
ATOM     29  C   UNL     1       6.214   4.999  15.478  0.00  0.00    +0.000 A 
ATOM     30  C   UNL     1       5.172   5.826  15.895  0.00  0.00    +0.000 A 
ENDBRANCH  24  25
ENDBRANCH  23  24
ENDBRANCH   7  23
TORSDOF 9
ENDMDL
MODEL 7
REMARK VINA RESULT:      -7.0      1.107      1.506
REMARK  Name = 
REMARK  10 active torsions:
REMARK  status: ('A' for Active; 'I' for Inactive)
REMARK    1  A    between atoms: C_1  and  C_2
REMARK    2  A    between atoms: C_6  and  C_7
REMARK    3  A    between atoms: C_9  and  C_10
REMARK    4  A    between atoms: C_15  and  C_16
REMARK    5  A    between atoms: C_16  and  C_17
REMARK    6  A    between atoms: C_17  and  C_18
REMARK    7  A    between atoms: C_18  and  O_20
REMARK    8  A    between atoms: C_21  and  O_22
REMARK    9  A    between atoms: O_22  and  C_23
REMARK   10  A    between atoms: C_23  and  C_24
REMARK                            x       y       z     vdW  Elec       q    Type
REMARK                         _______ _______ _______ _____ _____    ______ ____
ROOT
ATOM      1  C   UNL     1       6.059   3.464  15.615  0.00  0.00    +0.000 C 
ATOM      2  C   UNL     1       5.855   4.820  16.233  0.00  0.00    +0.000 A 
ATOM      3  C   UNL     1       6.982   5.655  16.299  0.00  0.00    +0.000 A 
ATOM      4  C   UNL     1       6.956   6.848  17.016  0.00  0.00    +0.000 A 
ATOM      5  C   UNL     1       5.807   7.213  17.720  0.00  0.00    +0.000 A 
ATOM      6  C   UNL     1       4.642   6.427  17.668  0.00  0.00    +0.000 A 
ATOM      7  C   UNL     1       4.663   5.252  16.853  0.00  0.00    +0.000 A 
ENDROOT
BRANCH   6   8
ATOM      8  C   UNL     1       3.356   6.789  18.416  0.00  0.00    +0.000 C 
ATOM      9  C   UNL     1       2.108   6.668  17.560  0.00  0.00    +0.000 C 
ATOM     10  C   UNL     1       2.407   7.966  18.241  0.00  0.00    +0.000 C 
BRANCH  10  11
ATOM     11  C   UNL     1       1.537   8.450  19.414  0.00  0.00    +0.000 A 
ATOM     12  C   UNL     1       1.793   7.902  20.694  0.00  0.00    +0.000 A 
ATOM     13  C   UNL     1       1.185   8.389  21.860  0.00  0.00    +0.000 A 
ATOM     14  C   UNL     1       0.298   9.449  21.785  0.00  0.00    +0.000 A 
ATOM     15  C   UNL     1      -0.031   9.971  20.540  0.00  0.00    +0.000 A 
ATOM     16  C   UNL     1       0.552   9.471  19.349  0.00  0.00    +0.000 A 
BRANCH  16  17
ATOM     17  C   UNL     1       0.030  10.076  18.058  0.00  0.00    +0.000 C 
BRANCH  17  18
ATOM     18  C   UNL     1      -1.502  10.185  18.066  0.00  0.00    +0.000 C 
BRANCH  18  19
ATOM     19  C   UNL     1      -2.005  11.098  16.975  0.00  0.00    +0.000 C 
ATOM     20  O   UNL     1      -2.618  10.745  15.985  0.00  0.00    +0.000 OA
BRANCH  19  21
ATOM     21  O   UNL     1      -1.690  12.397  17.205  0.00  0.00    +0.000 OA
ATOM     22  H   UNL     1      -2.368  12.888  17.705  0.00  0.00    +0.000 HD
ENDBRANCH  19  21
ENDBRANCH  18  19
ENDBRANCH  17  18
ENDBRANCH  16  17
ENDBRANCH  10  11
ENDBRANCH   6   8
BRANCH   7  23
ATOM     23  O   UNL     1       3.447   4.600  16.820  0.00  0.00    +0.000 OA
BRANCH  23  24
ATOM     24  C   UNL     1       3.366   3.267  17.320  0.00  0.00    +0.000 C 
BRANCH  24  25
ATOM     25  C   UNL     1       2.623   3.186  18.638  0.00  0.00    +0.000 A 
ATOM     26  C   UNL     1       1.228   3.109  18.722  0.00  0.00    +0.000 A 
ATOM     27  C   UNL     1       0.593   3.215  19.963  0.00  0.00    +0.000 A 
ATOM     28  C   UNL     1       1.346   3.369  21.127  0.00  0.00    +0.000 A 
ATOM     29  C   UNL     1       2.735   3.349  21.064  0.00  0.00    +0.000 A 
ATOM     30  C   UNL     1       3.370   3.239  19.828  0.00  0.00    +0.000 A 
ENDBRANCH  24  25
ENDBRANCH  23  24
ENDBRANCH   7  23
TORSDOF 9
ENDMDL
MODEL 8
REMARK VINA RESULT:      -6.9      1.875      7.876
REMARK  Name = 
REMARK  10 active torsions:
REMARK  status: ('A' for Active; 'I' for Inactive)
REMARK    1  A    between atoms: C_1  and  C_2
REMARK    2  A    between atoms: C_6  and  C_7
REMARK    3  A    between atoms: C_9  and  C_10
REMARK    4  A    between atoms: C_15  and  C_16
REMARK    5  A    between atoms: C_16  and  C_17
REMARK    6  A    between atoms: C_17  and  C_18
REMARK    7  A    between atoms: C_18  and  O_20
REMARK    8  A    between atoms: C_21  and  O_22
REMARK    9  A    between atoms: O_22  and  C_23
REMARK   10  A    between atoms: C_23  and  C_24
REMARK                            x       y       z     vdW  Elec       q    Type
REMARK                         _______ _______ _______ _____ _____    ______ ____
ROOT
ATOM      1  C   UNL     1      -0.977  13.731  19.057  0.00  0.00    +0.000 C 
ATOM      2  C   UNL     1      -0.856  12.364  18.442  0.00  0.00    +0.000 A 
ATOM      3  C   UNL     1      -1.962  11.906  17.707  0.00  0.00    +0.000 A 
ATOM      4  C   UNL     1      -2.036  10.591  17.258  0.00  0.00    +0.000 A 
ATOM      5  C   UNL     1      -1.017   9.689  17.569  0.00  0.00    +0.000 A 
ATOM      6  C   UNL     1       0.125  10.100  18.279  0.00  0.00    +0.000 A 
ATOM      7  C   UNL     1       0.222  11.477  18.654  0.00  0.00    +0.000 A 
ENDROOT
BRANCH   6   8
ATOM      8  C   UNL     1       1.272   9.151  18.637  0.00  0.00    +0.000 C 
ATOM      9  C   UNL     1       2.479   9.297  17.729  0.00  0.00    +0.000 C 
ATOM     10  C   UNL     1       1.838   7.955  17.886  0.00  0.00    +0.000 C 
BRANCH  10  11
ATOM     11  C   UNL     1       2.563   6.828  18.643  0.00  0.00    +0.000 A 
ATOM     12  C   UNL     1       1.966   6.341  19.831  0.00  0.00    +0.000 A 
ATOM     13  C   UNL     1       2.441   5.209  20.507  0.00  0.00    +0.000 A 
ATOM     14  C   UNL     1       3.535   4.518  20.013  0.00  0.00    +0.000 A 
ATOM     15  C   UNL     1       4.190   5.002  18.887  0.00  0.00    +0.000 A 
ATOM     16  C   UNL     1       3.740   6.162  18.209  0.00  0.00    +0.000 A 
BRANCH  16  17
ATOM     17  C   UNL     1       4.608   6.623  17.051  0.00  0.00    +0.000 C 
BRANCH  17  18
ATOM     18  C   UNL     1       6.090   6.306  17.296  0.00  0.00    +0.000 C 
BRANCH  18  19
ATOM     19  C   UNL     1       6.644   5.370  16.251  0.00  0.00    +0.000 C 
ATOM     20  O   UNL     1       6.799   5.637  15.074  0.00  0.00    +0.000 OA
BRANCH  19  21
ATOM     21  O   UNL     1       6.955   4.153  16.762  0.00  0.00    +0.000 OA
ATOM     22  H   UNL     1       7.838   3.828  16.506  0.00  0.00    +0.000 HD
ENDBRANCH  19  21
ENDBRANCH  18  19
ENDBRANCH  17  18
ENDBRANCH  16  17
ENDBRANCH  10  11
ENDBRANCH   6   8
BRANCH   7  23
ATOM     23  O   UNL     1       1.413  11.780  19.280  0.00  0.00    +0.000 OA
BRANCH  23  24
ATOM     24  C   UNL     1       1.380  12.310  20.604  0.00  0.00    +0.000 C 
BRANCH  24  25
ATOM     25  C   UNL     1       0.700  11.376  21.585  0.00  0.00    +0.000 A 
ATOM     26  C   UNL     1       1.136  10.067  21.818  0.00  0.00    +0.000 A 
ATOM     27  C   UNL     1       0.365   9.200  22.598  0.00  0.00    +0.000 A 
ATOM     28  C   UNL     1      -0.826   9.641  23.174  0.00  0.00    +0.000 A 
ATOM     29  C   UNL     1      -1.217  10.968  23.029  0.00  0.00    +0.000 A 
ATOM     30  C   UNL     1      -0.447  11.836  22.254  0.00  0.00    +0.000 A 
ENDBRANCH  24  25
ENDBRANCH  23  24
ENDBRANCH   7  23
TORSDOF 9
ENDMDL
MODEL 9
REMARK VINA RESULT:      -6.9      2.472      7.037
REMARK  Name = 
REMARK  10 active torsions:
REMARK  status: ('A' for Active; 'I' for Inactive)
REMARK    1  A    between atoms: C_1  and  C_2
REMARK    2  A    between atoms: C_6  and  C_7
REMARK    3  A    between atoms: C_9  and  C_10
REMARK    4  A    between atoms: C_15  and  C_16
REMARK    5  A    between atoms: C_16  and  C_17
REMARK    6  A    between atoms: C_17  and  C_18
REMARK    7  A    between atoms: C_18  and  O_20
REMARK    8  A    between atoms: C_21  and  O_22
REMARK    9  A    between atoms: O_22  and  C_23
REMARK   10  A    between atoms: C_23  and  C_24
REMARK                            x       y       z     vdW  Elec       q    Type
REMARK                         _______ _______ _______ _____ _____    ______ ____
ROOT
ATOM      1  C   UNL     1       0.189   8.705  21.449  0.00  0.00    +0.000 C 
ATOM      2  C   UNL     1       1.027   8.874  20.211  0.00  0.00    +0.000 A 
ATOM      3  C   UNL     1       0.794  10.030  19.450  0.00  0.00    +0.000 A 
ATOM      4  C   UNL     1       1.372  10.196  18.194  0.00  0.00    +0.000 A 
ATOM      5  C   UNL     1       2.168   9.184  17.654  0.00  0.00    +0.000 A 
ATOM      6  C   UNL     1       2.455   8.017  18.384  0.00  0.00    +0.000 A 
ATOM      7  C   UNL     1       1.924   7.907  19.708  0.00  0.00    +0.000 A 
ENDROOT
BRANCH   6   8
ATOM      8  C   UNL     1       3.329   6.884  17.838  0.00  0.00    +0.000 C 
ATOM      9  C   UNL     1       4.484   6.521  18.752  0.00  0.00    +0.000 C 
ATOM     10  C   UNL     1       4.764   6.896  17.332  0.00  0.00    +0.000 C 
BRANCH  10  11
ATOM     11  C   UNL     1       5.247   5.836  16.327  0.00  0.00    +0.000 A 
ATOM     12  C   UNL     1       4.893   6.008  14.967  0.00  0.00    +0.000 A 
ATOM     13  C   UNL     1       5.417   5.207  13.943  0.00  0.00    +0.000 A 
ATOM     14  C   UNL     1       6.322   4.203  14.245  0.00  0.00    +0.000 A 
ATOM     15  C   UNL     1       6.644   3.959  15.574  0.00  0.00    +0.000 A 
ATOM     16  C   UNL     1       6.100   4.740  16.625  0.00  0.00    +0.000 A 
BRANCH  16  17
ATOM     17  C   UNL     1       6.470   4.300  18.029  0.00  0.00    +0.000 C 
BRANCH  17  18
ATOM     18  C   UNL     1       7.932   4.637  18.360  0.00  0.00    +0.000 C 
BRANCH  18  19
ATOM     19  C   UNL     1       8.035   5.663  19.461  0.00  0.00    +0.000 C 
ATOM     20  O   UNL     1       7.903   5.439  20.650  0.00  0.00    +0.000 OA
BRANCH  19  21
ATOM     21  O   UNL     1       8.289   6.907  18.984  0.00  0.00    +0.000 OA
ATOM     22  H   UNL     1       8.282   7.603  19.668  0.00  0.00    +0.000 HD
ENDBRANCH  19  21
ENDBRANCH  18  19
ENDBRANCH  17  18
ENDBRANCH  16  17
ENDBRANCH  10  11
ENDBRANCH   6   8
BRANCH   7  23
ATOM     23  O   UNL     1       2.328   6.757  20.354  0.00  0.00    +0.000 OA
BRANCH  23  24
ATOM     24  C   UNL     1       1.347   5.784  20.706  0.00  0.00    +0.000 C 
BRANCH  24  25
ATOM     25  C   UNL     1       1.616   4.434  20.075  0.00  0.00    +0.000 A 
ATOM     26  C   UNL     1       1.576   4.218  18.692  0.00  0.00    +0.000 A 
ATOM     27  C   UNL     1       1.657   2.918  18.183  0.00  0.00    +0.000 A 
ATOM     28  C   UNL     1       1.808   1.833  19.045  0.00  0.00    +0.000 A 
ATOM     29  C   UNL     1       1.947   2.046  20.412  0.00  0.00    +0.000 A 
ATOM     30  C   UNL     1       1.870   3.342  20.922  0.00  0.00    +0.000 A 
ENDBRANCH  24  25
ENDBRANCH  23  24
ENDBRANCH   7  23
TORSDOF 9
ENDMDL
