MODEL 1
REMARK VINA RESULT:      -9.1      0.000      0.000
REMARK  Name = 
REMARK  11 active torsions:
REMARK  status: ('A' for Active; 'I' for Inactive)
REMARK    1  A    between atoms: C_1  and  C_2
REMARK    2  A    between atoms: N_14  and  C_15
REMARK    3  A    between atoms: C_15  and  C_16
REMARK    4  A    between atoms: C_16  and  C_17
REMARK    5  A    between atoms: C_17  and  C_18
REMARK    6  A    between atoms: C_18  and  C_19
REMARK    7  A    between atoms: C_19  and  C_20
REMARK    8  A    between atoms: C_20  and  C_21
REMARK    9  A    between atoms: C_21  and  C_22
REMARK   10  A    between atoms: C_22  and  N_23
REMARK   11  A    between atoms: C_35  and  C_36
REMARK                            x       y       z     vdW  Elec       q    Type
REMARK                         _______ _______ _______ _____ _____    ______ ____
ROOT
ATOM      1  C   UNL     1       1.083   5.031  20.457  0.00  0.00    +0.000 C 
ENDROOT
BRANCH   1   2
ATOM      2  C   UNL     1       1.966   6.268  20.265  0.00  0.00    +0.000 C 
BRANCH   2   3
ATOM      3  C   UNL     1       1.318   7.440  21.003  0.00  0.00    +0.000 C 
BRANCH   3   4
ATOM      4  C   UNL     1       1.402   8.764  20.257  0.00  0.00    +0.000 C 
BRANCH   4  18
ATOM      5  C   UNL     1      -0.029  10.785  18.682  0.00  0.00    +0.000 C 
ATOM      6  C   UNL     1      -0.234  10.648  20.165  0.00  0.00    +0.000 A 
ATOM      7  C   UNL     1      -1.139  11.450  20.876  0.00  0.00    +0.000 A 
ATOM      8  N   UNL     1      -1.964  12.468  20.438  0.00  0.00    +0.000 N 
ATOM      9  C   UNL     1      -2.690  12.999  21.476  0.00  0.00    +0.000 A 
ATOM     10  C   UNL     1      -3.624  14.043  21.480  0.00  0.00    +0.000 A 
ATOM     11  C   UNL     1      -4.213  14.377  22.699  0.00  0.00    +0.000 A 
ATOM     12  C   UNL     1      -3.884  13.694  23.867  0.00  0.00    +0.000 A 
ATOM     13  C   UNL     1      -2.949  12.652  23.844  0.00  0.00    +0.000 A 
ATOM     14  C   UNL     1      -2.338  12.298  22.625  0.00  0.00    +0.000 A 
ATOM     15  C   UNL     1      -1.362  11.324  22.242  0.00  0.00    +0.000 A 
ATOM     16  C   UNL     1      -0.651  10.346  22.941  0.00  0.00    +0.000 A 
ATOM     17  C   UNL     1       0.244   9.567  22.229  0.00  0.00    +0.000 A 
ATOM     18  N   UNL     1       0.440   9.714  20.896  0.00  0.00    +0.000 N 
ATOM     19  H   UNL     1      -2.034  12.798  19.485  0.00  0.00    +0.000 HD
ENDBRANCH   4  18
ENDBRANCH   3   4
ENDBRANCH   2   3
ENDBRANCH   1   2
BRANCH   1  20
ATOM     20  C   UNL     1       1.651   3.973  21.389  0.00  0.00    +0.000 C 
BRANCH  20  21
ATOM     21  C   UNL     1       1.262   2.531  21.052  0.00  0.00    +0.000 C 
BRANCH  21  22
ATOM     22  C   UNL     1       0.995   2.445  19.550  0.00  0.00    +0.000 C 
BRANCH  22  23
ATOM     23  C   UNL     1       2.165   1.901  18.743  0.00  0.00    +0.000 C 
BRANCH  23  24
ATOM     24  N   UNL     1       3.132   3.022  18.524  0.00  0.00    +0.000 N 
ATOM     25  C   UNL     1       2.797   3.938  17.582  0.00  0.00    +0.000 A 
ATOM     26  C   UNL     1       3.623   5.001  17.251  0.00  0.00    +0.000 A 
ATOM     27  C   UNL     1       4.836   5.122  17.937  0.00  0.00    +0.000 A 
ATOM     28  C   UNL     1       5.150   4.166  18.897  0.00  0.00    +0.000 A 
ATOM     29  N   UNL     1       6.386   4.516  19.406  0.00  0.00    +0.000 N 
ATOM     30  C   UNL     1       6.862   5.660  18.816  0.00  0.00    +0.000 A 
ATOM     31  C   UNL     1       8.054   6.359  19.040  0.00  0.00    +0.000 A 
ATOM     32  C   UNL     1       8.277   7.512  18.284  0.00  0.00    +0.000 A 
ATOM     33  C   UNL     1       7.348   7.943  17.340  0.00  0.00    +0.000 A 
ATOM     34  C   UNL     1       6.161   7.231  17.126  0.00  0.00    +0.000 A 
ATOM     35  C   UNL     1       5.910   6.066  17.881  0.00  0.00    +0.000 A 
ATOM     36  C   UNL     1       4.308   3.087  19.214  0.00  0.00    +0.000 A 
ATOM     37  C   UNL     1       4.675   2.049  20.236  0.00  0.00    +0.000 C 
ATOM     38  H   UNL     1       6.894   4.018  20.124  0.00  0.00    +0.000 HD
ENDBRANCH  23  24
ENDBRANCH  22  23
ENDBRANCH  21  22
ENDBRANCH  20  21
ENDBRANCH   1  20
TORSDOF 9
ENDMDL
MODEL 2
REMARK VINA RESULT:      -8.9      1.224      9.866
REMARK  Name = 
REMARK  11 active torsions:
REMARK  status: ('A' for Active; 'I' for Inactive)
REMARK    1  A    between atoms: C_1  and  C_2
REMARK    2  A    between atoms: N_14  and  C_15
REMARK    3  A    between atoms: C_15  and  C_16
REMARK    4  A    between atoms: C_16  and  C_17
REMARK    5  A    between atoms: C_17  and  C_18
REMARK    6  A    between atoms: C_18  and  C_19
REMARK    7  A    between atoms: C_19  and  C_20
REMARK    8  A    between atoms: C_20  and  C_21
REMARK    9  A    between atoms: C_21  and  C_22
REMARK   10  A    between atoms: C_22  and  N_23
REMARK   11  A    between atoms: C_35  and  C_36
REMARK                            x       y       z     vdW  Elec       q    Type
REMARK                         _______ _______ _______ _____ _____    ______ ____
ROOT
ATOM      1  C   UNL     1       0.673   4.584  20.228  0.00  0.00    +0.000 C 
ENDROOT
BRANCH   1   2
ATOM      2  C   UNL     1       1.082   3.113  20.360  0.00  0.00    +0.000 C 
BRANCH   2   3
ATOM      3  C   UNL     1       0.912   2.444  18.995  0.00  0.00    +0.000 C 
BRANCH   3   4
ATOM      4  C   UNL     1       2.195   1.846  18.434  0.00  0.00    +0.000 C 
BRANCH   4  18
ATOM      5  C   UNL     1       4.473   2.122  20.264  0.00  0.00    +0.000 C 
ATOM      6  C   UNL     1       4.254   3.078  19.123  0.00  0.00    +0.000 A 
ATOM      7  C   UNL     1       5.137   4.132  18.847  0.00  0.00    +0.000 A 
ATOM      8  N   UNL     1       6.292   4.523  19.496  0.00  0.00    +0.000 N 
ATOM      9  C   UNL     1       6.852   5.623  18.893  0.00  0.00    +0.000 A 
ATOM     10  C   UNL     1       8.005   6.343  19.229  0.00  0.00    +0.000 A 
ATOM     11  C   UNL     1       8.339   7.437  18.429  0.00  0.00    +0.000 A 
ATOM     12  C   UNL     1       7.553   7.793  17.335  0.00  0.00    +0.000 A 
ATOM     13  C   UNL     1       6.405   7.059  17.014  0.00  0.00    +0.000 A 
ATOM     14  C   UNL     1       6.045   5.953  17.809  0.00  0.00    +0.000 A 
ATOM     15  C   UNL     1       4.967   5.012  17.783  0.00  0.00    +0.000 A 
ATOM     16  C   UNL     1       3.864   4.834  16.947  0.00  0.00    +0.000 A 
ATOM     17  C   UNL     1       2.997   3.794  17.236  0.00  0.00    +0.000 A 
ATOM     18  N   UNL     1       3.189   2.953  18.280  0.00  0.00    +0.000 N 
ATOM     19  H   UNL     1       6.687   4.076  20.312  0.00  0.00    +0.000 HD
ENDBRANCH   4  18
ENDBRANCH   3   4
ENDBRANCH   2   3
ENDBRANCH   1   2
BRANCH   1  20
ATOM     20  C   UNL     1       1.685   5.583  20.766  0.00  0.00    +0.000 C 
BRANCH  20  21
ATOM     21  C   UNL     1       2.390   6.432  19.705  0.00  0.00    +0.000 C 
BRANCH  21  22
ATOM     22  C   UNL     1       1.850   7.859  19.797  0.00  0.00    +0.000 C 
BRANCH  22  23
ATOM     23  C   UNL     1       1.177   8.183  21.123  0.00  0.00    +0.000 C 
BRANCH  23  24
ATOM     24  N   UNL     1       0.645   9.579  21.038  0.00  0.00    +0.000 N 
ATOM     25  C   UNL     1       0.817  10.225  19.858  0.00  0.00    +0.000 A 
ATOM     26  C   UNL     1       0.410  11.535  19.661  0.00  0.00    +0.000 A 
ATOM     27  C   UNL     1      -0.210  12.193  20.728  0.00  0.00    +0.000 A 
ATOM     28  C   UNL     1      -0.371  11.503  21.925  0.00  0.00    +0.000 A 
ATOM     29  N   UNL     1      -0.996  12.374  22.796  0.00  0.00    +0.000 N 
ATOM     30  C   UNL     1      -1.248  13.583  22.196  0.00  0.00    +0.000 A 
ATOM     31  C   UNL     1      -1.867  14.729  22.709  0.00  0.00    +0.000 A 
ATOM     32  C   UNL     1      -1.992  15.830  21.856  0.00  0.00    +0.000 A 
ATOM     33  C   UNL     1      -1.513  15.784  20.549  0.00  0.00    +0.000 A 
ATOM     34  C   UNL     1      -0.895  14.629  20.053  0.00  0.00    +0.000 A 
ATOM     35  C   UNL     1      -0.761  13.503  20.892  0.00  0.00    +0.000 A 
ATOM     36  C   UNL     1       0.057  10.178  22.115  0.00  0.00    +0.000 A 
ATOM     37  C   UNL     1      -0.102   9.457  23.423  0.00  0.00    +0.000 C 
ATOM     38  H   UNL     1      -1.254  12.173  23.753  0.00  0.00    +0.000 HD
ENDBRANCH  23  24
ENDBRANCH  22  23
ENDBRANCH  21  22
ENDBRANCH  20  21
ENDBRANCH   1  20
TORSDOF 9
ENDMDL
MODEL 3
REMARK VINA RESULT:      -8.8      5.022     10.971
REMARK  Name = 
REMARK  11 active torsions:
REMARK  status: ('A' for Active; 'I' for Inactive)
REMARK    1  A    between atoms: C_1  and  C_2
REMARK    2  A    between atoms: N_14  and  C_15
REMARK    3  A    between atoms: C_15  and  C_16
REMARK    4  A    between atoms: C_16  and  C_17
REMARK    5  A    between atoms: C_17  and  C_18
REMARK    6  A    between atoms: C_18  and  C_19
REMARK    7  A    between atoms: C_19  and  C_20
REMARK    8  A    between atoms: C_20  and  C_21
REMARK    9  A    between atoms: C_21  and  C_22
REMARK   10  A    between atoms: C_22  and  N_23
REMARK   11  A    between atoms: C_35  and  C_36
REMARK                            x       y       z     vdW  Elec       q    Type
REMARK                         _______ _______ _______ _____ _____    ______ ____
ROOT
ATOM      1  C   UNL     1       9.089   9.958  19.330  0.00  0.00    +0.000 C 
ENDROOT
BRANCH   1   2
ATOM      2  C   UNL     1       8.508   9.462  18.003  0.00  0.00    +0.000 C 
BRANCH   2   3
ATOM      3  C   UNL     1       7.989   8.039  18.208  0.00  0.00    +0.000 C 
BRANCH   3   4
ATOM      4  C   UNL     1       7.573   7.339  16.922  0.00  0.00    +0.000 C 
BRANCH   4  18
ATOM      5  C   UNL     1       7.808   4.544  17.785  0.00  0.00    +0.000 C 
ATOM      6  C   UNL     1       6.471   5.214  17.630  0.00  0.00    +0.000 A 
ATOM      7  C   UNL     1       5.264   4.558  17.917  0.00  0.00    +0.000 A 
ATOM      8  N   UNL     1       5.030   3.267  18.350  0.00  0.00    +0.000 N 
ATOM      9  C   UNL     1       3.686   3.032  18.502  0.00  0.00    +0.000 A 
ATOM     10  C   UNL     1       3.016   1.869  18.903  0.00  0.00    +0.000 A 
ATOM     11  C   UNL     1       1.623   1.915  18.966  0.00  0.00    +0.000 A 
ATOM     12  C   UNL     1       0.928   3.078  18.642  0.00  0.00    +0.000 A 
ATOM     13  C   UNL     1       1.615   4.231  18.244  0.00  0.00    +0.000 A 
ATOM     14  C   UNL     1       3.021   4.208  18.170  0.00  0.00    +0.000 A 
ATOM     15  C   UNL     1       4.018   5.166  17.803  0.00  0.00    +0.000 A 
ATOM     16  C   UNL     1       3.968   6.498  17.385  0.00  0.00    +0.000 A 
ATOM     17  C   UNL     1       5.166   7.129  17.099  0.00  0.00    +0.000 A 
ATOM     18  N   UNL     1       6.364   6.511  17.219  0.00  0.00    +0.000 N 
ATOM     19  H   UNL     1       5.741   2.571  18.530  0.00  0.00    +0.000 HD
ENDBRANCH   4  18
ENDBRANCH   3   4
ENDBRANCH   2   3
ENDBRANCH   1   2
BRANCH   1  20
ATOM     20  C   UNL     1      10.152  11.038  19.204  0.00  0.00    +0.000 C 
BRANCH  20  21
ATOM     21  C   UNL     1      10.241  12.007  20.386  0.00  0.00    +0.000 C 
BRANCH  21  22
ATOM     22  C   UNL     1      10.676  13.373  19.854  0.00  0.00    +0.000 C 
BRANCH  22  23
ATOM     23  C   UNL     1      10.123  13.706  18.476  0.00  0.00    +0.000 C 
BRANCH  23  24
ATOM     24  N   UNL     1       8.799  14.376  18.662  0.00  0.00    +0.000 N 
ATOM     25  C   UNL     1       8.749  15.379  19.573  0.00  0.00    +0.000 A 
ATOM     26  C   UNL     1       7.575  16.053  19.874  0.00  0.00    +0.000 A 
ATOM     27  C   UNL     1       6.414  15.677  19.189  0.00  0.00    +0.000 A 
ATOM     28  C   UNL     1       6.500  14.645  18.261  0.00  0.00    +0.000 A 
ATOM     29  N   UNL     1       5.229  14.478  17.746  0.00  0.00    +0.000 N 
ATOM     30  C   UNL     1       4.345  15.370  18.301  0.00  0.00    +0.000 A 
ATOM     31  C   UNL     1       2.978  15.550  18.059  0.00  0.00    +0.000 A 
ATOM     32  C   UNL     1       2.323  16.552  18.779  0.00  0.00    +0.000 A 
ATOM     33  C   UNL     1       3.007  17.335  19.706  0.00  0.00    +0.000 A 
ATOM     34  C   UNL     1       4.375  17.141  19.937  0.00  0.00    +0.000 A 
ATOM     35  C   UNL     1       5.060  16.138  19.219  0.00  0.00    +0.000 A 
ATOM     36  C   UNL     1       7.694  13.963  17.975  0.00  0.00    +0.000 A 
ATOM     37  C   UNL     1       7.762  12.833  16.988  0.00  0.00    +0.000 C 
ATOM     38  H   UNL     1       4.957  13.802  17.046  0.00  0.00    +0.000 HD
ENDBRANCH  23  24
ENDBRANCH  22  23
ENDBRANCH  21  22
ENDBRANCH  20  21
ENDBRANCH   1  20
TORSDOF 9
ENDMDL
MODEL 4
REMARK VINA RESULT:      -8.8      2.710      3.630
REMARK  Name = 
REMARK  11 active torsions:
REMARK  status: ('A' for Active; 'I' for Inactive)
REMARK    1  A    between atoms: C_1  and  C_2
REMARK    2  A    between atoms: N_14  and  C_15
REMARK    3  A    between atoms: C_15  and  C_16
REMARK    4  A    between atoms: C_16  and  C_17
REMARK    5  A    between atoms: C_17  and  C_18
REMARK    6  A    between atoms: C_18  and  C_19
REMARK    7  A    between atoms: C_19  and  C_20
REMARK    8  A    between atoms: C_20  and  C_21
REMARK    9  A    between atoms: C_21  and  C_22
REMARK   10  A    between atoms: C_22  and  N_23
REMARK   11  A    between atoms: C_35  and  C_36
REMARK                            x       y       z     vdW  Elec       q    Type
REMARK                         _______ _______ _______ _____ _____    ______ ____
ROOT
ATOM      1  C   UNL     1       2.412   8.176  17.686  0.00  0.00    +0.000 C 
ENDROOT
BRANCH   1   2
ATOM      2  C   UNL     1       1.220   9.122  17.866  0.00  0.00    +0.000 C 
BRANCH   2   3
ATOM      3  C   UNL     1       1.322   9.764  19.250  0.00  0.00    +0.000 C 
BRANCH   3   4
ATOM      4  C   UNL     1       1.138  11.275  19.248  0.00  0.00    +0.000 C 
BRANCH   4  18
ATOM      5  C   UNL     1      -1.427  12.262  18.219  0.00  0.00    +0.000 C 
ATOM      6  C   UNL     1      -1.194  12.051  19.689  0.00  0.00    +0.000 A 
ATOM      7  C   UNL     1      -2.191  12.281  20.648  0.00  0.00    +0.000 A 
ATOM      8  N   UNL     1      -3.490  12.727  20.497  0.00  0.00    +0.000 N 
ATOM      9  C   UNL     1      -4.127  12.818  21.711  0.00  0.00    +0.000 A 
ATOM     10  C   UNL     1      -5.429  13.235  22.014  0.00  0.00    +0.000 A 
ATOM     11  C   UNL     1      -5.812  13.229  23.355  0.00  0.00    +0.000 A 
ATOM     12  C   UNL     1      -4.931  12.821  24.353  0.00  0.00    +0.000 A 
ATOM     13  C   UNL     1      -3.633  12.406  24.030  0.00  0.00    +0.000 A 
ATOM     14  C   UNL     1      -3.221  12.407  22.683  0.00  0.00    +0.000 A 
ATOM     15  C   UNL     1      -2.005  12.069  22.010  0.00  0.00    +0.000 A 
ATOM     16  C   UNL     1      -0.762  11.600  22.442  0.00  0.00    +0.000 A 
ATOM     17  C   UNL     1       0.215  11.385  21.485  0.00  0.00    +0.000 A 
ATOM     18  N   UNL     1       0.003  11.601  20.165  0.00  0.00    +0.000 N 
ATOM     19  H   UNL     1      -3.929  12.967  19.619  0.00  0.00    +0.000 HD
ENDBRANCH   4  18
ENDBRANCH   3   4
ENDBRANCH   2   3
ENDBRANCH   1   2
BRANCH   1  20
ATOM     20  C   UNL     1       2.257   6.814  18.344  0.00  0.00    +0.000 C 
BRANCH  20  21
ATOM     21  C   UNL     1       2.997   6.645  19.673  0.00  0.00    +0.000 C 
BRANCH  21  22
ATOM     22  C   UNL     1       3.498   5.203  19.762  0.00  0.00    +0.000 C 
BRANCH  22  23
ATOM     23  C   UNL     1       5.002   5.057  19.577  0.00  0.00    +0.000 C 
BRANCH  23  24
ATOM     24  N   UNL     1       5.263   4.814  18.124  0.00  0.00    +0.000 N 
ATOM     25  C   UNL     1       4.452   3.925  17.501  0.00  0.00    +0.000 A 
ATOM     26  C   UNL     1       4.613   3.577  16.168  0.00  0.00    +0.000 A 
ATOM     27  C   UNL     1       5.650   4.189  15.456  0.00  0.00    +0.000 A 
ATOM     28  C   UNL     1       6.465   5.096  16.124  0.00  0.00    +0.000 A 
ATOM     29  N   UNL     1       7.394   5.538  15.203  0.00  0.00    +0.000 N 
ATOM     30  C   UNL     1       7.194   4.956  13.976  0.00  0.00    +0.000 A 
ATOM     31  C   UNL     1       7.892   5.127  12.774  0.00  0.00    +0.000 A 
ATOM     32  C   UNL     1       7.458   4.396  11.666  0.00  0.00    +0.000 A 
ATOM     33  C   UNL     1       6.374   3.526  11.760  0.00  0.00    +0.000 A 
ATOM     34  C   UNL     1       5.687   3.365  12.970  0.00  0.00    +0.000 A 
ATOM     35  C   UNL     1       6.104   4.096  14.102  0.00  0.00    +0.000 A 
ATOM     36  C   UNL     1       6.297   5.431  17.478  0.00  0.00    +0.000 A 
ATOM     37  C   UNL     1       7.202   6.394  18.191  0.00  0.00    +0.000 C 
ATOM     38  H   UNL     1       8.131   6.207  15.378  0.00  0.00    +0.000 HD
ENDBRANCH  23  24
ENDBRANCH  22  23
ENDBRANCH  21  22
ENDBRANCH  20  21
ENDBRANCH   1  20
TORSDOF 9
ENDMDL
MODEL 5
REMARK VINA RESULT:      -8.5      3.163     11.480
REMARK  Name = 
REMARK  11 active torsions:
REMARK  status: ('A' for Active; 'I' for Inactive)
REMARK    1  A    between atoms: C_1  and  C_2
REMARK    2  A    between atoms: N_14  and  C_15
REMARK    3  A    between atoms: C_15  and  C_16
REMARK    4  A    between atoms: C_16  and  C_17
REMARK    5  A    between atoms: C_17  and  C_18
REMARK    6  A    between atoms: C_18  and  C_19
REMARK    7  A    between atoms: C_19  and  C_20
REMARK    8  A    between atoms: C_20  and  C_21
REMARK    9  A    between atoms: C_21  and  C_22
REMARK   10  A    between atoms: C_22  and  N_23
REMARK   11  A    between atoms: C_35  and  C_36
REMARK                            x       y       z     vdW  Elec       q    Type
REMARK                         _______ _______ _______ _____ _____    ______ ____
ROOT
ATOM      1  C   UNL     1       1.629   6.338  19.840  0.00  0.00    +0.000 C 
ENDROOT
BRANCH   1   2
ATOM      2  C   UNL     1       2.582   5.548  20.743  0.00  0.00    +0.000 C 
BRANCH   2   3
ATOM      3  C   UNL     1       3.343   4.545  19.875  0.00  0.00    +0.000 C 
BRANCH   3   4
ATOM      4  C   UNL     1       4.802   4.911  19.641  0.00  0.00    +0.000 C 
BRANCH   4  18
ATOM      5  C   UNL     1       7.123   6.181  18.370  0.00  0.00    +0.000 C 
ATOM      6  C   UNL     1       6.179   5.303  17.596  0.00  0.00    +0.000 A 
ATOM      7  C   UNL     1       6.367   5.014  16.236  0.00  0.00    +0.000 A 
ATOM      8  N   UNL     1       7.351   5.434  15.361  0.00  0.00    +0.000 N 
ATOM      9  C   UNL     1       7.153   4.914  14.106  0.00  0.00    +0.000 A 
ATOM     10  C   UNL     1       7.895   5.092  12.931  0.00  0.00    +0.000 A 
ATOM     11  C   UNL     1       7.452   4.435  11.783  0.00  0.00    +0.000 A 
ATOM     12  C   UNL     1       6.315   3.631  11.808  0.00  0.00    +0.000 A 
ATOM     13  C   UNL     1       5.586   3.465  12.992  0.00  0.00    +0.000 A 
ATOM     14  C   UNL     1       6.011   4.120  14.164  0.00  0.00    +0.000 A 
ATOM     15  C   UNL     1       5.521   4.185  15.507  0.00  0.00    +0.000 A 
ATOM     16  C   UNL     1       4.431   3.610  16.163  0.00  0.00    +0.000 A 
ATOM     17  C   UNL     1       4.254   3.910  17.503  0.00  0.00    +0.000 A 
ATOM     18  N   UNL     1       5.096   4.722  18.187  0.00  0.00    +0.000 N 
ATOM     19  H   UNL     1       8.120   6.048  15.594  0.00  0.00    +0.000 HD
ENDBRANCH   4  18
ENDBRANCH   3   4
ENDBRANCH   2   3
ENDBRANCH   1   2
BRANCH   1  20
ATOM     20  C   UNL     1       1.914   7.829  19.754  0.00  0.00    +0.000 C 
BRANCH  20  21
ATOM     21  C   UNL     1       2.354   8.330  18.376  0.00  0.00    +0.000 C 
BRANCH  21  22
ATOM     22  C   UNL     1       1.275   9.273  17.842  0.00  0.00    +0.000 C 
BRANCH  22  23
ATOM     23  C   UNL     1       0.950  10.433  18.772  0.00  0.00    +0.000 C 
BRANCH  23  24
ATOM     24  N   UNL     1      -0.515  10.715  18.660  0.00  0.00    +0.000 N 
ATOM     25  C   UNL     1      -1.192  10.036  17.701  0.00  0.00    +0.000 A 
ATOM     26  C   UNL     1      -2.543  10.236  17.463  0.00  0.00    +0.000 A 
ATOM     27  C   UNL     1      -3.215  11.167  18.261  0.00  0.00    +0.000 A 
ATOM     28  C   UNL     1      -2.491  11.847  19.235  0.00  0.00    +0.000 A 
ATOM     29  N   UNL     1      -3.383  12.695  19.862  0.00  0.00    +0.000 N 
ATOM     30  C   UNL     1      -4.644  12.572  19.334  0.00  0.00    +0.000 A 
ATOM     31  C   UNL     1      -5.831  13.229  19.678  0.00  0.00    +0.000 A 
ATOM     32  C   UNL     1      -6.983  12.896  18.961  0.00  0.00    +0.000 A 
ATOM     33  C   UNL     1      -6.945  11.950  17.939  0.00  0.00    +0.000 A 
ATOM     34  C   UNL     1      -5.748  11.304  17.605  0.00  0.00    +0.000 A 
ATOM     35  C   UNL     1      -4.572  11.619  18.319  0.00  0.00    +0.000 A 
ATOM     36  C   UNL     1      -1.120  11.643  19.458  0.00  0.00    +0.000 A 
ATOM     37  C   UNL     1      -0.348  12.405  20.497  0.00  0.00    +0.000 C 
ATOM     38  H   UNL     1      -3.166  13.329  20.619  0.00  0.00    +0.000 HD
ENDBRANCH  23  24
ENDBRANCH  22  23
ENDBRANCH  21  22
ENDBRANCH  20  21
ENDBRANCH   1  20
TORSDOF 9
ENDMDL
MODEL 6
REMARK VINA RESULT:      -8.3      3.251      4.370
REMARK  Name = 
REMARK  11 active torsions:
REMARK  status: ('A' for Active; 'I' for Inactive)
REMARK    1  A    between atoms: C_1  and  C_2
REMARK    2  A    between atoms: N_14  and  C_15
REMARK    3  A    between atoms: C_15  and  C_16
REMARK    4  A    between atoms: C_16  and  C_17
REMARK    5  A    between atoms: C_17  and  C_18
REMARK    6  A    between atoms: C_18  and  C_19
REMARK    7  A    between atoms: C_19  and  C_20
REMARK    8  A    between atoms: C_20  and  C_21
REMARK    9  A    between atoms: C_21  and  C_22
REMARK   10  A    between atoms: C_22  and  N_23
REMARK   11  A    between atoms: C_35  and  C_36
REMARK                            x       y       z     vdW  Elec       q    Type
REMARK                         _______ _______ _______ _____ _____    ______ ____
ROOT
ATOM      1  C   UNL     1       2.676   8.152  17.813  0.00  0.00    +0.000 C 
ENDROOT
BRANCH   1   2
ATOM      2  C   UNL     1       1.597   8.687  18.760  0.00  0.00    +0.000 C 
BRANCH   2   3
ATOM      3  C   UNL     1       0.901   9.865  18.077  0.00  0.00    +0.000 C 
BRANCH   3   4
ATOM      4  C   UNL     1       0.532  10.999  19.023  0.00  0.00    +0.000 C 
BRANCH   4  18
ATOM      5  C   UNL     1      -0.861  12.885  20.788  0.00  0.00    +0.000 C 
ATOM      6  C   UNL     1      -1.589  12.115  19.722  0.00  0.00    +0.000 A 
ATOM      7  C   UNL     1      -2.963  12.272  19.487  0.00  0.00    +0.000 A 
ATOM      8  N   UNL     1      -3.891  13.076  20.121  0.00  0.00    +0.000 N 
ATOM      9  C   UNL     1      -5.141  12.917  19.574  0.00  0.00    +0.000 A 
ATOM     10  C   UNL     1      -6.356  13.521  19.918  0.00  0.00    +0.000 A 
ATOM     11  C   UNL     1      -7.486  13.163  19.182  0.00  0.00    +0.000 A 
ATOM     12  C   UNL     1      -7.403  12.240  18.142  0.00  0.00    +0.000 A 
ATOM     13  C   UNL     1      -6.178  11.648  17.812  0.00  0.00    +0.000 A 
ATOM     14  C   UNL     1      -5.024  11.991  18.543  0.00  0.00    +0.000 A 
ATOM     15  C   UNL     1      -3.652  11.588  18.491  0.00  0.00    +0.000 A 
ATOM     16  C   UNL     1      -2.938  10.702  17.683  0.00  0.00    +0.000 A 
ATOM     17  C   UNL     1      -1.584  10.550  17.931  0.00  0.00    +0.000 A 
ATOM     18  N   UNL     1      -0.941  11.231  18.910  0.00  0.00    +0.000 N 
ATOM     19  H   UNL     1      -3.697  13.701  20.892  0.00  0.00    +0.000 HD
ENDBRANCH   4  18
ENDBRANCH   3   4
ENDBRANCH   2   3
ENDBRANCH   1   2
BRANCH   1  20
ATOM     20  C   UNL     1       3.154   6.740  18.115  0.00  0.00    +0.000 C 
BRANCH  20  21
ATOM     21  C   UNL     1       3.217   6.377  19.601  0.00  0.00    +0.000 C 
BRANCH  21  22
ATOM     22  C   UNL     1       3.438   4.868  19.716  0.00  0.00    +0.000 C 
BRANCH  22  23
ATOM     23  C   UNL     1       4.893   4.443  19.576  0.00  0.00    +0.000 C 
BRANCH  23  24
ATOM     24  N   UNL     1       5.207   4.359  18.116  0.00  0.00    +0.000 N 
ATOM     25  C   UNL     1       4.444   3.517  17.377  0.00  0.00    +0.000 A 
ATOM     26  C   UNL     1       4.659   3.313  16.022  0.00  0.00    +0.000 A 
ATOM     27  C   UNL     1       5.698   4.024  15.413  0.00  0.00    +0.000 A 
ATOM     28  C   UNL     1       6.462   4.880  16.199  0.00  0.00    +0.000 A 
ATOM     29  N   UNL     1       7.405   5.440  15.360  0.00  0.00    +0.000 N 
ATOM     30  C   UNL     1       7.263   4.983  14.073  0.00  0.00    +0.000 A 
ATOM     31  C   UNL     1       7.993   5.298  12.921  0.00  0.00    +0.000 A 
ATOM     32  C   UNL     1       7.617   4.673  11.729  0.00  0.00    +0.000 A 
ATOM     33  C   UNL     1       6.558   3.769  11.695  0.00  0.00    +0.000 A 
ATOM     34  C   UNL     1       5.839   3.463  12.858  0.00  0.00    +0.000 A 
ATOM     35  C   UNL     1       6.197   4.085  14.073  0.00  0.00    +0.000 A 
ATOM     36  C   UNL     1       6.241   5.068  17.573  0.00  0.00    +0.000 A 
ATOM     37  C   UNL     1       7.093   5.977  18.412  0.00  0.00    +0.000 C 
ATOM     38  H   UNL     1       8.116   6.108  15.628  0.00  0.00    +0.000 HD
ENDBRANCH  23  24
ENDBRANCH  22  23
ENDBRANCH  21  22
ENDBRANCH  20  21
ENDBRANCH   1  20
TORSDOF 9
ENDMDL
MODEL 7
REMARK VINA RESULT:      -8.3      2.643      3.803
REMARK  Name = 
REMARK  11 active torsions:
REMARK  status: ('A' for Active; 'I' for Inactive)
REMARK    1  A    between atoms: C_1  and  C_2
REMARK    2  A    between atoms: N_14  and  C_15
REMARK    3  A    between atoms: C_15  and  C_16
REMARK    4  A    between atoms: C_16  and  C_17
REMARK    5  A    between atoms: C_17  and  C_18
REMARK    6  A    between atoms: C_18  and  C_19
REMARK    7  A    between atoms: C_19  and  C_20
REMARK    8  A    between atoms: C_20  and  C_21
REMARK    9  A    between atoms: C_21  and  C_22
REMARK   10  A    between atoms: C_22  and  N_23
REMARK   11  A    between atoms: C_35  and  C_36
REMARK                            x       y       z     vdW  Elec       q    Type
REMARK                         _______ _______ _______ _____ _____    ______ ____
ROOT
ATOM      1  C   UNL     1       2.049   5.565  20.776  0.00  0.00    +0.000 C 
ENDROOT
BRANCH   1   2
ATOM      2  C   UNL     1       2.180   6.825  19.914  0.00  0.00    +0.000 C 
BRANCH   2   3
ATOM      3  C   UNL     1       1.652   8.013  20.718  0.00  0.00    +0.000 C 
BRANCH   3   4
ATOM      4  C   UNL     1       0.537   8.784  20.024  0.00  0.00    +0.000 C 
BRANCH   4  18
ATOM      5  C   UNL     1       1.928   9.704  17.609  0.00  0.00    +0.000 C 
ATOM      6  C   UNL     1       1.621  10.636  18.749  0.00  0.00    +0.000 A 
ATOM      7  C   UNL     1       1.951  11.999  18.714  0.00  0.00    +0.000 A 
ATOM      8  N   UNL     1       2.587  12.739  17.735  0.00  0.00    +0.000 N 
ATOM      9  C   UNL     1       2.716  14.054  18.114  0.00  0.00    +0.000 A 
ATOM     10  C   UNL     1       3.303  15.130  17.437  0.00  0.00    +0.000 A 
ATOM     11  C   UNL     1       3.294  16.373  18.073  0.00  0.00    +0.000 A 
ATOM     12  C   UNL     1       2.720  16.532  19.331  0.00  0.00    +0.000 A 
ATOM     13  C   UNL     1       2.137  15.444  19.992  0.00  0.00    +0.000 A 
ATOM     14  C   UNL     1       2.136  14.178  19.373  0.00  0.00    +0.000 A 
ATOM     15  C   UNL     1       1.656  12.884  19.745  0.00  0.00    +0.000 A 
ATOM     16  C   UNL     1       0.995  12.389  20.872  0.00  0.00    +0.000 A 
ATOM     17  C   UNL     1       0.683  11.041  20.896  0.00  0.00    +0.000 A 
ATOM     18  N   UNL     1       0.984  10.203  19.875  0.00  0.00    +0.000 N 
ATOM     19  H   UNL     1       2.925  12.379  16.854  0.00  0.00    +0.000 HD
ENDBRANCH   4  18
ENDBRANCH   3   4
ENDBRANCH   2   3
ENDBRANCH   1   2
BRANCH   1  20
ATOM     20  C   UNL     1       0.830   4.706  20.477  0.00  0.00    +0.000 C 
BRANCH  20  21
ATOM     21  C   UNL     1       1.024   3.203  20.690  0.00  0.00    +0.000 C 
BRANCH  21  22
ATOM     22  C   UNL     1       0.806   2.498  19.351  0.00  0.00    +0.000 C 
BRANCH  22  23
ATOM     23  C   UNL     1       2.021   1.731  18.850  0.00  0.00    +0.000 C 
BRANCH  23  24
ATOM     24  N   UNL     1       3.170   2.686  18.780  0.00  0.00    +0.000 N 
ATOM     25  C   UNL     1       4.166   2.506  19.683  0.00  0.00    +0.000 A 
ATOM     26  C   UNL     1       5.265   3.348  19.755  0.00  0.00    +0.000 A 
ATOM     27  C   UNL     1       5.337   4.407  18.844  0.00  0.00    +0.000 A 
ATOM     28  C   UNL     1       4.299   4.564  17.931  0.00  0.00    +0.000 A 
ATOM     29  N   UNL     1       4.616   5.671  17.168  0.00  0.00    +0.000 N 
ATOM     30  C   UNL     1       5.816   6.214  17.553  0.00  0.00    +0.000 A 
ATOM     31  C   UNL     1       6.506   7.321  17.045  0.00  0.00    +0.000 A 
ATOM     32  C   UNL     1       7.728   7.648  17.639  0.00  0.00    +0.000 A 
ATOM     33  C   UNL     1       8.234   6.899  18.699  0.00  0.00    +0.000 A 
ATOM     34  C   UNL     1       7.530   5.795  19.197  0.00  0.00    +0.000 A 
ATOM     35  C   UNL     1       6.296   5.443  18.610  0.00  0.00    +0.000 A 
ATOM     36  C   UNL     1       3.185   3.710  17.877  0.00  0.00    +0.000 A 
ATOM     37  C   UNL     1       2.061   3.910  16.902  0.00  0.00    +0.000 C 
ATOM     38  H   UNL     1       4.059   6.050  16.414  0.00  0.00    +0.000 HD
ENDBRANCH  23  24
ENDBRANCH  22  23
ENDBRANCH  21  22
ENDBRANCH  20  21
ENDBRANCH   1  20
TORSDOF 9
ENDMDL
MODEL 8
REMARK VINA RESULT:      -8.3      5.569      9.382
REMARK  Name = 
REMARK  11 active torsions:
REMARK  status: ('A' for Active; 'I' for Inactive)
REMARK    1  A    between atoms: C_1  and  C_2
REMARK    2  A    between atoms: N_14  and  C_15
REMARK    3  A    between atoms: C_15  and  C_16
REMARK    4  A    between atoms: C_16  and  C_17
REMARK    5  A    between atoms: C_17  and  C_18
REMARK    6  A    between atoms: C_18  and  C_19
REMARK    7  A    between atoms: C_19  and  C_20
REMARK    8  A    between atoms: C_20  and  C_21
REMARK    9  A    between atoms: C_21  and  C_22
REMARK   10  A    between atoms: C_22  and  N_23
REMARK   11  A    between atoms: C_35  and  C_36
REMARK                            x       y       z     vdW  Elec       q    Type
REMARK                         _______ _______ _______ _____ _____    ______ ____
ROOT
ATOM      1  C   UNL     1       7.511   6.502  18.531  0.00  0.00    +0.000 C 
ENDROOT
BRANCH   1   2
ATOM      2  C   UNL     1       7.781   5.046  18.140  0.00  0.00    +0.000 C 
BRANCH   2   3
ATOM      3  C   UNL     1       7.080   4.769  16.809  0.00  0.00    +0.000 C 
BRANCH   3   4
ATOM      4  C   UNL     1       5.713   4.114  16.954  0.00  0.00    +0.000 C 
BRANCH   4  18
ATOM      5  C   UNL     1       4.381   3.842  19.554  0.00  0.00    +0.000 C 
ATOM      6  C   UNL     1       4.144   5.031  18.665  0.00  0.00    +0.000 A 
ATOM      7  C   UNL     1       3.302   6.090  19.035  0.00  0.00    +0.000 A 
ATOM      8  N   UNL     1       2.549   6.274  20.179  0.00  0.00    +0.000 N 
ATOM      9  C   UNL     1       1.857   7.460  20.131  0.00  0.00    +0.000 A 
ATOM     10  C   UNL     1       0.976   8.025  21.061  0.00  0.00    +0.000 A 
ATOM     11  C   UNL     1       0.406   9.258  20.744  0.00  0.00    +0.000 A 
ATOM     12  C   UNL     1       0.707   9.901  19.546  0.00  0.00    +0.000 A 
ATOM     13  C   UNL     1       1.592   9.321  18.628  0.00  0.00    +0.000 A 
ATOM     14  C   UNL     1       2.177   8.075  18.925  0.00  0.00    +0.000 A 
ATOM     15  C   UNL     1       3.087   7.210  18.239  0.00  0.00    +0.000 A 
ATOM     16  C   UNL     1       3.746   7.284  17.010  0.00  0.00    +0.000 A 
ATOM     17  C   UNL     1       4.568   6.228  16.655  0.00  0.00    +0.000 A 
ATOM     18  N   UNL     1       4.757   5.149  17.452  0.00  0.00    +0.000 N 
ATOM     19  H   UNL     1       2.496   5.630  20.957  0.00  0.00    +0.000 HD
ENDBRANCH   4  18
ENDBRANCH   3   4
ENDBRANCH   2   3
ENDBRANCH   1   2
BRANCH   1  20
ATOM     20  C   UNL     1       8.117   7.541  17.602  0.00  0.00    +0.000 C 
BRANCH  20  21
ATOM     21  C   UNL     1       7.722   8.990  17.897  0.00  0.00    +0.000 C 
BRANCH  21  22
ATOM     22  C   UNL     1       8.851   9.641  18.698  0.00  0.00    +0.000 C 
BRANCH  22  23
ATOM     23  C   UNL     1       9.600  10.728  17.941  0.00  0.00    +0.000 C 
BRANCH  23  24
ATOM     24  N   UNL     1       9.864  11.851  18.893  0.00  0.00    +0.000 N 
ATOM     25  C   UNL     1       9.295  11.754  20.120  0.00  0.00    +0.000 A 
ATOM     26  C   UNL     1       9.424  12.746  21.080  0.00  0.00    +0.000 A 
ATOM     27  C   UNL     1      10.185  13.874  20.754  0.00  0.00    +0.000 A 
ATOM     28  C   UNL     1      10.755  13.942  19.487  0.00  0.00    +0.000 A 
ATOM     29  N   UNL     1      11.435  15.143  19.431  0.00  0.00    +0.000 N 
ATOM     30  C   UNL     1      11.329  15.832  20.614  0.00  0.00    +0.000 A 
ATOM     31  C   UNL     1      11.867  17.070  20.985  0.00  0.00    +0.000 A 
ATOM     32  C   UNL     1      11.594  17.531  22.275  0.00  0.00    +0.000 A 
ATOM     33  C   UNL     1      10.810  16.786  23.153  0.00  0.00    +0.000 A 
ATOM     34  C   UNL     1      10.277  15.550  22.765  0.00  0.00    +0.000 A 
ATOM     35  C   UNL     1      10.543  15.060  21.469  0.00  0.00    +0.000 A 
ATOM     36  C   UNL     1      10.606  12.935  18.520  0.00  0.00    +0.000 A 
ATOM     37  C   UNL     1      11.207  13.038  17.147  0.00  0.00    +0.000 C 
ATOM     38  H   UNL     1      11.957  15.492  18.639  0.00  0.00    +0.000 HD
ENDBRANCH  23  24
ENDBRANCH  22  23
ENDBRANCH  21  22
ENDBRANCH  20  21
ENDBRANCH   1  20
TORSDOF 9
ENDMDL
MODEL 9
REMARK VINA RESULT:      -8.3      5.405      9.746
REMARK  Name = 
REMARK  11 active torsions:
REMARK  status: ('A' for Active; 'I' for Inactive)
REMARK    1  A    between atoms: C_1  and  C_2
REMARK    2  A    between atoms: N_14  and  C_15
REMARK    3  A    between atoms: C_15  and  C_16
REMARK    4  A    between atoms: C_16  and  C_17
REMARK    5  A    between atoms: C_17  and  C_18
REMARK    6  A    between atoms: C_18  and  C_19
REMARK    7  A    between atoms: C_19  and  C_20
REMARK    8  A    between atoms: C_20  and  C_21
REMARK    9  A    between atoms: C_21  and  C_22
REMARK   10  A    between atoms: C_22  and  N_23
REMARK   11  A    between atoms: C_35  and  C_36
REMARK                            x       y       z     vdW  Elec       q    Type
REMARK                         _______ _______ _______ _____ _____    ______ ____
ROOT
ATOM      1  C   UNL     1       7.052   7.672  17.687  0.00  0.00    +0.000 C 
ENDROOT
BRANCH   1   2
ATOM      2  C   UNL     1       8.381   8.425  17.561  0.00  0.00    +0.000 C 
BRANCH   2   3
ATOM      3  C   UNL     1       8.208   9.811  18.183  0.00  0.00    +0.000 C 
BRANCH   3   4
ATOM      4  C   UNL     1       9.299  10.185  19.176  0.00  0.00    +0.000 C 
BRANCH   4  18
ATOM      5  C   UNL     1       9.058  12.283  21.214  0.00  0.00    +0.000 C 
ATOM      6  C   UNL     1       9.610  12.570  19.845  0.00  0.00    +0.000 A 
ATOM      7  C   UNL     1      10.069  13.842  19.472  0.00  0.00    +0.000 A 
ATOM      8  N   UNL     1      10.107  15.023  20.188  0.00  0.00    +0.000 N 
ATOM      9  C   UNL     1      10.634  16.043  19.434  0.00  0.00    +0.000 A 
ATOM     10  C   UNL     1      10.839  17.389  19.760  0.00  0.00    +0.000 A 
ATOM     11  C   UNL     1      11.397  18.213  18.781  0.00  0.00    +0.000 A 
ATOM     12  C   UNL     1      11.738  17.709  17.528  0.00  0.00    +0.000 A 
ATOM     13  C   UNL     1      11.527  16.360  17.221  0.00  0.00    +0.000 A 
ATOM     14  C   UNL     1      10.961  15.509  18.191  0.00  0.00    +0.000 A 
ATOM     15  C   UNL     1      10.605  14.124  18.220  0.00  0.00    +0.000 A 
ATOM     16  C   UNL     1      10.693  13.087  17.289  0.00  0.00    +0.000 A 
ATOM     17  C   UNL     1      10.229  11.839  17.669  0.00  0.00    +0.000 A 
ATOM     18  N   UNL     1       9.711  11.595  18.896  0.00  0.00    +0.000 N 
ATOM     19  H   UNL     1       9.788  15.143  21.140  0.00  0.00    +0.000 HD
ENDBRANCH   4  18
ENDBRANCH   3   4
ENDBRANCH   2   3
ENDBRANCH   1   2
BRANCH   1  20
ATOM     20  C   UNL     1       7.150   6.164  17.523  0.00  0.00    +0.000 C 
BRANCH  20  21
ATOM     21  C   UNL     1       6.479   5.599  16.268  0.00  0.00    +0.000 C 
BRANCH  21  22
ATOM     22  C   UNL     1       5.017   6.044  16.265  0.00  0.00    +0.000 C 
BRANCH  22  23
ATOM     23  C   UNL     1       4.151   5.333  17.295  0.00  0.00    +0.000 C 
BRANCH  23  24
ATOM     24  N   UNL     1       3.329   6.369  17.996  0.00  0.00    +0.000 N 
ATOM     25  C   UNL     1       3.074   7.510  17.310  0.00  0.00    +0.000 A 
ATOM     26  C   UNL     1       2.363   8.565  17.859  0.00  0.00    +0.000 A 
ATOM     27  C   UNL     1       1.889   8.421  19.168  0.00  0.00    +0.000 A 
ATOM     28  C   UNL     1       2.168   7.238  19.844  0.00  0.00    +0.000 A 
ATOM     29  N   UNL     1       1.598   7.362  21.096  0.00  0.00    +0.000 N 
ATOM     30  C   UNL     1       0.960   8.569  21.236  0.00  0.00    +0.000 A 
ATOM     31  C   UNL     1       0.252   9.092  22.325  0.00  0.00    +0.000 A 
ATOM     32  C   UNL     1      -0.304  10.366  22.181  0.00  0.00    +0.000 A 
ATOM     33  C   UNL     1      -0.152  11.087  20.999  0.00  0.00    +0.000 A 
ATOM     34  C   UNL     1       0.561  10.550  19.920  0.00  0.00    +0.000 A 
ATOM     35  C   UNL     1       1.128   9.263  20.038  0.00  0.00    +0.000 A 
ATOM     36  C   UNL     1       2.901   6.182  19.279  0.00  0.00    +0.000 A 
ATOM     37  C   UNL     1       3.215   4.922  20.034  0.00  0.00    +0.000 C 
ATOM     38  H   UNL     1       1.625   6.669  21.831  0.00  0.00    +0.000 HD
ENDBRANCH  23  24
ENDBRANCH  22  23
ENDBRANCH  21  22
ENDBRANCH  20  21
ENDBRANCH   1  20
TORSDOF 9
ENDMDL
