MODEL 1
REMARK VINA RESULT:      -7.2      0.000      0.000
REMARK  Name = 
REMARK  6 active torsions:
REMARK  status: ('A' for Active; 'I' for Inactive)
REMARK    1  A    between atoms: C_1  and  C_2
REMARK    2  A    between atoms: C_2  and  C_3
REMARK    3  A    between atoms: C_2  and  C_4
REMARK    4  A    between atoms: C_4  and  N_5
REMARK    5  A    between atoms: C_8  and  N_9
REMARK    6  A    between atoms: C_16  and  C_17
REMARK                            x       y       z     vdW  Elec       q    Type
REMARK                         _______ _______ _______ _____ _____    ______ ____
ROOT
ATOM      1  N   UNL     1       3.686   5.639  17.823  0.00  0.00    +0.000 N 
ATOM      2  C   UNL     1       3.144   5.441  19.067  0.00  0.00    +0.000 C 
ATOM      3  O   UNL     1       3.665   5.879  20.087  0.00  0.00    +0.000 OA
ATOM      4  N   UNL     1       1.961   4.714  19.065  0.00  0.00    +0.000 N 
ATOM      5  C   UNL     1       1.244   4.530  20.326  0.00  0.00    +0.000 C 
ATOM      6  C   UNL     1       1.251   3.067  20.765  0.00  0.00    +0.000 C 
ATOM      7  C   UNL     1       0.766   2.148  19.642  0.00  0.00    +0.000 C 
ATOM      8  C   UNL     1       1.519   2.388  18.325  0.00  0.00    +0.000 C 
ATOM      9  C   UNL     1       2.958   1.868  18.392  0.00  0.00    +0.000 C 
ATOM     10  C   UNL     1       1.480   3.881  17.960  0.00  0.00    +0.000 C 
ATOM     11  H   UNL     1       2.994   5.750  17.099  0.00  0.00    +0.000 HD
ENDROOT
BRANCH   1  15
ATOM     12  N   UNL     1       6.523   5.069  15.530  0.00  0.00    +0.000 NA
ATOM     13  C   UNL     1       5.321   5.843  15.184  0.00  0.00    +0.000 C 
ATOM     14  C   UNL     1       5.039   6.943  16.207  0.00  0.00    +0.000 C 
ATOM     15  C   UNL     1       4.925   6.392  17.628  0.00  0.00    +0.000 C 
ATOM     16  C   UNL     1       6.141   5.521  17.947  0.00  0.00    +0.000 C 
ATOM     17  C   UNL     1       6.400   4.467  16.868  0.00  0.00    +0.000 C 
BRANCH  12  18
ATOM     18  C   UNL     1       6.822   4.026  14.527  0.00  0.00    +0.000 C 
BRANCH  18  20
ATOM     19  C   UNL     1       7.678   5.111  12.386  0.00  0.00    +0.000 C 
ATOM     20  C   UNL     1       6.495   4.423  13.069  0.00  0.00    +0.000 C 
ATOM     21  C   UNL     1       6.067   3.196  12.261  0.00  0.00    +0.000 C 
ENDBRANCH  18  20
ENDBRANCH  12  18
ENDBRANCH   1  15
TORSDOF 3
ENDMDL
MODEL 2
REMARK VINA RESULT:      -7.0      0.983      1.378
REMARK  Name = 
REMARK  6 active torsions:
REMARK  status: ('A' for Active; 'I' for Inactive)
REMARK    1  A    between atoms: C_1  and  C_2
REMARK    2  A    between atoms: C_2  and  C_3
REMARK    3  A    between atoms: C_2  and  C_4
REMARK    4  A    between atoms: C_4  and  N_5
REMARK    5  A    between atoms: C_8  and  N_9
REMARK    6  A    between atoms: C_16  and  C_17
REMARK                            x       y       z     vdW  Elec       q    Type
REMARK                         _______ _______ _______ _____ _____    ______ ____
ROOT
ATOM      1  N   UNL     1       4.380   5.402  17.852  0.00  0.00    +0.000 N 
ATOM      2  C   UNL     1       4.122   5.184  19.182  0.00  0.00    +0.000 C 
ATOM      3  O   UNL     1       5.007   5.179  20.029  0.00  0.00    +0.000 OA
ATOM      4  N   UNL     1       2.780   4.978  19.475  0.00  0.00    +0.000 N 
ATOM      5  C   UNL     1       2.379   4.835  20.874  0.00  0.00    +0.000 C 
ATOM      6  C   UNL     1       1.874   3.424  21.169  0.00  0.00    +0.000 C 
ATOM      7  C   UNL     1       0.792   3.001  20.173  0.00  0.00    +0.000 C 
ATOM      8  C   UNL     1       1.236   3.193  18.715  0.00  0.00    +0.000 C 
ATOM      9  C   UNL     1       2.291   2.162  18.303  0.00  0.00    +0.000 C 
ATOM     10  C   UNL     1       1.743   4.628  18.502  0.00  0.00    +0.000 C 
ATOM     11  H   UNL     1       3.647   5.910  17.381  0.00  0.00    +0.000 HD
ENDROOT
BRANCH   1  15
ATOM     12  N   UNL     1       5.936   4.631  14.594  0.00  0.00    +0.000 NA
ATOM     13  C   UNL     1       5.198   5.869  14.888  0.00  0.00    +0.000 C 
ATOM     14  C   UNL     1       5.735   6.569  16.136  0.00  0.00    +0.000 C 
ATOM     15  C   UNL     1       5.734   5.649  17.356  0.00  0.00    +0.000 C 
ATOM     16  C   UNL     1       6.431   4.332  17.014  0.00  0.00    +0.000 C 
ATOM     17  C   UNL     1       5.883   3.700  15.732  0.00  0.00    +0.000 C 
BRANCH  12  18
ATOM     18  C   UNL     1       5.446   3.968  13.368  0.00  0.00    +0.000 C 
BRANCH  18  20
ATOM     19  C   UNL     1       5.988   2.314  11.507  0.00  0.00    +0.000 C 
ATOM     20  C   UNL     1       6.553   3.342  12.489  0.00  0.00    +0.000 C 
ATOM     21  C   UNL     1       7.312   4.430  11.726  0.00  0.00    +0.000 C 
ENDBRANCH  18  20
ENDBRANCH  12  18
ENDBRANCH   1  15
TORSDOF 3
ENDMDL
MODEL 3
REMARK VINA RESULT:      -6.7      0.941      1.192
REMARK  Name = 
REMARK  6 active torsions:
REMARK  status: ('A' for Active; 'I' for Inactive)
REMARK    1  A    between atoms: C_1  and  C_2
REMARK    2  A    between atoms: C_2  and  C_3
REMARK    3  A    between atoms: C_2  and  C_4
REMARK    4  A    between atoms: C_4  and  N_5
REMARK    5  A    between atoms: C_8  and  N_9
REMARK    6  A    between atoms: C_16  and  C_17
REMARK                            x       y       z     vdW  Elec       q    Type
REMARK                         _______ _______ _______ _____ _____    ______ ____
ROOT
ATOM      1  N   UNL     1       4.736   5.038  17.823  0.00  0.00    +0.000 N 
ATOM      2  C   UNL     1       3.914   5.096  18.920  0.00  0.00    +0.000 C 
ATOM      3  O   UNL     1       4.283   5.563  19.992  0.00  0.00    +0.000 OA
ATOM      4  N   UNL     1       2.640   4.587  18.706  0.00  0.00    +0.000 N 
ATOM      5  C   UNL     1       1.651   4.690  19.777  0.00  0.00    +0.000 C 
ATOM      6  C   UNL     1       1.279   3.315  20.328  0.00  0.00    +0.000 C 
ATOM      7  C   UNL     1       0.872   2.358  19.205  0.00  0.00    +0.000 C 
ATOM      8  C   UNL     1       1.919   2.298  18.084  0.00  0.00    +0.000 C 
ATOM      9  C   UNL     1       3.181   1.551  18.525  0.00  0.00    +0.000 C 
ATOM     10  C   UNL     1       2.251   3.717  17.594  0.00  0.00    +0.000 C 
ATOM     11  H   UNL     1       4.248   5.174  16.951  0.00  0.00    +0.000 HD
ENDROOT
BRANCH   1  15
ATOM     12  N   UNL     1       7.230   5.431  15.130  0.00  0.00    +0.000 NA
ATOM     13  C   UNL     1       6.239   6.454  15.497  0.00  0.00    +0.000 C 
ATOM     14  C   UNL     1       6.287   6.782  16.989  0.00  0.00    +0.000 C 
ATOM     15  C   UNL     1       6.110   5.537  17.857  0.00  0.00    +0.000 C 
ATOM     16  C   UNL     1       7.090   4.450  17.412  0.00  0.00    +0.000 C 
ATOM     17  C   UNL     1       7.029   4.195  15.904  0.00  0.00    +0.000 C 
BRANCH  12  18
ATOM     18  C   UNL     1       7.214   5.134  13.682  0.00  0.00    +0.000 C 
BRANCH  18  20
ATOM     19  C   UNL     1       4.992   3.976  13.221  0.00  0.00    +0.000 C 
ATOM     20  C   UNL     1       6.510   3.811  13.305  0.00  0.00    +0.000 C 
ATOM     21  C   UNL     1       7.050   3.275  11.977  0.00  0.00    +0.000 C 
ENDBRANCH  18  20
ENDBRANCH  12  18
ENDBRANCH   1  15
TORSDOF 3
ENDMDL
MODEL 4
REMARK VINA RESULT:      -6.6      1.468      1.800
REMARK  Name = 
REMARK  6 active torsions:
REMARK  status: ('A' for Active; 'I' for Inactive)
REMARK    1  A    between atoms: C_1  and  C_2
REMARK    2  A    between atoms: C_2  and  C_3
REMARK    3  A    between atoms: C_2  and  C_4
REMARK    4  A    between atoms: C_4  and  N_5
REMARK    5  A    between atoms: C_8  and  N_9
REMARK    6  A    between atoms: C_16  and  C_17
REMARK                            x       y       z     vdW  Elec       q    Type
REMARK                         _______ _______ _______ _____ _____    ______ ____
ROOT
ATOM      1  N   UNL     1       5.380   5.636  18.494  0.00  0.00    +0.000 N 
ATOM      2  C   UNL     1       4.820   4.855  19.473  0.00  0.00    +0.000 C 
ATOM      3  O   UNL     1       5.498   4.230  20.281  0.00  0.00    +0.000 OA
ATOM      4  N   UNL     1       3.432   4.844  19.469  0.00  0.00    +0.000 N 
ATOM      5  C   UNL     1       2.730   4.125  20.532  0.00  0.00    +0.000 C 
ATOM      6  C   UNL     1       1.981   2.911  19.985  0.00  0.00    +0.000 C 
ATOM      7  C   UNL     1       1.084   3.296  18.806  0.00  0.00    +0.000 C 
ATOM      8  C   UNL     1       1.847   4.074  17.724  0.00  0.00    +0.000 C 
ATOM      9  C   UNL     1       2.810   3.172  16.947  0.00  0.00    +0.000 C 
ATOM     10  C   UNL     1       2.584   5.268  18.353  0.00  0.00    +0.000 C 
ATOM     11  H   UNL     1       4.841   6.461  18.285  0.00  0.00    +0.000 HD
ENDROOT
BRANCH   1  15
ATOM     12  N   UNL     1       7.538   5.467  15.503  0.00  0.00    +0.000 NA
ATOM     13  C   UNL     1       6.886   6.694  15.986  0.00  0.00    +0.000 C 
ATOM     14  C   UNL     1       7.199   6.962  17.458  0.00  0.00    +0.000 C 
ATOM     15  C   UNL     1       6.829   5.778  18.350  0.00  0.00    +0.000 C 
ATOM     16  C   UNL     1       7.444   4.494  17.791  0.00  0.00    +0.000 C 
ATOM     17  C   UNL     1       7.134   4.301  16.305  0.00  0.00    +0.000 C 
BRANCH  12  18
ATOM     18  C   UNL     1       7.269   5.220  14.072  0.00  0.00    +0.000 C 
BRANCH  18  20
ATOM     19  C   UNL     1       4.908   4.260  14.074  0.00  0.00    +0.000 C 
ATOM     20  C   UNL     1       6.385   3.984  13.787  0.00  0.00    +0.000 C 
ATOM     21  C   UNL     1       6.557   3.522  12.338  0.00  0.00    +0.000 C 
ENDBRANCH  18  20
ENDBRANCH  12  18
ENDBRANCH   1  15
TORSDOF 3
ENDMDL
MODEL 5
REMARK VINA RESULT:      -6.3      2.249      3.978
REMARK  Name = 
REMARK  6 active torsions:
REMARK  status: ('A' for Active; 'I' for Inactive)
REMARK    1  A    between atoms: C_1  and  C_2
REMARK    2  A    between atoms: C_2  and  C_3
REMARK    3  A    between atoms: C_2  and  C_4
REMARK    4  A    between atoms: C_4  and  N_5
REMARK    5  A    between atoms: C_8  and  N_9
REMARK    6  A    between atoms: C_16  and  C_17
REMARK                            x       y       z     vdW  Elec       q    Type
REMARK                         _______ _______ _______ _____ _____    ______ ____
ROOT
ATOM      1  N   UNL     1       4.685   3.552  17.481  0.00  0.00    +0.000 N 
ATOM      2  C   UNL     1       3.406   3.054  17.512  0.00  0.00    +0.000 C 
ATOM      3  O   UNL     1       2.725   2.934  16.500  0.00  0.00    +0.000 OA
ATOM      4  N   UNL     1       2.964   2.698  18.779  0.00  0.00    +0.000 N 
ATOM      5  C   UNL     1       1.654   2.063  18.915  0.00  0.00    +0.000 C 
ATOM      6  C   UNL     1       0.671   2.965  19.657  0.00  0.00    +0.000 C 
ATOM      7  C   UNL     1       1.257   3.455  20.983  0.00  0.00    +0.000 C 
ATOM      8  C   UNL     1       2.645   4.088  20.807  0.00  0.00    +0.000 C 
ATOM      9  C   UNL     1       2.563   5.453  20.117  0.00  0.00    +0.000 C 
ATOM     10  C   UNL     1       3.570   3.129  20.041  0.00  0.00    +0.000 C 
ATOM     11  H   UNL     1       5.297   3.124  18.158  0.00  0.00    +0.000 HD
ENDROOT
BRANCH   1  15
ATOM     12  N   UNL     1       6.414   6.688  16.585  0.00  0.00    +0.000 NA
ATOM     13  C   UNL     1       7.071   5.528  17.207  0.00  0.00    +0.000 C 
ATOM     14  C   UNL     1       6.816   4.242  16.421  0.00  0.00    +0.000 C 
ATOM     15  C   UNL     1       5.324   3.969  16.233  0.00  0.00    +0.000 C 
ATOM     16  C   UNL     1       4.636   5.211  15.664  0.00  0.00    +0.000 C 
ATOM     17  C   UNL     1       4.962   6.474  16.465  0.00  0.00    +0.000 C 
BRANCH  12  18
ATOM     18  C   UNL     1       6.685   7.941  17.319  0.00  0.00    +0.000 C 
BRANCH  18  20
ATOM     19  C   UNL     1       8.485   9.545  18.145  0.00  0.00    +0.000 C 
ATOM     20  C   UNL     1       8.141   8.091  17.820  0.00  0.00    +0.000 C 
ATOM     21  C   UNL     1       8.379   7.211  19.049  0.00  0.00    +0.000 C 
ENDBRANCH  18  20
ENDBRANCH  12  18
ENDBRANCH   1  15
TORSDOF 3
ENDMDL
MODEL 6
REMARK VINA RESULT:      -6.2      1.261      1.443
REMARK  Name = 
REMARK  6 active torsions:
REMARK  status: ('A' for Active; 'I' for Inactive)
REMARK    1  A    between atoms: C_1  and  C_2
REMARK    2  A    between atoms: C_2  and  C_3
REMARK    3  A    between atoms: C_2  and  C_4
REMARK    4  A    between atoms: C_4  and  N_5
REMARK    5  A    between atoms: C_8  and  N_9
REMARK    6  A    between atoms: C_16  and  C_17
REMARK                            x       y       z     vdW  Elec       q    Type
REMARK                         _______ _______ _______ _____ _____    ______ ____
ROOT
ATOM      1  N   UNL     1       4.863   5.640  18.515  0.00  0.00    +0.000 N 
ATOM      2  C   UNL     1       4.672   4.602  19.391  0.00  0.00    +0.000 C 
ATOM      3  O   UNL     1       5.582   3.857  19.734  0.00  0.00    +0.000 OA
ATOM      4  N   UNL     1       3.368   4.480  19.854  0.00  0.00    +0.000 N 
ATOM      5  C   UNL     1       3.073   3.470  20.869  0.00  0.00    +0.000 C 
ATOM      6  C   UNL     1       2.171   2.369  20.316  0.00  0.00    +0.000 C 
ATOM      7  C   UNL     1       0.924   2.954  19.650  0.00  0.00    +0.000 C 
ATOM      8  C   UNL     1       1.269   4.031  18.611  0.00  0.00    +0.000 C 
ATOM      9  C   UNL     1       1.895   3.425  17.351  0.00  0.00    +0.000 C 
ATOM     10  C   UNL     1       2.189   5.092  19.237  0.00  0.00    +0.000 C 
ATOM     11  H   UNL     1       4.293   6.445  18.718  0.00  0.00    +0.000 HD
ENDROOT
BRANCH   1  15
ATOM     12  N   UNL     1       6.263   4.828  15.196  0.00  0.00    +0.000 NA
ATOM     13  C   UNL     1       5.485   6.041  15.493  0.00  0.00    +0.000 C 
ATOM     14  C   UNL     1       6.060   6.807  16.685  0.00  0.00    +0.000 C 
ATOM     15  C   UNL     1       6.173   5.930  17.931  0.00  0.00    +0.000 C 
ATOM     16  C   UNL     1       6.911   4.634  17.590  0.00  0.00    +0.000 C 
ATOM     17  C   UNL     1       6.319   3.935  16.364  0.00  0.00    +0.000 C 
BRANCH  12  18
ATOM     18  C   UNL     1       5.734   4.102  14.023  0.00  0.00    +0.000 C 
BRANCH  18  20
ATOM     19  C   UNL     1       7.852   5.019  12.943  0.00  0.00    +0.000 C 
ATOM     20  C   UNL     1       6.481   4.386  12.700  0.00  0.00    +0.000 C 
ATOM     21  C   UNL     1       6.638   3.100  11.885  0.00  0.00    +0.000 C 
ENDBRANCH  18  20
ENDBRANCH  12  18
ENDBRANCH   1  15
TORSDOF 3
ENDMDL
MODEL 7
REMARK VINA RESULT:      -6.2      2.078      3.871
REMARK  Name = 
REMARK  6 active torsions:
REMARK  status: ('A' for Active; 'I' for Inactive)
REMARK    1  A    between atoms: C_1  and  C_2
REMARK    2  A    between atoms: C_2  and  C_3
REMARK    3  A    between atoms: C_2  and  C_4
REMARK    4  A    between atoms: C_4  and  N_5
REMARK    5  A    between atoms: C_8  and  N_9
REMARK    6  A    between atoms: C_16  and  C_17
REMARK                            x       y       z     vdW  Elec       q    Type
REMARK                         _______ _______ _______ _____ _____    ______ ____
ROOT
ATOM      1  N   UNL     1       4.252   3.922  17.273  0.00  0.00    +0.000 N 
ATOM      2  C   UNL     1       3.102   3.219  17.532  0.00  0.00    +0.000 C 
ATOM      3  O   UNL     1       2.318   2.896  16.648  0.00  0.00    +0.000 OA
ATOM      4  N   UNL     1       2.916   2.906  18.872  0.00  0.00    +0.000 N 
ATOM      5  C   UNL     1       1.775   2.073  19.248  0.00  0.00    +0.000 C 
ATOM      6  C   UNL     1       0.760   2.857  20.077  0.00  0.00    +0.000 C 
ATOM      7  C   UNL     1       1.430   3.554  21.263  0.00  0.00    +0.000 C 
ATOM      8  C   UNL     1       2.641   4.396  20.836  0.00  0.00    +0.000 C 
ATOM      9  C   UNL     1       2.216   5.661  20.084  0.00  0.00    +0.000 C 
ATOM     10  C   UNL     1       3.606   3.543  19.995  0.00  0.00    +0.000 C 
ATOM     11  H   UNL     1       5.021   3.665  17.872  0.00  0.00    +0.000 HD
ENDROOT
BRANCH   1  15
ATOM     12  N   UNL     1       6.987   6.088  16.064  0.00  0.00    +0.000 NA
ATOM     13  C   UNL     1       7.112   4.638  16.281  0.00  0.00    +0.000 C 
ATOM     14  C   UNL     1       6.025   3.856  15.543  0.00  0.00    +0.000 C 
ATOM     15  C   UNL     1       4.622   4.330  15.918  0.00  0.00    +0.000 C 
ATOM     16  C   UNL     1       4.528   5.849  15.767  0.00  0.00    +0.000 C 
ATOM     17  C   UNL     1       5.665   6.575  16.490  0.00  0.00    +0.000 C 
BRANCH  12  18
ATOM     18  C   UNL     1       8.055   6.847  16.746  0.00  0.00    +0.000 C 
BRANCH  18  20
ATOM     19  C   UNL     1       8.076   6.229  19.219  0.00  0.00    +0.000 C 
ATOM     20  C   UNL     1       7.708   7.295  18.185  0.00  0.00    +0.000 C 
ATOM     21  C   UNL     1       8.410   8.613  18.521  0.00  0.00    +0.000 C 
ENDBRANCH  18  20
ENDBRANCH  12  18
ENDBRANCH   1  15
TORSDOF 3
ENDMDL
MODEL 8
REMARK VINA RESULT:      -6.1      1.159      1.640
REMARK  Name = 
REMARK  6 active torsions:
REMARK  status: ('A' for Active; 'I' for Inactive)
REMARK    1  A    between atoms: C_1  and  C_2
REMARK    2  A    between atoms: C_2  and  C_3
REMARK    3  A    between atoms: C_2  and  C_4
REMARK    4  A    between atoms: C_4  and  N_5
REMARK    5  A    between atoms: C_8  and  N_9
REMARK    6  A    between atoms: C_16  and  C_17
REMARK                            x       y       z     vdW  Elec       q    Type
REMARK                         _______ _______ _______ _____ _____    ______ ____
ROOT
ATOM      1  N   UNL     1       4.703   4.598  17.178  0.00  0.00    +0.000 N 
ATOM      2  C   UNL     1       3.517   4.935  17.780  0.00  0.00    +0.000 C 
ATOM      3  O   UNL     1       3.294   6.064  18.202  0.00  0.00    +0.000 OA
ATOM      4  N   UNL     1       2.603   3.893  17.860  0.00  0.00    +0.000 N 
ATOM      5  C   UNL     1       1.269   4.167  18.392  0.00  0.00    +0.000 C 
ATOM      6  C   UNL     1       1.042   3.455  19.725  0.00  0.00    +0.000 C 
ATOM      7  C   UNL     1       1.370   1.964  19.622  0.00  0.00    +0.000 C 
ATOM      8  C   UNL     1       2.765   1.714  19.032  0.00  0.00    +0.000 C 
ATOM      9  C   UNL     1       3.874   2.087  20.020  0.00  0.00    +0.000 C 
ATOM     10  C   UNL     1       2.920   2.472  17.703  0.00  0.00    +0.000 C 
ATOM     11  H   UNL     1       4.597   3.924  16.436  0.00  0.00    +0.000 HD
ENDROOT
BRANCH   1  15
ATOM     12  N   UNL     1       6.850   5.299  14.257  0.00  0.00    +0.000 NA
ATOM     13  C   UNL     1       5.544   5.932  14.496  0.00  0.00    +0.000 C 
ATOM     14  C   UNL     1       5.466   6.569  15.884  0.00  0.00    +0.000 C 
ATOM     15  C   UNL     1       5.782   5.568  16.994  0.00  0.00    +0.000 C 
ATOM     16  C   UNL     1       7.102   4.857  16.693  0.00  0.00    +0.000 C 
ATOM     17  C   UNL     1       7.139   4.277  15.277  0.00  0.00    +0.000 C 
BRANCH  12  18
ATOM     18  C   UNL     1       6.945   4.711  12.905  0.00  0.00    +0.000 C 
BRANCH  18  20
ATOM     19  C   UNL     1       4.754   3.661  12.136  0.00  0.00    +0.000 C 
ATOM     20  C   UNL     1       6.146   3.401  12.715  0.00  0.00    +0.000 C 
ATOM     21  C   UNL     1       6.913   2.430  11.815  0.00  0.00    +0.000 C 
ENDBRANCH  18  20
ENDBRANCH  12  18
ENDBRANCH   1  15
TORSDOF 3
ENDMDL
MODEL 9
REMARK VINA RESULT:      -6.1      3.009      4.561
REMARK  Name = 
REMARK  6 active torsions:
REMARK  status: ('A' for Active; 'I' for Inactive)
REMARK    1  A    between atoms: C_1  and  C_2
REMARK    2  A    between atoms: C_2  and  C_3
REMARK    3  A    between atoms: C_2  and  C_4
REMARK    4  A    between atoms: C_4  and  N_5
REMARK    5  A    between atoms: C_8  and  N_9
REMARK    6  A    between atoms: C_16  and  C_17
REMARK                            x       y       z     vdW  Elec       q    Type
REMARK                         _______ _______ _______ _____ _____    ______ ____
ROOT
ATOM      1  N   UNL     1       5.484   4.992  18.708  0.00  0.00    +0.000 N 
ATOM      2  C   UNL     1       4.950   3.875  19.298  0.00  0.00    +0.000 C 
ATOM      3  O   UNL     1       5.475   2.771  19.208  0.00  0.00    +0.000 OA
ATOM      4  N   UNL     1       3.777   4.108  20.004  0.00  0.00    +0.000 N 
ATOM      5  C   UNL     1       3.176   3.007  20.756  0.00  0.00    +0.000 C 
ATOM      6  C   UNL     1       1.834   2.590  20.158  0.00  0.00    +0.000 C 
ATOM      7  C   UNL     1       0.905   3.793  19.982  0.00  0.00    +0.000 C 
ATOM      8  C   UNL     1       1.578   4.941  19.215  0.00  0.00    +0.000 C 
ATOM      9  C   UNL     1       1.747   4.608  17.729  0.00  0.00    +0.000 C 
ATOM     10  C   UNL     1       2.926   5.292  19.866  0.00  0.00    +0.000 C 
ATOM     11  H   UNL     1       5.344   5.833  19.246  0.00  0.00    +0.000 HD
ENDROOT
BRANCH   1  15
ATOM     12  N   UNL     1       7.833   7.668  17.733  0.00  0.00    +0.000 NA
ATOM     13  C   UNL     1       7.913   6.914  18.993  0.00  0.00    +0.000 C 
ATOM     14  C   UNL     1       7.927   5.404  18.752  0.00  0.00    +0.000 C 
ATOM     15  C   UNL     1       6.723   4.942  17.933  0.00  0.00    +0.000 C 
ATOM     16  C   UNL     1       6.601   5.788  16.665  0.00  0.00    +0.000 C 
ATOM     17  C   UNL     1       6.636   7.289  16.963  0.00  0.00    +0.000 C 
BRANCH  12  18
ATOM     18  C   UNL     1       7.855   9.129  17.956  0.00  0.00    +0.000 C 
BRANCH  18  20
ATOM     19  C   UNL     1       9.721  10.847  17.713  0.00  0.00    +0.000 C 
ATOM     20  C   UNL     1       9.183   9.672  18.531  0.00  0.00    +0.000 C 
ATOM     21  C   UNL     1       9.004  10.092  19.992  0.00  0.00    +0.000 C 
ENDBRANCH  18  20
ENDBRANCH  12  18
ENDBRANCH   1  15
TORSDOF 3
ENDMDL
