MODEL 1
REMARK VINA RESULT:      -8.7      0.000      0.000
REMARK  Name = 
REMARK  9 active torsions:
REMARK  status: ('A' for Active; 'I' for Inactive)
REMARK    1  A    between atoms: C_1  and  O_2
REMARK    2  A    between atoms: O_2  and  C_3
REMARK    3  A    between atoms: C_6  and  C_7
REMARK    4  A    between atoms: C_7  and  C_9
REMARK    5  A    between atoms: N_14  and  C_15
REMARK    6  A    between atoms: C_20  and  C_21
REMARK    7  A    between atoms: C_23  and  O_24
REMARK    8  A    between atoms: O_24  and  C_25
REMARK    9  A    between atoms: C_25  and  C_27
REMARK                            x       y       z     vdW  Elec       q    Type
REMARK                         _______ _______ _______ _____ _____    ______ ____
ROOT
ATOM      1  C   UNL     1      -2.836  10.982  18.245  0.00  0.00    +0.000 A 
ATOM      2  C   UNL     1      -2.371   9.971  17.409  0.00  0.00    +0.000 A 
ATOM      3  C   UNL     1      -1.011   9.652  17.376  0.00  0.00    +0.000 A 
ATOM      4  C   UNL     1      -0.101  10.261  18.259  0.00  0.00    +0.000 A 
ATOM      5  C   UNL     1      -0.576  11.283  19.102  0.00  0.00    +0.000 A 
ATOM      6  C   UNL     1      -1.928  11.673  19.042  0.00  0.00    +0.000 A 
ENDROOT
BRANCH   1   8
ATOM      7  C   UNL     1      -4.731  11.531  16.919  0.00  0.00    +0.000 C 
ATOM      8  O   UNL     1      -4.185  11.195  18.191  0.00  0.00    +0.000 OA
ENDBRANCH   1   8
BRANCH   4   9
ATOM      9  C   UNL     1       1.334   9.835  18.242  0.00  0.00    +0.000 C 
ATOM     10  O   UNL     1       2.169  10.538  17.675  0.00  0.00    +0.000 OA
BRANCH   9  11
ATOM     11  C   UNL     1       1.744   8.534  18.904  0.00  0.00    +0.000 A 
ATOM     12  C   UNL     1       1.405   8.179  20.267  0.00  0.00    +0.000 A 
ATOM     13  C   UNL     1       1.713   6.977  20.766  0.00  0.00    +0.000 A 
ATOM     14  C   UNL     1       2.507   6.000  19.974  0.00  0.00    +0.000 A 
ATOM     15  O   UNL     1       2.774   4.925  20.508  0.00  0.00    +0.000 OA
ATOM     16  N   UNL     1       2.937   6.450  18.711  0.00  0.00    +0.000 N 
ATOM     17  C   UNL     1       2.508   7.679  18.198  0.00  0.00    +0.000 A 
BRANCH  16  18
ATOM     18  C   UNL     1       3.897   5.638  18.013  0.00  0.00    +0.000 A 
ATOM     19  C   UNL     1       5.220   6.097  17.882  0.00  0.00    +0.000 A 
ATOM     20  C   UNL     1       6.161   5.386  17.136  0.00  0.00    +0.000 A 
ATOM     21  C   UNL     1       5.792   4.209  16.500  0.00  0.00    +0.000 A 
ATOM     22  C   UNL     1       4.485   3.735  16.618  0.00  0.00    +0.000 A 
ATOM     23  C   UNL     1       3.522   4.438  17.367  0.00  0.00    +0.000 A 
ATOM     24  C   UNL     1       2.108   3.923  17.355  0.00  0.00    +0.000 C 
ENDBRANCH  16  18
ENDBRANCH   9  11
ENDBRANCH   4   9
BRANCH   5  25
ATOM     25  O   UNL     1       0.315  11.956  19.989  0.00  0.00    +0.000 OA
BRANCH  25  26
ATOM     26  C   UNL     1       0.368  11.589  21.333  0.00  0.00    +0.000 C 
ATOM     27  O   UNL     1       1.138  10.781  21.830  0.00  0.00    +0.000 OA
BRANCH  26  28
ATOM     28  C   UNL     1      -0.648  12.294  22.167  0.00  0.00    +0.000 A 
ATOM     29  C   UNL     1      -0.497  13.685  22.334  0.00  0.00    +0.000 A 
ATOM     30  C   UNL     1      -1.417  14.427  23.080  0.00  0.00    +0.000 A 
ATOM     31  C   UNL     1      -2.495  13.779  23.670  0.00  0.00    +0.000 A 
ATOM     32 CL   UNL     1      -3.640  14.686  24.580  0.00  0.00    +0.000 Cl
ATOM     33  C   UNL     1      -2.654  12.398  23.527  0.00  0.00    +0.000 A 
ATOM     34  C   UNL     1      -1.732  11.650  22.775  0.00  0.00    +0.000 A 
ENDBRANCH  26  28
ENDBRANCH  25  26
ENDBRANCH   5  25
TORSDOF 7
ENDMDL
MODEL 2
REMARK VINA RESULT:      -8.7      2.160      4.146
REMARK  Name = 
REMARK  9 active torsions:
REMARK  status: ('A' for Active; 'I' for Inactive)
REMARK    1  A    between atoms: C_1  and  O_2
REMARK    2  A    between atoms: O_2  and  C_3
REMARK    3  A    between atoms: C_6  and  C_7
REMARK    4  A    between atoms: C_7  and  C_9
REMARK    5  A    between atoms: N_14  and  C_15
REMARK    6  A    between atoms: C_20  and  C_21
REMARK    7  A    between atoms: C_23  and  O_24
REMARK    8  A    between atoms: O_24  and  C_25
REMARK    9  A    between atoms: C_25  and  C_27
REMARK                            x       y       z     vdW  Elec       q    Type
REMARK                         _______ _______ _______ _____ _____    ______ ____
ROOT
ATOM      1  C   UNL     1      -0.314  10.118  22.373  0.00  0.00    +0.000 A 
ATOM      2  C   UNL     1       0.793   9.296  22.568  0.00  0.00    +0.000 A 
ATOM      3  C   UNL     1       1.442   8.715  21.477  0.00  0.00    +0.000 A 
ATOM      4  C   UNL     1       1.069   9.030  20.157  0.00  0.00    +0.000 A 
ATOM      5  C   UNL     1      -0.051   9.862  19.965  0.00  0.00    +0.000 A 
ATOM      6  C   UNL     1      -0.766  10.347  21.076  0.00  0.00    +0.000 A 
ENDROOT
BRANCH   1   8
ATOM      7  C   UNL     1      -1.746  11.732  23.368  0.00  0.00    +0.000 C 
ATOM      8  O   UNL     1      -0.857  10.630  23.518  0.00  0.00    +0.000 OA
ENDBRANCH   1   8
BRANCH   4   9
ATOM      9  C   UNL     1       1.841   8.445  19.016  0.00  0.00    +0.000 C 
ATOM     10  O   UNL     1       2.028   9.116  18.003  0.00  0.00    +0.000 OA
BRANCH   9  11
ATOM     11  C   UNL     1       2.365   7.025  19.108  0.00  0.00    +0.000 A 
ATOM     12  C   UNL     1       1.947   6.073  20.118  0.00  0.00    +0.000 A 
ATOM     13  C   UNL     1       2.374   4.806  20.092  0.00  0.00    +0.000 A 
ATOM     14  C   UNL     1       3.372   4.354  19.087  0.00  0.00    +0.000 A 
ATOM     15  O   UNL     1       3.736   3.181  19.141  0.00  0.00    +0.000 OA
ATOM     16  N   UNL     1       3.855   5.353  18.221  0.00  0.00    +0.000 N 
ATOM     17  C   UNL     1       3.308   6.641  18.227  0.00  0.00    +0.000 A 
BRANCH  16  18
ATOM     18  C   UNL     1       4.985   5.021  17.395  0.00  0.00    +0.000 A 
ATOM     19  C   UNL     1       4.765   4.517  16.100  0.00  0.00    +0.000 A 
ATOM     20  C   UNL     1       5.827   4.096  15.298  0.00  0.00    +0.000 A 
ATOM     21  C   UNL     1       7.127   4.163  15.782  0.00  0.00    +0.000 A 
ATOM     22  C   UNL     1       7.367   4.661  17.064  0.00  0.00    +0.000 A 
ATOM     23  C   UNL     1       6.308   5.090  17.886  0.00  0.00    +0.000 A 
ATOM     24  C   UNL     1       6.637   5.509  19.294  0.00  0.00    +0.000 C 
ENDBRANCH  16  18
ENDBRANCH   9  11
ENDBRANCH   4   9
BRANCH   5  25
ATOM     25  O   UNL     1      -0.491  10.181  18.646  0.00  0.00    +0.000 OA
BRANCH  25  26
ATOM     26  C   UNL     1      -0.912  11.477  18.348  0.00  0.00    +0.000 C 
ATOM     27  O   UNL     1      -0.190  12.450  18.184  0.00  0.00    +0.000 OA
BRANCH  26  28
ATOM     28  C   UNL     1      -2.395  11.596  18.244  0.00  0.00    +0.000 A 
ATOM     29  C   UNL     1      -2.998  11.148  17.052  0.00  0.00    +0.000 A 
ATOM     30  C   UNL     1      -4.384  11.202  16.880  0.00  0.00    +0.000 A 
ATOM     31  C   UNL     1      -5.178  11.709  17.902  0.00  0.00    +0.000 A 
ATOM     32 CL   UNL     1      -6.887  11.767  17.705  0.00  0.00    +0.000 Cl
ATOM     33  C   UNL     1      -4.596  12.170  19.085  0.00  0.00    +0.000 A 
ATOM     34  C   UNL     1      -3.203  12.116  19.263  0.00  0.00    +0.000 A 
ENDBRANCH  26  28
ENDBRANCH  25  26
ENDBRANCH   5  25
TORSDOF 7
ENDMDL
MODEL 3
REMARK VINA RESULT:      -8.5      2.154      3.911
REMARK  Name = 
REMARK  9 active torsions:
REMARK  status: ('A' for Active; 'I' for Inactive)
REMARK    1  A    between atoms: C_1  and  O_2
REMARK    2  A    between atoms: O_2  and  C_3
REMARK    3  A    between atoms: C_6  and  C_7
REMARK    4  A    between atoms: C_7  and  C_9
REMARK    5  A    between atoms: N_14  and  C_15
REMARK    6  A    between atoms: C_20  and  C_21
REMARK    7  A    between atoms: C_23  and  O_24
REMARK    8  A    between atoms: O_24  and  C_25
REMARK    9  A    between atoms: C_25  and  C_27
REMARK                            x       y       z     vdW  Elec       q    Type
REMARK                         _______ _______ _______ _____ _____    ______ ____
ROOT
ATOM      1  C   UNL     1      -0.448  10.521  22.399  0.00  0.00    +0.000 A 
ATOM      2  C   UNL     1       0.362   9.429  22.697  0.00  0.00    +0.000 A 
ATOM      3  C   UNL     1       1.007   8.728  21.675  0.00  0.00    +0.000 A 
ATOM      4  C   UNL     1       0.947   9.171  20.341  0.00  0.00    +0.000 A 
ATOM      5  C   UNL     1       0.126  10.276  20.045  0.00  0.00    +0.000 A 
ATOM      6  C   UNL     1      -0.610  10.901  21.070  0.00  0.00    +0.000 A 
ENDROOT
BRANCH   1   8
ATOM      7  C   UNL     1      -2.178  11.915  23.243  0.00  0.00    +0.000 C 
ATOM      8  O   UNL     1      -1.019  11.125  23.485  0.00  0.00    +0.000 OA
ENDBRANCH   1   8
BRANCH   4   9
ATOM      9  C   UNL     1       1.715   8.435  19.288  0.00  0.00    +0.000 C 
ATOM     10  O   UNL     1       1.895   8.961  18.191  0.00  0.00    +0.000 OA
BRANCH   9  11
ATOM     11  C   UNL     1       2.244   7.043  19.572  0.00  0.00    +0.000 A 
ATOM     12  C   UNL     1       1.652   6.135  20.533  0.00  0.00    +0.000 A 
ATOM     13  C   UNL     1       2.106   4.885  20.674  0.00  0.00    +0.000 A 
ATOM     14  C   UNL     1       3.301   4.415  19.923  0.00  0.00    +0.000 A 
ATOM     15  O   UNL     1       3.675   3.261  20.122  0.00  0.00    +0.000 OA
ATOM     16  N   UNL     1       3.926   5.381  19.112  0.00  0.00    +0.000 N 
ATOM     17  C   UNL     1       3.358   6.646  18.928  0.00  0.00    +0.000 A 
BRANCH  16  18
ATOM     18  C   UNL     1       5.209   5.046  18.556  0.00  0.00    +0.000 A 
ATOM     19  C   UNL     1       6.377   5.453  19.226  0.00  0.00    +0.000 A 
ATOM     20  C   UNL     1       7.640   5.228  18.678  0.00  0.00    +0.000 A 
ATOM     21  C   UNL     1       7.757   4.602  17.443  0.00  0.00    +0.000 A 
ATOM     22  C   UNL     1       6.611   4.189  16.763  0.00  0.00    +0.000 A 
ATOM     23  C   UNL     1       5.328   4.406  17.301  0.00  0.00    +0.000 A 
ATOM     24  C   UNL     1       4.139   4.033  16.457  0.00  0.00    +0.000 C 
ENDBRANCH  16  18
ENDBRANCH   9  11
ENDBRANCH   4   9
BRANCH   5  25
ATOM     25  O   UNL     1       0.002  10.740  18.702  0.00  0.00    +0.000 OA
BRANCH  25  26
ATOM     26  C   UNL     1      -0.782  11.859  18.422  0.00  0.00    +0.000 C 
ATOM     27  O   UNL     1      -0.377  13.000  18.254  0.00  0.00    +0.000 OA
BRANCH  26  28
ATOM     28  C   UNL     1      -2.238  11.543  18.345  0.00  0.00    +0.000 A 
ATOM     29  C   UNL     1      -3.107  12.293  19.163  0.00  0.00    +0.000 A 
ATOM     30  C   UNL     1      -4.488  12.079  19.136  0.00  0.00    +0.000 A 
ATOM     31  C   UNL     1      -5.010  11.106  18.291  0.00  0.00    +0.000 A 
ATOM     32 CL   UNL     1      -6.710  10.844  18.241  0.00  0.00    +0.000 Cl
ATOM     33  C   UNL     1      -4.162  10.344  17.484  0.00  0.00    +0.000 A 
ATOM     34  C   UNL     1      -2.773  10.559  17.506  0.00  0.00    +0.000 A 
ENDBRANCH  26  28
ENDBRANCH  25  26
ENDBRANCH   5  25
TORSDOF 7
ENDMDL
MODEL 4
REMARK VINA RESULT:      -8.5      0.707      1.063
REMARK  Name = 
REMARK  9 active torsions:
REMARK  status: ('A' for Active; 'I' for Inactive)
REMARK    1  A    between atoms: C_1  and  O_2
REMARK    2  A    between atoms: O_2  and  C_3
REMARK    3  A    between atoms: C_6  and  C_7
REMARK    4  A    between atoms: C_7  and  C_9
REMARK    5  A    between atoms: N_14  and  C_15
REMARK    6  A    between atoms: C_20  and  C_21
REMARK    7  A    between atoms: C_23  and  O_24
REMARK    8  A    between atoms: O_24  and  C_25
REMARK    9  A    between atoms: C_25  and  C_27
REMARK                            x       y       z     vdW  Elec       q    Type
REMARK                         _______ _______ _______ _____ _____    ______ ____
ROOT
ATOM      1  C   UNL     1      -2.891  11.152  17.883  0.00  0.00    +0.000 A 
ATOM      2  C   UNL     1      -2.341  10.049  17.238  0.00  0.00    +0.000 A 
ATOM      3  C   UNL     1      -0.988   9.738  17.397  0.00  0.00    +0.000 A 
ATOM      4  C   UNL     1      -0.179  10.460  18.293  0.00  0.00    +0.000 A 
ATOM      5  C   UNL     1      -0.739  11.576  18.943  0.00  0.00    +0.000 A 
ATOM      6  C   UNL     1      -2.073  11.945  18.684  0.00  0.00    +0.000 A 
ENDROOT
BRANCH   1   8
ATOM      7  C   UNL     1      -5.088  11.266  18.781  0.00  0.00    +0.000 C 
ATOM      8  O   UNL     1      -4.224  11.347  17.652  0.00  0.00    +0.000 OA
ENDBRANCH   1   8
BRANCH   4   9
ATOM      9  C   UNL     1       1.247  10.047  18.490  0.00  0.00    +0.000 C 
ATOM     10  O   UNL     1       2.150  10.769  18.072  0.00  0.00    +0.000 OA
BRANCH   9  11
ATOM     11  C   UNL     1       1.565   8.736  19.182  0.00  0.00    +0.000 A 
ATOM     12  C   UNL     1       1.237   8.451  20.564  0.00  0.00    +0.000 A 
ATOM     13  C   UNL     1       1.458   7.243  21.092  0.00  0.00    +0.000 A 
ATOM     14  C   UNL     1       2.143   6.179  20.311  0.00  0.00    +0.000 A 
ATOM     15  O   UNL     1       2.334   5.102  20.872  0.00  0.00    +0.000 OA
ATOM     16  N   UNL     1       2.572   6.553  19.023  0.00  0.00    +0.000 N 
ATOM     17  C   UNL     1       2.233   7.799  18.483  0.00  0.00    +0.000 A 
BRANCH  16  18
ATOM     18  C   UNL     1       3.439   5.642  18.326  0.00  0.00    +0.000 A 
ATOM     19  C   UNL     1       4.811   5.938  18.228  0.00  0.00    +0.000 A 
ATOM     20  C   UNL     1       5.673   5.131  17.485  0.00  0.00    +0.000 A 
ATOM     21  C   UNL     1       5.175   4.019  16.818  0.00  0.00    +0.000 A 
ATOM     22  C   UNL     1       3.818   3.707  16.903  0.00  0.00    +0.000 A 
ATOM     23  C   UNL     1       2.933   4.509  17.649  0.00  0.00    +0.000 A 
ATOM     24  C   UNL     1       1.467   4.172  17.601  0.00  0.00    +0.000 C 
ENDBRANCH  16  18
ENDBRANCH   9  11
ENDBRANCH   4   9
BRANCH   5  25
ATOM     25  O   UNL     1       0.052  12.363  19.832  0.00  0.00    +0.000 OA
BRANCH  25  26
ATOM     26  C   UNL     1       0.028  12.099  21.201  0.00  0.00    +0.000 C 
ATOM     27  O   UNL     1       0.845  11.434  21.823  0.00  0.00    +0.000 OA
BRANCH  26  28
ATOM     28  C   UNL     1      -1.139  12.720  21.892  0.00  0.00    +0.000 A 
ATOM     29  C   UNL     1      -1.909  11.892  22.732  0.00  0.00    +0.000 A 
ATOM     30  C   UNL     1      -3.007  12.398  23.435  0.00  0.00    +0.000 A 
ATOM     31  C   UNL     1      -3.344  13.739  23.298  0.00  0.00    +0.000 A 
ATOM     32 CL   UNL     1      -4.685  14.374  24.170  0.00  0.00    +0.000 Cl
ATOM     33  C   UNL     1      -2.600  14.572  22.458  0.00  0.00    +0.000 A 
ATOM     34  C   UNL     1      -1.495  14.067  21.752  0.00  0.00    +0.000 A 
ENDBRANCH  26  28
ENDBRANCH  25  26
ENDBRANCH   5  25
TORSDOF 7
ENDMDL
MODEL 5
REMARK VINA RESULT:      -8.4      2.529      4.108
REMARK  Name = 
REMARK  9 active torsions:
REMARK  status: ('A' for Active; 'I' for Inactive)
REMARK    1  A    between atoms: C_1  and  O_2
REMARK    2  A    between atoms: O_2  and  C_3
REMARK    3  A    between atoms: C_6  and  C_7
REMARK    4  A    between atoms: C_7  and  C_9
REMARK    5  A    between atoms: N_14  and  C_15
REMARK    6  A    between atoms: C_20  and  C_21
REMARK    7  A    between atoms: C_23  and  O_24
REMARK    8  A    between atoms: O_24  and  C_25
REMARK    9  A    between atoms: C_25  and  C_27
REMARK                            x       y       z     vdW  Elec       q    Type
REMARK                         _______ _______ _______ _____ _____    ______ ____
ROOT
ATOM      1  C   UNL     1      -0.344  10.227  22.315  0.00  0.00    +0.000 A 
ATOM      2  C   UNL     1       0.636   9.265  22.543  0.00  0.00    +0.000 A 
ATOM      3  C   UNL     1       1.320   8.685  21.473  0.00  0.00    +0.000 A 
ATOM      4  C   UNL     1       1.120   9.134  20.155  0.00  0.00    +0.000 A 
ATOM      5  C   UNL     1       0.128  10.106  19.928  0.00  0.00    +0.000 A 
ATOM      6  C   UNL     1      -0.635  10.598  21.005  0.00  0.00    +0.000 A 
ENDROOT
BRANCH   1   8
ATOM      7  C   UNL     1      -2.016  11.631  23.253  0.00  0.00    +0.000 C 
ATOM      8  O   UNL     1      -0.937  10.721  23.443  0.00  0.00    +0.000 OA
ENDBRANCH   1   8
BRANCH   4   9
ATOM      9  C   UNL     1       1.930   8.538  19.045  0.00  0.00    +0.000 C 
ATOM     10  O   UNL     1       2.170   9.209  18.043  0.00  0.00    +0.000 OA
BRANCH   9  11
ATOM     11  C   UNL     1       2.427   7.110  19.156  0.00  0.00    +0.000 A 
ATOM     12  C   UNL     1       2.003   6.184  20.186  0.00  0.00    +0.000 A 
ATOM     13  C   UNL     1       2.404   4.908  20.177  0.00  0.00    +0.000 A 
ATOM     14  C   UNL     1       3.382   4.420  19.169  0.00  0.00    +0.000 A 
ATOM     15  O   UNL     1       3.724   3.241  19.238  0.00  0.00    +0.000 OA
ATOM     16  N   UNL     1       3.875   5.395  18.280  0.00  0.00    +0.000 N 
ATOM     17  C   UNL     1       3.353   6.693  18.271  0.00  0.00    +0.000 A 
BRANCH  16  18
ATOM     18  C   UNL     1       4.988   5.027  17.448  0.00  0.00    +0.000 A 
ATOM     19  C   UNL     1       4.744   4.498  16.167  0.00  0.00    +0.000 A 
ATOM     20  C   UNL     1       5.788   4.043  15.362  0.00  0.00    +0.000 A 
ATOM     21  C   UNL     1       7.096   4.100  15.828  0.00  0.00    +0.000 A 
ATOM     22  C   UNL     1       7.360   4.623  17.094  0.00  0.00    +0.000 A 
ATOM     23  C   UNL     1       6.319   5.087  17.921  0.00  0.00    +0.000 A 
ATOM     24  C   UNL     1       6.672   5.531  19.315  0.00  0.00    +0.000 C 
ENDBRANCH  16  18
ENDBRANCH   9  11
ENDBRANCH   4   9
BRANCH   5  25
ATOM     25  O   UNL     1      -0.140  10.566  18.605  0.00  0.00    +0.000 OA
BRANCH  25  26
ATOM     26  C   UNL     1      -0.545  11.884  18.395  0.00  0.00    +0.000 C 
ATOM     27  O   UNL     1      -1.660  12.250  18.053  0.00  0.00    +0.000 OA
BRANCH  26  28
ATOM     28  C   UNL     1       0.548  12.871  18.627  0.00  0.00    +0.000 A 
ATOM     29  C   UNL     1       0.215  14.057  19.312  0.00  0.00    +0.000 A 
ATOM     30  C   UNL     1       1.183  15.025  19.593  0.00  0.00    +0.000 A 
ATOM     31  C   UNL     1       2.495  14.815  19.183  0.00  0.00    +0.000 A 
ATOM     32 CL   UNL     1       3.696  15.996  19.535  0.00  0.00    +0.000 Cl
ATOM     33  C   UNL     1       2.840  13.653  18.490  0.00  0.00    +0.000 A 
ATOM     34  C   UNL     1       1.870  12.676  18.209  0.00  0.00    +0.000 A 
ENDBRANCH  26  28
ENDBRANCH  25  26
ENDBRANCH   5  25
TORSDOF 7
ENDMDL
MODEL 6
REMARK VINA RESULT:      -8.4      4.065      9.391
REMARK  Name = 
REMARK  9 active torsions:
REMARK  status: ('A' for Active; 'I' for Inactive)
REMARK    1  A    between atoms: C_1  and  O_2
REMARK    2  A    between atoms: O_2  and  C_3
REMARK    3  A    between atoms: C_6  and  C_7
REMARK    4  A    between atoms: C_7  and  C_9
REMARK    5  A    between atoms: N_14  and  C_15
REMARK    6  A    between atoms: C_20  and  C_21
REMARK    7  A    between atoms: C_23  and  O_24
REMARK    8  A    between atoms: O_24  and  C_25
REMARK    9  A    between atoms: C_25  and  C_27
REMARK                            x       y       z     vdW  Elec       q    Type
REMARK                         _______ _______ _______ _____ _____    ______ ____
ROOT
ATOM      1  C   UNL     1       2.611   3.127  18.465  0.00  0.00    +0.000 A 
ATOM      2  C   UNL     1       1.512   3.768  17.903  0.00  0.00    +0.000 A 
ATOM      3  C   UNL     1       1.448   5.163  17.869  0.00  0.00    +0.000 A 
ATOM      4  C   UNL     1       2.534   5.949  18.295  0.00  0.00    +0.000 A 
ATOM      5  C   UNL     1       3.645   5.296  18.863  0.00  0.00    +0.000 A 
ATOM      6  C   UNL     1       3.644   3.894  18.997  0.00  0.00    +0.000 A 
ENDROOT
BRANCH   1   8
ATOM      7  C   UNL     1       3.768   1.065  18.708  0.00  0.00    +0.000 C 
ATOM      8  O   UNL     1       2.557   1.761  18.433  0.00  0.00    +0.000 OA
ENDBRANCH   1   8
BRANCH   4   9
ATOM      9  C   UNL     1       2.456   7.439  18.171  0.00  0.00    +0.000 C 
ATOM     10  O   UNL     1       2.888   7.986  17.158  0.00  0.00    +0.000 OA
BRANCH   9  11
ATOM     11  C   UNL     1       1.866   8.262  19.300  0.00  0.00    +0.000 A 
ATOM     12  C   UNL     1       1.517   7.719  20.598  0.00  0.00    +0.000 A 
ATOM     13  C   UNL     1       1.088   8.512  21.585  0.00  0.00    +0.000 A 
ATOM     14  C   UNL     1       0.854   9.963  21.357  0.00  0.00    +0.000 A 
ATOM     15  O   UNL     1       0.436  10.624  22.305  0.00  0.00    +0.000 OA
ATOM     16  N   UNL     1       1.070  10.411  20.039  0.00  0.00    +0.000 N 
ATOM     17  C   UNL     1       1.608   9.562  19.066  0.00  0.00    +0.000 A 
BRANCH  16  18
ATOM     18  C   UNL     1       0.635  11.744  19.717  0.00  0.00    +0.000 A 
ATOM     19  C   UNL     1       1.455  12.835  20.055  0.00  0.00    +0.000 A 
ATOM     20  C   UNL     1       1.034  14.149  19.844  0.00  0.00    +0.000 A 
ATOM     21  C   UNL     1      -0.220  14.393  19.300  0.00  0.00    +0.000 A 
ATOM     22  C   UNL     1      -1.049  13.324  18.955  0.00  0.00    +0.000 A 
ATOM     23  C   UNL     1      -0.641  11.993  19.161  0.00  0.00    +0.000 A 
ATOM     24  C   UNL     1      -1.633  10.899  18.869  0.00  0.00    +0.000 C 
ENDBRANCH  16  18
ENDBRANCH   9  11
ENDBRANCH   4   9
BRANCH   5  25
ATOM     25  O   UNL     1       4.755   6.051  19.345  0.00  0.00    +0.000 OA
BRANCH  25  26
ATOM     26  C   UNL     1       6.055   5.627  19.072  0.00  0.00    +0.000 C 
ATOM     27  O   UNL     1       6.954   5.485  19.888  0.00  0.00    +0.000 OA
BRANCH  26  28
ATOM     28  C   UNL     1       6.282   5.350  17.624  0.00  0.00    +0.000 A 
ATOM     29  C   UNL     1       5.680   6.222  16.696  0.00  0.00    +0.000 A 
ATOM     30  C   UNL     1       5.860   6.049  15.321  0.00  0.00    +0.000 A 
ATOM     31  C   UNL     1       6.644   4.995  14.864  0.00  0.00    +0.000 A 
ATOM     32 CL   UNL     1       6.882   4.782  13.173  0.00  0.00    +0.000 Cl
ATOM     33  C   UNL     1       7.237   4.112  15.770  0.00  0.00    +0.000 A 
ATOM     34  C   UNL     1       7.060   4.285  17.153  0.00  0.00    +0.000 A 
ENDBRANCH  26  28
ENDBRANCH  25  26
ENDBRANCH   5  25
TORSDOF 7
ENDMDL
MODEL 7
REMARK VINA RESULT:      -8.3      2.277      4.463
REMARK  Name = 
REMARK  9 active torsions:
REMARK  status: ('A' for Active; 'I' for Inactive)
REMARK    1  A    between atoms: C_1  and  O_2
REMARK    2  A    between atoms: O_2  and  C_3
REMARK    3  A    between atoms: C_6  and  C_7
REMARK    4  A    between atoms: C_7  and  C_9
REMARK    5  A    between atoms: N_14  and  C_15
REMARK    6  A    between atoms: C_20  and  C_21
REMARK    7  A    between atoms: C_23  and  O_24
REMARK    8  A    between atoms: O_24  and  C_25
REMARK    9  A    between atoms: C_25  and  C_27
REMARK                            x       y       z     vdW  Elec       q    Type
REMARK                         _______ _______ _______ _____ _____    ______ ____
ROOT
ATOM      1  C   UNL     1      -0.235  10.175  22.017  0.00  0.00    +0.000 A 
ATOM      2  C   UNL     1       0.953   9.453  22.065  0.00  0.00    +0.000 A 
ATOM      3  C   UNL     1       1.604   9.082  20.886  0.00  0.00    +0.000 A 
ATOM      4  C   UNL     1       1.140   9.522  19.633  0.00  0.00    +0.000 A 
ATOM      5  C   UNL     1      -0.063  10.252  19.588  0.00  0.00    +0.000 A 
ATOM      6  C   UNL     1      -0.769  10.518  20.777  0.00  0.00    +0.000 A 
ENDROOT
BRANCH   1   8
ATOM      7  C   UNL     1      -1.781  11.484  23.260  0.00  0.00    +0.000 C 
ATOM      8  O   UNL     1      -0.771  10.481  23.237  0.00  0.00    +0.000 OA
ENDBRANCH   1   8
BRANCH   4   9
ATOM      9  C   UNL     1       1.910   9.166  18.399  0.00  0.00    +0.000 C 
ATOM     10  O   UNL     1       1.896   9.930  17.435  0.00  0.00    +0.000 OA
BRANCH   9  11
ATOM     11  C   UNL     1       2.680   7.861  18.339  0.00  0.00    +0.000 A 
ATOM     12  C   UNL     1       3.800   7.624  17.451  0.00  0.00    +0.000 A 
ATOM     13  C   UNL     1       4.499   6.486  17.509  0.00  0.00    +0.000 A 
ATOM     14  C   UNL     1       4.089   5.380  18.415  0.00  0.00    +0.000 A 
ATOM     15  O   UNL     1       4.766   4.354  18.395  0.00  0.00    +0.000 OA
ATOM     16  N   UNL     1       2.909   5.604  19.150  0.00  0.00    +0.000 N 
ATOM     17  C   UNL     1       2.268   6.847  19.123  0.00  0.00    +0.000 A 
BRANCH  16  18
ATOM     18  C   UNL     1       2.348   4.484  19.854  0.00  0.00    +0.000 A 
ATOM     19  C   UNL     1       2.622   4.326  21.225  0.00  0.00    +0.000 A 
ATOM     20  C   UNL     1       2.175   3.207  21.928  0.00  0.00    +0.000 A 
ATOM     21  C   UNL     1       1.453   2.220  21.269  0.00  0.00    +0.000 A 
ATOM     22  C   UNL     1       1.169   2.357  19.910  0.00  0.00    +0.000 A 
ATOM     23  C   UNL     1       1.612   3.480  19.184  0.00  0.00    +0.000 A 
ATOM     24  C   UNL     1       1.363   3.502  17.700  0.00  0.00    +0.000 C 
ENDBRANCH  16  18
ENDBRANCH   9  11
ENDBRANCH   4   9
BRANCH   5  25
ATOM     25  O   UNL     1      -0.594  10.688  18.338  0.00  0.00    +0.000 OA
BRANCH  25  26
ATOM     26  C   UNL     1      -1.237  11.922  18.248  0.00  0.00    +0.000 C 
ATOM     27  O   UNL     1      -0.696  13.019  18.244  0.00  0.00    +0.000 OA
BRANCH  26  28
ATOM     28  C   UNL     1      -2.721  11.799  18.158  0.00  0.00    +0.000 A 
ATOM     29  C   UNL     1      -3.475  12.238  19.264  0.00  0.00    +0.000 A 
ATOM     30  C   UNL     1      -4.872  12.180  19.255  0.00  0.00    +0.000 A 
ATOM     31  C   UNL     1      -5.525  11.676  18.136  0.00  0.00    +0.000 A 
ATOM     32 CL   UNL     1      -7.244  11.613  18.110  0.00  0.00    +0.000 Cl
ATOM     33  C   UNL     1      -4.792  11.223  17.036  0.00  0.00    +0.000 A 
ATOM     34  C   UNL     1      -3.388  11.282  17.041  0.00  0.00    +0.000 A 
ENDBRANCH  26  28
ENDBRANCH  25  26
ENDBRANCH   5  25
TORSDOF 7
ENDMDL
MODEL 8
REMARK VINA RESULT:      -8.2      2.605      4.048
REMARK  Name = 
REMARK  9 active torsions:
REMARK  status: ('A' for Active; 'I' for Inactive)
REMARK    1  A    between atoms: C_1  and  O_2
REMARK    2  A    between atoms: O_2  and  C_3
REMARK    3  A    between atoms: C_6  and  C_7
REMARK    4  A    between atoms: C_7  and  C_9
REMARK    5  A    between atoms: N_14  and  C_15
REMARK    6  A    between atoms: C_20  and  C_21
REMARK    7  A    between atoms: C_23  and  O_24
REMARK    8  A    between atoms: O_24  and  C_25
REMARK    9  A    between atoms: C_25  and  C_27
REMARK                            x       y       z     vdW  Elec       q    Type
REMARK                         _______ _______ _______ _____ _____    ______ ____
ROOT
ATOM      1  C   UNL     1      -0.538  10.461  22.398  0.00  0.00    +0.000 A 
ATOM      2  C   UNL     1       0.351   9.440  22.718  0.00  0.00    +0.000 A 
ATOM      3  C   UNL     1       1.037   8.758  21.710  0.00  0.00    +0.000 A 
ATOM      4  C   UNL     1       0.933   9.156  20.364  0.00  0.00    +0.000 A 
ATOM      5  C   UNL     1       0.032  10.190  20.045  0.00  0.00    +0.000 A 
ATOM      6  C   UNL     1      -0.739  10.789  21.060  0.00  0.00    +0.000 A 
ENDROOT
BRANCH   1   8
ATOM      7  C   UNL     1      -2.012  12.145  23.196  0.00  0.00    +0.000 C 
ATOM      8  O   UNL     1      -1.142  11.053  23.472  0.00  0.00    +0.000 OA
ENDBRANCH   1   8
BRANCH   4   9
ATOM      9  C   UNL     1       1.744   8.447  19.324  0.00  0.00    +0.000 C 
ATOM     10  O   UNL     1       1.965   9.000  18.248  0.00  0.00    +0.000 OA
BRANCH   9  11
ATOM     11  C   UNL     1       2.266   7.050  19.596  0.00  0.00    +0.000 A 
ATOM     12  C   UNL     1       1.671   6.136  20.550  0.00  0.00    +0.000 A 
ATOM     13  C   UNL     1       2.118   4.883  20.678  0.00  0.00    +0.000 A 
ATOM     14  C   UNL     1       3.310   4.413  19.922  0.00  0.00    +0.000 A 
ATOM     15  O   UNL     1       3.678   3.256  20.110  0.00  0.00    +0.000 OA
ATOM     16  N   UNL     1       3.939   5.384  19.119  0.00  0.00    +0.000 N 
ATOM     17  C   UNL     1       3.377   6.653  18.946  0.00  0.00    +0.000 A 
BRANCH  16  18
ATOM     18  C   UNL     1       5.219   5.046  18.558  0.00  0.00    +0.000 A 
ATOM     19  C   UNL     1       6.390   5.454  19.222  0.00  0.00    +0.000 A 
ATOM     20  C   UNL     1       7.651   5.228  18.669  0.00  0.00    +0.000 A 
ATOM     21  C   UNL     1       7.762   4.599  17.436  0.00  0.00    +0.000 A 
ATOM     22  C   UNL     1       6.613   4.185  16.761  0.00  0.00    +0.000 A 
ATOM     23  C   UNL     1       5.333   4.404  17.304  0.00  0.00    +0.000 A 
ATOM     24  C   UNL     1       4.140   4.030  16.466  0.00  0.00    +0.000 C 
ENDBRANCH  16  18
ENDBRANCH   9  11
ENDBRANCH   4   9
BRANCH   5  25
ATOM     25  O   UNL     1      -0.137  10.604  18.691  0.00  0.00    +0.000 OA
BRANCH  25  26
ATOM     26  C   UNL     1      -0.559  11.903  18.409  0.00  0.00    +0.000 C 
ATOM     27  O   UNL     1      -1.667  12.231  18.010  0.00  0.00    +0.000 OA
BRANCH  26  28
ATOM     28  C   UNL     1       0.507  12.922  18.638  0.00  0.00    +0.000 A 
ATOM     29  C   UNL     1       1.814  12.594  18.225  0.00  0.00    +0.000 A 
ATOM     30  C   UNL     1       2.868  13.500  18.381  0.00  0.00    +0.000 A 
ATOM     31  C   UNL     1       2.620  14.741  18.956  0.00  0.00    +0.000 A 
ATOM     32 CL   UNL     1       3.909  15.866  19.139  0.00  0.00    +0.000 Cl
ATOM     33  C   UNL     1       1.333  15.076  19.384  0.00  0.00    +0.000 A 
ATOM     34  C   UNL     1       0.271  14.170  19.227  0.00  0.00    +0.000 A 
ENDBRANCH  26  28
ENDBRANCH  25  26
ENDBRANCH   5  25
TORSDOF 7
ENDMDL
MODEL 9
REMARK VINA RESULT:      -8.2      2.235      4.103
REMARK  Name = 
REMARK  9 active torsions:
REMARK  status: ('A' for Active; 'I' for Inactive)
REMARK    1  A    between atoms: C_1  and  O_2
REMARK    2  A    between atoms: O_2  and  C_3
REMARK    3  A    between atoms: C_6  and  C_7
REMARK    4  A    between atoms: C_7  and  C_9
REMARK    5  A    between atoms: N_14  and  C_15
REMARK    6  A    between atoms: C_20  and  C_21
REMARK    7  A    between atoms: C_23  and  O_24
REMARK    8  A    between atoms: O_24  and  C_25
REMARK    9  A    between atoms: C_25  and  C_27
REMARK                            x       y       z     vdW  Elec       q    Type
REMARK                         _______ _______ _______ _____ _____    ______ ____
ROOT
ATOM      1  C   UNL     1       0.040   9.941  21.961  0.00  0.00    +0.000 A 
ATOM      2  C   UNL     1       1.003   8.937  21.963  0.00  0.00    +0.000 A 
ATOM      3  C   UNL     1       1.543   8.473  20.761  0.00  0.00    +0.000 A 
ATOM      4  C   UNL     1       1.213   9.081  19.535  0.00  0.00    +0.000 A 
ATOM      5  C   UNL     1       0.238  10.096  19.539  0.00  0.00    +0.000 A 
ATOM      6  C   UNL     1      -0.382  10.473  20.745  0.00  0.00    +0.000 A 
ENDROOT
BRANCH   1   8
ATOM      7  C   UNL     1      -1.500  11.221  23.242  0.00  0.00    +0.000 C 
ATOM      8  O   UNL     1      -0.406  10.311  23.199  0.00  0.00    +0.000 OA
ENDBRANCH   1   8
BRANCH   4   9
ATOM      9  C   UNL     1       1.872   8.603  18.279  0.00  0.00    +0.000 C 
ATOM     10  O   UNL     1       2.094   9.402  17.370  0.00  0.00    +0.000 OA
BRANCH   9  11
ATOM     11  C   UNL     1       2.241   7.140  18.128  0.00  0.00    +0.000 A 
ATOM     12  C   UNL     1       1.277   6.058  18.147  0.00  0.00    +0.000 A 
ATOM     13  C   UNL     1       1.651   4.796  17.914  0.00  0.00    +0.000 A 
ATOM     14  C   UNL     1       3.084   4.442  17.731  0.00  0.00    +0.000 A 
ATOM     15  O   UNL     1       3.353   3.257  17.546  0.00  0.00    +0.000 OA
ATOM     16  N   UNL     1       3.993   5.508  17.867  0.00  0.00    +0.000 N 
ATOM     17  C   UNL     1       3.545   6.825  18.016  0.00  0.00    +0.000 A 
BRANCH  16  18
ATOM     18  C   UNL     1       5.391   5.178  17.932  0.00  0.00    +0.000 A 
ATOM     19  C   UNL     1       6.064   5.276  19.163  0.00  0.00    +0.000 A 
ATOM     20  C   UNL     1       7.439   5.054  19.255  0.00  0.00    +0.000 A 
ATOM     21  C   UNL     1       8.166   4.740  18.115  0.00  0.00    +0.000 A 
ATOM     22  C   UNL     1       7.518   4.636  16.883  0.00  0.00    +0.000 A 
ATOM     23  C   UNL     1       6.132   4.856  16.771  0.00  0.00    +0.000 A 
ATOM     24  C   UNL     1       5.525   4.836  15.394  0.00  0.00    +0.000 C 
ENDBRANCH  16  18
ENDBRANCH   9  11
ENDBRANCH   4   9
BRANCH   5  25
ATOM     25  O   UNL     1      -0.157  10.717  18.317  0.00  0.00    +0.000 OA
BRANCH  25  26
ATOM     26  C   UNL     1      -0.898  11.898  18.345  0.00  0.00    +0.000 C 
ATOM     27  O   UNL     1      -0.447  13.031  18.435  0.00  0.00    +0.000 OA
BRANCH  26  28
ATOM     28  C   UNL     1      -2.368  11.663  18.259  0.00  0.00    +0.000 A 
ATOM     29  C   UNL     1      -3.172  12.212  19.278  0.00  0.00    +0.000 A 
ATOM     30  C   UNL     1      -4.562  12.060  19.262  0.00  0.00    +0.000 A 
ATOM     31  C   UNL     1      -5.157  11.350  18.226  0.00  0.00    +0.000 A 
ATOM     32 CL   UNL     1      -6.868  11.168  18.192  0.00  0.00    +0.000 Cl
ATOM     33  C   UNL     1      -4.375  10.787  17.216  0.00  0.00    +0.000 A 
ATOM     34  C   UNL     1      -2.978  10.940  17.227  0.00  0.00    +0.000 A 
ENDBRANCH  26  28
ENDBRANCH  25  26
ENDBRANCH   5  25
TORSDOF 7
ENDMDL
