MODEL 1
REMARK VINA RESULT:      -7.3      0.000      0.000
REMARK  Name = 
REMARK  7 active torsions:
REMARK  status: ('A' for Active; 'I' for Inactive)
REMARK    1  A    between atoms: C_2  and  C_3
REMARK    2  A    between atoms: C_3  and  S_4
REMARK    3  A    between atoms: S_4  and  C_5
REMARK    4  A    between atoms: C_9  and  N_10
REMARK    5  A    between atoms: N_13  and  C_14
REMARK    6  A    between atoms: C_14  and  C_15
REMARK    7  A    between atoms: C_15  and  C_16
REMARK                            x       y       z     vdW  Elec       q    Type
REMARK                         _______ _______ _______ _____ _____    ______ ____
ROOT
ATOM      1  O   UNL     1       7.792   6.156  18.572  0.00  0.00    +0.000 OA
ATOM      2  C   UNL     1       7.291   6.764  17.629  0.00  0.00    +0.000 C 
ATOM      3  N   UNL     1       7.588   8.093  17.378  0.00  0.00    +0.000 N 
ATOM      4  H   UNL     1       7.212   8.551  16.557  0.00  0.00    +0.000 HD
ENDROOT
BRANCH   2   5
ATOM      5  C   UNL     1       6.347   6.119  16.611  0.00  0.00    +0.000 C 
BRANCH   5   6
ATOM      6  S   UNL     1       5.910   4.428  17.125  0.00  0.00    +0.000 S 
BRANCH   6   7
ATOM      7  C   UNL     1       4.339   4.666  17.884  0.00  0.00    +0.000 A 
ATOM      8  C   UNL     1       3.572   5.858  17.685  0.00  0.00    +0.000 A 
ATOM      9  C   UNL     1       2.332   5.791  18.290  0.00  0.00    +0.000 A 
ATOM     10  S   UNL     1       2.095   4.299  19.101  0.00  0.00    +0.000 S 
ATOM     11  C   UNL     1       3.631   3.748  18.623  0.00  0.00    +0.000 A 
BRANCH  11  12
ATOM     12  N   UNL     1       4.039   2.449  19.033  0.00  0.00    +0.000 N 
ATOM     13  O   UNL     1       4.862   2.398  19.958  0.00  0.00    +0.000 OA
ATOM     14  O   UNL     1       3.533   1.484  18.449  0.00  0.00    +0.000 OA
ENDBRANCH  11  12
ENDBRANCH   6   7
ENDBRANCH   5   6
ENDBRANCH   2   5
BRANCH   3  15
ATOM     15  C   UNL     1       8.468   8.841  18.270  0.00  0.00    +0.000 C 
BRANCH  15  16
ATOM     16  C   UNL     1       8.507  10.336  17.943  0.00  0.00    +0.000 C 
BRANCH  16  17
ATOM     17  C   UNL     1       9.688  11.043  18.565  0.00  0.00    +0.000 A 
ATOM     18  C   UNL     1      10.708  11.569  17.760  0.00  0.00    +0.000 A 
ATOM     19  C   UNL     1      11.802  12.222  18.333  0.00  0.00    +0.000 A 
ATOM     20  C   UNL     1      11.891  12.351  19.717  0.00  0.00    +0.000 A 
ATOM     21  C   UNL     1      10.886  11.829  20.529  0.00  0.00    +0.000 A 
ATOM     22  C   UNL     1       9.791  11.176  19.957  0.00  0.00    +0.000 A 
ENDBRANCH  16  17
ENDBRANCH  15  16
ENDBRANCH   3  15
TORSDOF 7
ENDMDL
MODEL 2
REMARK VINA RESULT:      -6.9      4.012      5.230
REMARK  Name = 
REMARK  7 active torsions:
REMARK  status: ('A' for Active; 'I' for Inactive)
REMARK    1  A    between atoms: C_2  and  C_3
REMARK    2  A    between atoms: C_3  and  S_4
REMARK    3  A    between atoms: S_4  and  C_5
REMARK    4  A    between atoms: C_9  and  N_10
REMARK    5  A    between atoms: N_13  and  C_14
REMARK    6  A    between atoms: C_14  and  C_15
REMARK    7  A    between atoms: C_15  and  C_16
REMARK                            x       y       z     vdW  Elec       q    Type
REMARK                         _______ _______ _______ _____ _____    ______ ____
ROOT
ATOM      1  O   UNL     1       2.499   3.152  16.651  0.00  0.00    +0.000 OA
ATOM      2  C   UNL     1       3.498   2.700  17.207  0.00  0.00    +0.000 C 
ATOM      3  N   UNL     1       4.774   3.114  16.861  0.00  0.00    +0.000 N 
ATOM      4  H   UNL     1       5.574   2.774  17.379  0.00  0.00    +0.000 HD
ENDROOT
BRANCH   2   5
ATOM      5  C   UNL     1       3.444   1.695  18.360  0.00  0.00    +0.000 C 
BRANCH   5   6
ATOM      6  S   UNL     1       4.275   2.367  19.834  0.00  0.00    +0.000 S 
BRANCH   6   7
ATOM      7  C   UNL     1       3.474   3.922  20.034  0.00  0.00    +0.000 A 
ATOM      8  C   UNL     1       4.079   5.148  19.615  0.00  0.00    +0.000 A 
ATOM      9  C   UNL     1       3.236   6.231  19.774  0.00  0.00    +0.000 A 
ATOM     10  S   UNL     1       1.721   5.771  20.432  0.00  0.00    +0.000 S 
ATOM     11  C   UNL     1       2.191   4.138  20.480  0.00  0.00    +0.000 A 
BRANCH  11  12
ATOM     12  N   UNL     1       1.261   3.183  20.977  0.00  0.00    +0.000 N 
ATOM     13  O   UNL     1       1.356   2.899  22.179  0.00  0.00    +0.000 OA
ATOM     14  O   UNL     1       0.433   2.729  20.179  0.00  0.00    +0.000 OA
ENDBRANCH  11  12
ENDBRANCH   6   7
ENDBRANCH   5   6
ENDBRANCH   2   5
BRANCH   3  15
ATOM     15  C   UNL     1       4.980   4.063  15.772  0.00  0.00    +0.000 C 
BRANCH  15  16
ATOM     16  C   UNL     1       6.455   4.421  15.574  0.00  0.00    +0.000 C 
BRANCH  16  17
ATOM     17  C   UNL     1       7.003   5.289  16.683  0.00  0.00    +0.000 A 
ATOM     18  C   UNL     1       7.084   6.679  16.525  0.00  0.00    +0.000 A 
ATOM     19  C   UNL     1       7.591   7.483  17.548  0.00  0.00    +0.000 A 
ATOM     20  C   UNL     1       8.029   6.906  18.737  0.00  0.00    +0.000 A 
ATOM     21  C   UNL     1       7.960   5.524  18.906  0.00  0.00    +0.000 A 
ATOM     22  C   UNL     1       7.451   4.719  17.883  0.00  0.00    +0.000 A 
ENDBRANCH  16  17
ENDBRANCH  15  16
ENDBRANCH   3  15
TORSDOF 7
ENDMDL
MODEL 3
REMARK VINA RESULT:      -6.8      1.314      1.886
REMARK  Name = 
REMARK  7 active torsions:
REMARK  status: ('A' for Active; 'I' for Inactive)
REMARK    1  A    between atoms: C_2  and  C_3
REMARK    2  A    between atoms: C_3  and  S_4
REMARK    3  A    between atoms: S_4  and  C_5
REMARK    4  A    between atoms: C_9  and  N_10
REMARK    5  A    between atoms: N_13  and  C_14
REMARK    6  A    between atoms: C_14  and  C_15
REMARK    7  A    between atoms: C_15  and  C_16
REMARK                            x       y       z     vdW  Elec       q    Type
REMARK                         _______ _______ _______ _____ _____    ______ ____
ROOT
ATOM      1  O   UNL     1       6.996   5.371  19.149  0.00  0.00    +0.000 OA
ATOM      2  C   UNL     1       7.204   5.587  17.957  0.00  0.00    +0.000 C 
ATOM      3  N   UNL     1       7.866   6.726  17.528  0.00  0.00    +0.000 N 
ATOM      4  H   UNL     1       8.082   6.846  16.547  0.00  0.00    +0.000 HD
ENDROOT
BRANCH   2   5
ATOM      5  C   UNL     1       6.816   4.616  16.840  0.00  0.00    +0.000 C 
BRANCH   5   6
ATOM      6  S   UNL     1       5.464   5.305  15.834  0.00  0.00    +0.000 S 
BRANCH   6   7
ATOM      7  C   UNL     1       4.293   5.776  17.062  0.00  0.00    +0.000 A 
ATOM      8  C   UNL     1       4.036   7.147  17.381  0.00  0.00    +0.000 A 
ATOM      9  C   UNL     1       3.012   7.290  18.297  0.00  0.00    +0.000 A 
ATOM     10  S   UNL     1       2.366   5.775  18.776  0.00  0.00    +0.000 S 
ATOM     11  C   UNL     1       3.436   4.946  17.747  0.00  0.00    +0.000 A 
BRANCH  11  12
ATOM     12  N   UNL     1       3.368   3.527  17.705  0.00  0.00    +0.000 N 
ATOM     13  O   UNL     1       2.497   3.040  16.970  0.00  0.00    +0.000 OA
ATOM     14  O   UNL     1       4.184   2.898  18.390  0.00  0.00    +0.000 OA
ENDBRANCH  11  12
ENDBRANCH   6   7
ENDBRANCH   5   6
ENDBRANCH   2   5
BRANCH   3  15
ATOM     15  C   UNL     1       8.289   7.746  18.481  0.00  0.00    +0.000 C 
BRANCH  15  16
ATOM     16  C   UNL     1       8.116   9.167  17.940  0.00  0.00    +0.000 C 
BRANCH  16  17
ATOM     17  C   UNL     1       9.087  10.151  18.549  0.00  0.00    +0.000 A 
ATOM     18  C   UNL     1       9.157  10.313  19.940  0.00  0.00    +0.000 A 
ATOM     19  C   UNL     1      10.054  11.222  20.506  0.00  0.00    +0.000 A 
ATOM     20  C   UNL     1      10.885  11.984  19.688  0.00  0.00    +0.000 A 
ATOM     21  C   UNL     1      10.822  11.836  18.303  0.00  0.00    +0.000 A 
ATOM     22  C   UNL     1       9.926  10.926  17.736  0.00  0.00    +0.000 A 
ENDBRANCH  16  17
ENDBRANCH  15  16
ENDBRANCH   3  15
TORSDOF 7
ENDMDL
MODEL 4
REMARK VINA RESULT:      -6.8      1.257      1.747
REMARK  Name = 
REMARK  7 active torsions:
REMARK  status: ('A' for Active; 'I' for Inactive)
REMARK    1  A    between atoms: C_2  and  C_3
REMARK    2  A    between atoms: C_3  and  S_4
REMARK    3  A    between atoms: S_4  and  C_5
REMARK    4  A    between atoms: C_9  and  N_10
REMARK    5  A    between atoms: N_13  and  C_14
REMARK    6  A    between atoms: C_14  and  C_15
REMARK    7  A    between atoms: C_15  and  C_16
REMARK                            x       y       z     vdW  Elec       q    Type
REMARK                         _______ _______ _______ _____ _____    ______ ____
ROOT
ATOM      1  O   UNL     1       6.175   7.141  16.309  0.00  0.00    +0.000 OA
ATOM      2  C   UNL     1       6.857   6.613  17.184  0.00  0.00    +0.000 C 
ATOM      3  N   UNL     1       7.768   7.337  17.935  0.00  0.00    +0.000 N 
ATOM      4  H   UNL     1       8.269   6.891  18.693  0.00  0.00    +0.000 HD
ENDROOT
BRANCH   2   5
ATOM      5  C   UNL     1       6.737   5.138  17.577  0.00  0.00    +0.000 C 
BRANCH   5   6
ATOM      6  S   UNL     1       6.014   4.975  19.239  0.00  0.00    +0.000 S 
BRANCH   6   7
ATOM      7  C   UNL     1       4.305   4.747  18.878  0.00  0.00    +0.000 A 
ATOM      8  C   UNL     1       3.469   5.826  18.451  0.00  0.00    +0.000 A 
ATOM      9  C   UNL     1       2.193   5.405  18.127  0.00  0.00    +0.000 A 
ATOM     10  S   UNL     1       2.004   3.715  18.343  0.00  0.00    +0.000 S 
ATOM     11  C   UNL     1       3.621   3.555  18.844  0.00  0.00    +0.000 A 
BRANCH  11  12
ATOM     12  N   UNL     1       4.094   2.260  19.189  0.00  0.00    +0.000 N 
ATOM     13  O   UNL     1       3.797   1.341  18.412  0.00  0.00    +0.000 OA
ATOM     14  O   UNL     1       4.769   2.158  20.220  0.00  0.00    +0.000 OA
ENDBRANCH  11  12
ENDBRANCH   6   7
ENDBRANCH   5   6
ENDBRANCH   2   5
BRANCH   3  15
ATOM     15  C   UNL     1       7.995   8.754  17.667  0.00  0.00    +0.000 C 
BRANCH  15  16
ATOM     16  C   UNL     1       8.818   9.436  18.764  0.00  0.00    +0.000 C 
BRANCH  16  17
ATOM     17  C   UNL     1       9.345  10.789  18.346  0.00  0.00    +0.000 A 
ATOM     18  C   UNL     1       8.475  11.771  17.853  0.00  0.00    +0.000 A 
ATOM     19  C   UNL     1       8.960  13.022  17.465  0.00  0.00    +0.000 A 
ATOM     20  C   UNL     1      10.322  13.302  17.560  0.00  0.00    +0.000 A 
ATOM     21  C   UNL     1      11.198  12.333  18.044  0.00  0.00    +0.000 A 
ATOM     22  C   UNL     1      10.714  11.082  18.434  0.00  0.00    +0.000 A 
ENDBRANCH  16  17
ENDBRANCH  15  16
ENDBRANCH   3  15
TORSDOF 7
ENDMDL
MODEL 5
REMARK VINA RESULT:      -6.8      2.173      2.620
REMARK  Name = 
REMARK  7 active torsions:
REMARK  status: ('A' for Active; 'I' for Inactive)
REMARK    1  A    between atoms: C_2  and  C_3
REMARK    2  A    between atoms: C_3  and  S_4
REMARK    3  A    between atoms: S_4  and  C_5
REMARK    4  A    between atoms: C_9  and  N_10
REMARK    5  A    between atoms: N_13  and  C_14
REMARK    6  A    between atoms: C_14  and  C_15
REMARK    7  A    between atoms: C_15  and  C_16
REMARK                            x       y       z     vdW  Elec       q    Type
REMARK                         _______ _______ _______ _____ _____    ______ ____
ROOT
ATOM      1  O   UNL     1       7.947   5.544  19.717  0.00  0.00    +0.000 OA
ATOM      2  C   UNL     1       7.452   5.848  18.634  0.00  0.00    +0.000 C 
ATOM      3  N   UNL     1       7.692   7.078  18.043  0.00  0.00    +0.000 N 
ATOM      4  H   UNL     1       7.325   7.277  17.121  0.00  0.00    +0.000 HD
ENDROOT
BRANCH   2   5
ATOM      5  C   UNL     1       6.583   4.901  17.804  0.00  0.00    +0.000 C 
BRANCH   5   6
ATOM      6  S   UNL     1       5.246   5.819  16.976  0.00  0.00    +0.000 S 
BRANCH   6   7
ATOM      7  C   UNL     1       3.831   4.851  17.377  0.00  0.00    +0.000 A 
ATOM      8  C   UNL     1       3.732   3.467  17.025  0.00  0.00    +0.000 A 
ATOM      9  C   UNL     1       2.585   2.880  17.523  0.00  0.00    +0.000 A 
ATOM     10  S   UNL     1       1.627   3.995  18.406  0.00  0.00    +0.000 S 
ATOM     11  C   UNL     1       2.753   5.240  18.137  0.00  0.00    +0.000 A 
BRANCH  11  12
ATOM     12  N   UNL     1       2.481   6.524  18.683  0.00  0.00    +0.000 N 
ATOM     13  O   UNL     1       2.091   7.388  17.884  0.00  0.00    +0.000 OA
ATOM     14  O   UNL     1       2.640   6.670  19.900  0.00  0.00    +0.000 OA
ENDBRANCH  11  12
ENDBRANCH   6   7
ENDBRANCH   5   6
ENDBRANCH   2   5
BRANCH   3  15
ATOM     15  C   UNL     1       8.497   8.087  18.723  0.00  0.00    +0.000 C 
BRANCH  15  16
ATOM     16  C   UNL     1       8.449   9.449  18.025  0.00  0.00    +0.000 C 
BRANCH  16  17
ATOM     17  C   UNL     1       9.352  10.472  18.671  0.00  0.00    +0.000 A 
ATOM     18  C   UNL     1       9.372  10.627  20.064  0.00  0.00    +0.000 A 
ATOM     19  C   UNL     1      10.206  11.573  20.664  0.00  0.00    +0.000 A 
ATOM     20  C   UNL     1      11.024  12.380  19.877  0.00  0.00    +0.000 A 
ATOM     21  C   UNL     1      11.011  12.241  18.491  0.00  0.00    +0.000 A 
ATOM     22  C   UNL     1      10.178  11.293  17.890  0.00  0.00    +0.000 A 
ENDBRANCH  16  17
ENDBRANCH  15  16
ENDBRANCH   3  15
TORSDOF 7
ENDMDL
MODEL 6
REMARK VINA RESULT:      -6.7      2.090      2.542
REMARK  Name = 
REMARK  7 active torsions:
REMARK  status: ('A' for Active; 'I' for Inactive)
REMARK    1  A    between atoms: C_2  and  C_3
REMARK    2  A    between atoms: C_3  and  S_4
REMARK    3  A    between atoms: S_4  and  C_5
REMARK    4  A    between atoms: C_9  and  N_10
REMARK    5  A    between atoms: N_13  and  C_14
REMARK    6  A    between atoms: C_14  and  C_15
REMARK    7  A    between atoms: C_15  and  C_16
REMARK                            x       y       z     vdW  Elec       q    Type
REMARK                         _______ _______ _______ _____ _____    ______ ____
ROOT
ATOM      1  O   UNL     1       7.690   6.035  15.605  0.00  0.00    +0.000 OA
ATOM      2  C   UNL     1       7.087   5.752  16.638  0.00  0.00    +0.000 C 
ATOM      3  N   UNL     1       6.853   6.694  17.626  0.00  0.00    +0.000 N 
ATOM      4  H   UNL     1       6.298   6.452  18.436  0.00  0.00    +0.000 HD
ENDROOT
BRANCH   2   5
ATOM      5  C   UNL     1       6.486   4.373  16.917  0.00  0.00    +0.000 C 
BRANCH   5   6
ATOM      6  S   UNL     1       4.749   4.308  16.374  0.00  0.00    +0.000 S 
BRANCH   6   7
ATOM      7  C   UNL     1       3.966   3.512  17.735  0.00  0.00    +0.000 A 
ATOM      8  C   UNL     1       3.492   2.164  17.657  0.00  0.00    +0.000 A 
ATOM      9  C   UNL     1       3.004   1.708  18.866  0.00  0.00    +0.000 A 
ATOM     10  S   UNL     1       3.111   2.904  20.091  0.00  0.00    +0.000 S 
ATOM     11  C   UNL     1       3.823   4.007  19.010  0.00  0.00    +0.000 A 
BRANCH  11  12
ATOM     12  N   UNL     1       4.173   5.296  19.496  0.00  0.00    +0.000 N 
ATOM     13  O   UNL     1       3.249   6.117  19.590  0.00  0.00    +0.000 OA
ATOM     14  O   UNL     1       5.357   5.489  19.797  0.00  0.00    +0.000 OA
ENDBRANCH  11  12
ENDBRANCH   6   7
ENDBRANCH   5   6
ENDBRANCH   2   5
BRANCH   3  15
ATOM     15  C   UNL     1       7.374   8.051  17.500  0.00  0.00    +0.000 C 
BRANCH  15  16
ATOM     16  C   UNL     1       8.543   8.325  18.451  0.00  0.00    +0.000 C 
BRANCH  16  17
ATOM     17  C   UNL     1       8.821   9.799  18.630  0.00  0.00    +0.000 A 
ATOM     18  C   UNL     1       8.482  10.715  17.624  0.00  0.00    +0.000 A 
ATOM     19  C   UNL     1       8.739  12.078  17.787  0.00  0.00    +0.000 A 
ATOM     20  C   UNL     1       9.343  12.540  18.954  0.00  0.00    +0.000 A 
ATOM     21  C   UNL     1       9.690  11.640  19.959  0.00  0.00    +0.000 A 
ATOM     22  C   UNL     1       9.432  10.276  19.798  0.00  0.00    +0.000 A 
ENDBRANCH  16  17
ENDBRANCH  15  16
ENDBRANCH   3  15
TORSDOF 7
ENDMDL
MODEL 7
REMARK VINA RESULT:      -6.7      1.243      1.806
REMARK  Name = 
REMARK  7 active torsions:
REMARK  status: ('A' for Active; 'I' for Inactive)
REMARK    1  A    between atoms: C_2  and  C_3
REMARK    2  A    between atoms: C_3  and  S_4
REMARK    3  A    between atoms: S_4  and  C_5
REMARK    4  A    between atoms: C_9  and  N_10
REMARK    5  A    between atoms: N_13  and  C_14
REMARK    6  A    between atoms: C_14  and  C_15
REMARK    7  A    between atoms: C_15  and  C_16
REMARK                            x       y       z     vdW  Elec       q    Type
REMARK                         _______ _______ _______ _____ _____    ______ ____
ROOT
ATOM      1  O   UNL     1       6.845   6.641  16.219  0.00  0.00    +0.000 OA
ATOM      2  C   UNL     1       6.858   6.577  17.446  0.00  0.00    +0.000 C 
ATOM      3  N   UNL     1       7.583   7.472  18.215  0.00  0.00    +0.000 N 
ATOM      4  H   UNL     1       7.524   7.437  19.225  0.00  0.00    +0.000 HD
ENDROOT
BRANCH   2   5
ATOM      5  C   UNL     1       6.045   5.559  18.250  0.00  0.00    +0.000 C 
BRANCH   5   6
ATOM      6  S   UNL     1       4.364   5.401  17.568  0.00  0.00    +0.000 S 
BRANCH   6   7
ATOM      7  C   UNL     1       3.413   5.052  19.008  0.00  0.00    +0.000 A 
ATOM      8  C   UNL     1       2.533   6.019  19.589  0.00  0.00    +0.000 A 
ATOM      9  C   UNL     1       1.812   5.503  20.649  0.00  0.00    +0.000 A 
ATOM     10  S   UNL     1       2.200   3.859  20.945  0.00  0.00    +0.000 S 
ATOM     11  C   UNL     1       3.304   3.842  19.652  0.00  0.00    +0.000 A 
BRANCH  11  12
ATOM     12  N   UNL     1       4.003   2.635  19.378  0.00  0.00    +0.000 N 
ATOM     13  O   UNL     1       3.584   1.962  18.425  0.00  0.00    +0.000 OA
ATOM     14  O   UNL     1       4.970   2.362  20.098  0.00  0.00    +0.000 OA
ENDBRANCH  11  12
ENDBRANCH   6   7
ENDBRANCH   5   6
ENDBRANCH   2   5
BRANCH   3  15
ATOM     15  C   UNL     1       8.413   8.494  17.585  0.00  0.00    +0.000 C 
BRANCH  15  16
ATOM     16  C   UNL     1       8.061   9.909  18.052  0.00  0.00    +0.000 C 
BRANCH  16  17
ATOM     17  C   UNL     1       9.242  10.645  18.639  0.00  0.00    +0.000 A 
ATOM     18  C   UNL     1       9.369  10.795  20.028  0.00  0.00    +0.000 A 
ATOM     19  C   UNL     1      10.459  11.475  20.573  0.00  0.00    +0.000 A 
ATOM     20  C   UNL     1      11.433  12.018  19.738  0.00  0.00    +0.000 A 
ATOM     21  C   UNL     1      11.317  11.881  18.356  0.00  0.00    +0.000 A 
ATOM     22  C   UNL     1      10.226  11.199  17.809  0.00  0.00    +0.000 A 
ENDBRANCH  16  17
ENDBRANCH  15  16
ENDBRANCH   3  15
TORSDOF 7
ENDMDL
MODEL 8
REMARK VINA RESULT:      -6.6      1.534      1.840
REMARK  Name = 
REMARK  7 active torsions:
REMARK  status: ('A' for Active; 'I' for Inactive)
REMARK    1  A    between atoms: C_2  and  C_3
REMARK    2  A    between atoms: C_3  and  S_4
REMARK    3  A    between atoms: S_4  and  C_5
REMARK    4  A    between atoms: C_9  and  N_10
REMARK    5  A    between atoms: N_13  and  C_14
REMARK    6  A    between atoms: C_14  and  C_15
REMARK    7  A    between atoms: C_15  and  C_16
REMARK                            x       y       z     vdW  Elec       q    Type
REMARK                         _______ _______ _______ _____ _____    ______ ____
ROOT
ATOM      1  O   UNL     1       8.111   5.051  19.238  0.00  0.00    +0.000 OA
ATOM      2  C   UNL     1       7.135   5.465  18.615  0.00  0.00    +0.000 C 
ATOM      3  N   UNL     1       7.091   6.752  18.102  0.00  0.00    +0.000 N 
ATOM      4  H   UNL     1       6.303   7.045  17.538  0.00  0.00    +0.000 HD
ENDROOT
BRANCH   2   5
ATOM      5  C   UNL     1       5.910   4.607  18.291  0.00  0.00    +0.000 C 
BRANCH   5   6
ATOM      6  S   UNL     1       4.499   5.657  17.820  0.00  0.00    +0.000 S 
BRANCH   6   7
ATOM      7  C   UNL     1       3.237   5.090  18.908  0.00  0.00    +0.000 A 
ATOM      8  C   UNL     1       2.725   5.904  19.968  0.00  0.00    +0.000 A 
ATOM      9  C   UNL     1       1.674   5.301  20.632  0.00  0.00    +0.000 A 
ATOM     10  S   UNL     1       1.310   3.756  19.984  0.00  0.00    +0.000 S 
ATOM     11  C   UNL     1       2.536   3.911  18.816  0.00  0.00    +0.000 A 
BRANCH  11  12
ATOM     12  N   UNL     1       2.732   2.841  17.899  0.00  0.00    +0.000 N 
ATOM     13  O   UNL     1       3.366   1.864  18.323  0.00  0.00    +0.000 OA
ATOM     14  O   UNL     1       2.247   2.966  16.768  0.00  0.00    +0.000 OA
ENDBRANCH  11  12
ENDBRANCH   6   7
ENDBRANCH   5   6
ENDBRANCH   2   5
BRANCH   3  15
ATOM     15  C   UNL     1       8.185   7.687  18.339  0.00  0.00    +0.000 C 
BRANCH  15  16
ATOM     16  C   UNL     1       7.971   9.033  17.642  0.00  0.00    +0.000 C 
BRANCH  16  17
ATOM     17  C   UNL     1       8.671  10.174  18.341  0.00  0.00    +0.000 A 
ATOM     18  C   UNL     1       8.736  11.442  17.746  0.00  0.00    +0.000 A 
ATOM     19  C   UNL     1       9.384  12.499  18.390  0.00  0.00    +0.000 A 
ATOM     20  C   UNL     1       9.979  12.298  19.633  0.00  0.00    +0.000 A 
ATOM     21  C   UNL     1       9.926  11.042  20.234  0.00  0.00    +0.000 A 
ATOM     22  C   UNL     1       9.278   9.984  19.591  0.00  0.00    +0.000 A 
ENDBRANCH  16  17
ENDBRANCH  15  16
ENDBRANCH   3  15
TORSDOF 7
ENDMDL
MODEL 9
REMARK VINA RESULT:      -6.6      1.291      1.807
REMARK  Name = 
REMARK  7 active torsions:
REMARK  status: ('A' for Active; 'I' for Inactive)
REMARK    1  A    between atoms: C_2  and  C_3
REMARK    2  A    between atoms: C_3  and  S_4
REMARK    3  A    between atoms: S_4  and  C_5
REMARK    4  A    between atoms: C_9  and  N_10
REMARK    5  A    between atoms: N_13  and  C_14
REMARK    6  A    between atoms: C_14  and  C_15
REMARK    7  A    between atoms: C_15  and  C_16
REMARK                            x       y       z     vdW  Elec       q    Type
REMARK                         _______ _______ _______ _____ _____    ______ ____
ROOT
ATOM      1  O   UNL     1       7.404   6.088  16.114  0.00  0.00    +0.000 OA
ATOM      2  C   UNL     1       6.474   6.565  16.762  0.00  0.00    +0.000 C 
ATOM      3  N   UNL     1       6.673   7.579  17.685  0.00  0.00    +0.000 N 
ATOM      4  H   UNL     1       5.882   7.997  18.156  0.00  0.00    +0.000 HD
ENDROOT
BRANCH   2   5
ATOM      5  C   UNL     1       5.014   6.142  16.584  0.00  0.00    +0.000 C 
BRANCH   5   6
ATOM      6  S   UNL     1       4.882   4.330  16.473  0.00  0.00    +0.000 S 
BRANCH   6   7
ATOM      7  C   UNL     1       3.608   3.980  17.638  0.00  0.00    +0.000 A 
ATOM      8  C   UNL     1       2.221   4.095  17.305  0.00  0.00    +0.000 A 
ATOM      9  C   UNL     1       1.398   3.677  18.333  0.00  0.00    +0.000 A 
ATOM     10  S   UNL     1       2.295   3.154  19.697  0.00  0.00    +0.000 S 
ATOM     11  C   UNL     1       3.765   3.467  18.903  0.00  0.00    +0.000 A 
BRANCH  11  12
ATOM     12  N   UNL     1       4.977   3.200  19.599  0.00  0.00    +0.000 N 
ATOM     13  O   UNL     1       5.807   4.120  19.628  0.00  0.00    +0.000 OA
ATOM     14  O   UNL     1       5.097   2.088  20.126  0.00  0.00    +0.000 OA
ENDBRANCH  11  12
ENDBRANCH   6   7
ENDBRANCH   5   6
ENDBRANCH   2   5
BRANCH   3  15
ATOM     15  C   UNL     1       8.015   8.078  17.966  0.00  0.00    +0.000 C 
BRANCH  15  16
ATOM     16  C   UNL     1       8.234   9.503  17.450  0.00  0.00    +0.000 C 
BRANCH  16  17
ATOM     17  C   UNL     1       9.115  10.327  18.358  0.00  0.00    +0.000 A 
ATOM     18  C   UNL     1       9.041  10.178  19.750  0.00  0.00    +0.000 A 
ATOM     19  C   UNL     1       9.854  10.939  20.592  0.00  0.00    +0.000 A 
ATOM     20  C   UNL     1      10.746  11.864  20.053  0.00  0.00    +0.000 A 
ATOM     21  C   UNL     1      10.826  12.026  18.671  0.00  0.00    +0.000 A 
ATOM     22  C   UNL     1      10.014  11.263  17.828  0.00  0.00    +0.000 A 
ENDBRANCH  16  17
ENDBRANCH  15  16
ENDBRANCH   3  15
TORSDOF 7
ENDMDL
