MODEL 1
REMARK VINA RESULT:      -7.7      0.000      0.000
REMARK  Name = 
REMARK  10 active torsions:
REMARK  status: ('A' for Active; 'I' for Inactive)
REMARK    1  A    between atoms: C_1  and  C_2
REMARK    2  A    between atoms: C_2  and  C_3
REMARK    3  A    between atoms: C_3  and  N_4
REMARK    4  A    between atoms: N_4  and  C_5
REMARK    5  A    between atoms: N_4  and  C_8
REMARK    6  A    between atoms: C_5  and  C_6
REMARK    7  A    between atoms: C_6  and  C_7
REMARK    8  A    between atoms: C_10  and  C_11
REMARK    9  A    between atoms: C_17  and  C_18
REMARK   10  A    between atoms: C_25  and  C_26
REMARK                            x       y       z     vdW  Elec       q    Type
REMARK                         _______ _______ _______ _____ _____    ______ ____
ROOT
ATOM      1  C   UNL     1       3.754   5.629  18.065  0.00  0.00    +0.000 A 
ATOM      2  C   UNL     1       3.499   4.662  18.971  0.00  0.00    +0.000 A 
ATOM      3  C   UNL     1       2.522   4.916  20.071  0.00  0.00    +0.000 A 
ATOM      4  N   UNL     1       1.962   6.073  20.291  0.00  0.00    +0.000 NA
ATOM      5  C   UNL     1       2.277   7.093  19.432  0.00  0.00    +0.000 A 
ATOM      6  C   UNL     1       1.865   8.420  19.411  0.00  0.00    +0.000 A 
ATOM      7  C   UNL     1       2.505   8.970  18.270  0.00  0.00    +0.000 A 
ATOM      8  C   UNL     1       2.437  10.343  17.699  0.00  0.00    +0.000 C 
ATOM      9  N   UNL     1       3.246   8.070  17.623  0.00  0.00    +0.000 NA
ATOM     10  N   UNL     1       3.129   6.906  18.320  0.00  0.00    +0.000 N 
ENDROOT
BRANCH   6  11
ATOM     11  C   UNL     1       0.931   9.020  20.365  0.00  0.00    +0.000 A 
ATOM     12  C   UNL     1       1.057   8.780  21.741  0.00  0.00    +0.000 A 
ATOM     13  C   UNL     1       0.245   9.445  22.666  0.00  0.00    +0.000 A 
ATOM     14  C   UNL     1      -0.738  10.324  22.219  0.00  0.00    +0.000 A 
ATOM     15 CL   UNL     1      -1.723  11.157  23.356  0.00  0.00    +0.000 Cl
ATOM     16  C   UNL     1      -0.918  10.535  20.856  0.00  0.00    +0.000 A 
ATOM     17  C   UNL     1      -0.083   9.892  19.937  0.00  0.00    +0.000 A 
ENDBRANCH   6  11
BRANCH   3  18
ATOM     18  C   UNL     1       2.161   3.718  20.953  0.00  0.00    +0.000 C 
ATOM     19  F   UNL     1       2.829   2.581  20.601  0.00  0.00    +0.000 F 
ATOM     20  F   UNL     1       2.450   3.934  22.264  0.00  0.00    +0.000 F 
ATOM     21  F   UNL     1       0.837   3.407  20.888  0.00  0.00    +0.000 F 
ENDBRANCH   3  18
BRANCH   1  22
ATOM     22  N   UNL     1       4.599   5.391  16.927  0.00  0.00    +0.000 N 
BRANCH  22  23
ATOM     23  C   UNL     1       4.541   4.149  16.113  0.00  0.00    +0.000 C 
BRANCH  23  25
ATOM     24  C   UNL     1       5.935   3.889  13.961  0.00  0.00    +0.000 C 
ATOM     25  C   UNL     1       5.875   3.735  15.471  0.00  0.00    +0.000 C 
ENDBRANCH  23  25
ENDBRANCH  22  23
BRANCH  22  26
ATOM     26  C   UNL     1       5.708   6.299  16.537  0.00  0.00    +0.000 C 
BRANCH  26  27
ATOM     27  C   UNL     1       6.600   6.694  17.722  0.00  0.00    +0.000 C 
ATOM     28  C   UNL     1       7.536   5.588  18.187  0.00  0.00    +0.000 C 
ENDBRANCH  26  27
ENDBRANCH  22  26
ENDBRANCH   1  22
TORSDOF 7
ENDMDL
MODEL 2
REMARK VINA RESULT:      -7.7      0.114      1.765
REMARK  Name = 
REMARK  10 active torsions:
REMARK  status: ('A' for Active; 'I' for Inactive)
REMARK    1  A    between atoms: C_1  and  C_2
REMARK    2  A    between atoms: C_2  and  C_3
REMARK    3  A    between atoms: C_3  and  N_4
REMARK    4  A    between atoms: N_4  and  C_5
REMARK    5  A    between atoms: N_4  and  C_8
REMARK    6  A    between atoms: C_5  and  C_6
REMARK    7  A    between atoms: C_6  and  C_7
REMARK    8  A    between atoms: C_10  and  C_11
REMARK    9  A    between atoms: C_17  and  C_18
REMARK   10  A    between atoms: C_25  and  C_26
REMARK                            x       y       z     vdW  Elec       q    Type
REMARK                         _______ _______ _______ _____ _____    ______ ____
ROOT
ATOM      1  C   UNL     1       3.763   5.637  18.114  0.00  0.00    +0.000 A 
ATOM      2  C   UNL     1       3.508   4.673  19.023  0.00  0.00    +0.000 A 
ATOM      3  C   UNL     1       2.525   4.927  20.118  0.00  0.00    +0.000 A 
ATOM      4  N   UNL     1       1.959   6.084  20.330  0.00  0.00    +0.000 NA
ATOM      5  C   UNL     1       2.273   7.100  19.469  0.00  0.00    +0.000 A 
ATOM      6  C   UNL     1       1.857   8.426  19.440  0.00  0.00    +0.000 A 
ATOM      7  C   UNL     1       2.500   8.974  18.300  0.00  0.00    +0.000 A 
ATOM      8  C   UNL     1       2.429  10.344  17.722  0.00  0.00    +0.000 C 
ATOM      9  N   UNL     1       3.247   8.074  17.660  0.00  0.00    +0.000 NA
ATOM     10  N   UNL     1       3.132   6.913  18.361  0.00  0.00    +0.000 N 
ENDROOT
BRANCH   6  11
ATOM     11  C   UNL     1       0.916   9.026  20.387  0.00  0.00    +0.000 A 
ATOM     12  C   UNL     1       1.042   8.800  21.765  0.00  0.00    +0.000 A 
ATOM     13  C   UNL     1       0.223   9.465  22.684  0.00  0.00    +0.000 A 
ATOM     14  C   UNL     1      -0.767  10.332  22.228  0.00  0.00    +0.000 A 
ATOM     15 CL   UNL     1      -1.761  11.167  23.356  0.00  0.00    +0.000 Cl
ATOM     16  C   UNL     1      -0.947  10.529  20.863  0.00  0.00    +0.000 A 
ATOM     17  C   UNL     1      -0.104   9.886  19.950  0.00  0.00    +0.000 A 
ENDBRANCH   6  11
BRANCH   3  18
ATOM     18  C   UNL     1       2.164   3.732  21.003  0.00  0.00    +0.000 C 
ATOM     19  F   UNL     1       2.842   2.597  20.661  0.00  0.00    +0.000 F 
ATOM     20  F   UNL     1       2.442   3.956  22.315  0.00  0.00    +0.000 F 
ATOM     21  F   UNL     1       0.843   3.413  20.929  0.00  0.00    +0.000 F 
ENDBRANCH   3  18
BRANCH   1  22
ATOM     22  N   UNL     1       4.613   5.398  16.981  0.00  0.00    +0.000 N 
BRANCH  22  23
ATOM     23  C   UNL     1       5.537   6.420  16.423  0.00  0.00    +0.000 C 
BRANCH  23  25
ATOM     24  C   UNL     1       7.439   5.821  18.055  0.00  0.00    +0.000 C 
ATOM     25  C   UNL     1       6.617   6.915  17.398  0.00  0.00    +0.000 C 
ENDBRANCH  23  25
ENDBRANCH  22  23
BRANCH  22  26
ATOM     26  C   UNL     1       4.551   4.156  16.167  0.00  0.00    +0.000 C 
BRANCH  26  27
ATOM     27  C   UNL     1       5.875   3.839  15.459  0.00  0.00    +0.000 C 
ATOM     28  C   UNL     1       5.795   3.901  13.941  0.00  0.00    +0.000 C 
ENDBRANCH  26  27
ENDBRANCH  22  26
ENDBRANCH   1  22
TORSDOF 7
ENDMDL
MODEL 3
REMARK VINA RESULT:      -7.4      0.785      1.992
REMARK  Name = 
REMARK  10 active torsions:
REMARK  status: ('A' for Active; 'I' for Inactive)
REMARK    1  A    between atoms: C_1  and  C_2
REMARK    2  A    between atoms: C_2  and  C_3
REMARK    3  A    between atoms: C_3  and  N_4
REMARK    4  A    between atoms: N_4  and  C_5
REMARK    5  A    between atoms: N_4  and  C_8
REMARK    6  A    between atoms: C_5  and  C_6
REMARK    7  A    between atoms: C_6  and  C_7
REMARK    8  A    between atoms: C_10  and  C_11
REMARK    9  A    between atoms: C_17  and  C_18
REMARK   10  A    between atoms: C_25  and  C_26
REMARK                            x       y       z     vdW  Elec       q    Type
REMARK                         _______ _______ _______ _____ _____    ______ ____
ROOT
ATOM      1  C   UNL     1       4.113   4.953  18.329  0.00  0.00    +0.000 A 
ATOM      2  C   UNL     1       3.814   4.067  19.302  0.00  0.00    +0.000 A 
ATOM      3  C   UNL     1       2.802   4.419  20.341  0.00  0.00    +0.000 A 
ATOM      4  N   UNL     1       2.249   5.596  20.445  0.00  0.00    +0.000 NA
ATOM      5  C   UNL     1       2.605   6.538  19.517  0.00  0.00    +0.000 A 
ATOM      6  C   UNL     1       2.212   7.863  19.372  0.00  0.00    +0.000 A 
ATOM      7  C   UNL     1       2.898   8.311  18.214  0.00  0.00    +0.000 A 
ATOM      8  C   UNL     1       2.867   9.632  17.530  0.00  0.00    +0.000 C 
ATOM      9  N   UNL     1       3.650   7.354  17.670  0.00  0.00    +0.000 NA
ATOM     10  N   UNL     1       3.495   6.252  18.455  0.00  0.00    +0.000 N 
ENDROOT
BRANCH   6  11
ATOM     11  C   UNL     1       1.251   8.548  20.239  0.00  0.00    +0.000 A 
ATOM     12  C   UNL     1       1.272   8.353  21.628  0.00  0.00    +0.000 A 
ATOM     13  C   UNL     1       0.438   9.095  22.472  0.00  0.00    +0.000 A 
ATOM     14  C   UNL     1      -0.460  10.009  21.930  0.00  0.00    +0.000 A 
ATOM     15 CL   UNL     1      -1.470  10.937  22.968  0.00  0.00    +0.000 Cl
ATOM     16  C   UNL     1      -0.537  10.179  20.552  0.00  0.00    +0.000 A 
ATOM     17  C   UNL     1       0.320   9.458  19.713  0.00  0.00    +0.000 A 
ENDBRANCH   6  11
BRANCH   3  18
ATOM     18  C   UNL     1       2.395   3.302  21.305  0.00  0.00    +0.000 C 
ATOM     19  F   UNL     1       2.228   3.743  22.586  0.00  0.00    +0.000 F 
ATOM     20  F   UNL     1       1.220   2.716  20.952  0.00  0.00    +0.000 F 
ATOM     21  F   UNL     1       3.325   2.310  21.371  0.00  0.00    +0.000 F 
ENDBRANCH   3  18
BRANCH   1  22
ATOM     22  N   UNL     1       4.994   4.614  17.246  0.00  0.00    +0.000 N 
BRANCH  22  23
ATOM     23  C   UNL     1       6.471   4.532  17.390  0.00  0.00    +0.000 C 
BRANCH  23  25
ATOM     24  C   UNL     1       7.263   6.981  17.510  0.00  0.00    +0.000 C 
ATOM     25  C   UNL     1       7.101   5.653  18.230  0.00  0.00    +0.000 C 
ENDBRANCH  23  25
ENDBRANCH  22  23
BRANCH  22  26
ATOM     26  C   UNL     1       4.530   4.453  15.843  0.00  0.00    +0.000 C 
BRANCH  26  27
ATOM     27  C   UNL     1       5.544   4.976  14.816  0.00  0.00    +0.000 C 
ATOM     28  C   UNL     1       5.981   3.935  13.796  0.00  0.00    +0.000 C 
ENDBRANCH  26  27
ENDBRANCH  22  26
ENDBRANCH   1  22
TORSDOF 7
ENDMDL
MODEL 4
REMARK VINA RESULT:      -7.1      0.746      1.083
REMARK  Name = 
REMARK  10 active torsions:
REMARK  status: ('A' for Active; 'I' for Inactive)
REMARK    1  A    between atoms: C_1  and  C_2
REMARK    2  A    between atoms: C_2  and  C_3
REMARK    3  A    between atoms: C_3  and  N_4
REMARK    4  A    between atoms: N_4  and  C_5
REMARK    5  A    between atoms: N_4  and  C_8
REMARK    6  A    between atoms: C_5  and  C_6
REMARK    7  A    between atoms: C_6  and  C_7
REMARK    8  A    between atoms: C_10  and  C_11
REMARK    9  A    between atoms: C_17  and  C_18
REMARK   10  A    between atoms: C_25  and  C_26
REMARK                            x       y       z     vdW  Elec       q    Type
REMARK                         _______ _______ _______ _____ _____    ______ ____
ROOT
ATOM      1  C   UNL     1       4.110   5.076  18.263  0.00  0.00    +0.000 A 
ATOM      2  C   UNL     1       3.828   4.168  19.220  0.00  0.00    +0.000 A 
ATOM      3  C   UNL     1       2.816   4.487  20.272  0.00  0.00    +0.000 A 
ATOM      4  N   UNL     1       2.249   5.654  20.400  0.00  0.00    +0.000 NA
ATOM      5  C   UNL     1       2.588   6.618  19.488  0.00  0.00    +0.000 A 
ATOM      6  C   UNL     1       2.176   7.940  19.370  0.00  0.00    +0.000 A 
ATOM      7  C   UNL     1       2.850   8.420  18.218  0.00  0.00    +0.000 A 
ATOM      8  C   UNL     1       2.798   9.753  17.559  0.00  0.00    +0.000 C 
ATOM      9  N   UNL     1       3.612   7.483  17.652  0.00  0.00    +0.000 NA
ATOM     10  N   UNL     1       3.475   6.364  18.417  0.00  0.00    +0.000 N 
ENDROOT
BRANCH   6  11
ATOM     11  C   UNL     1       1.211   8.596  20.255  0.00  0.00    +0.000 A 
ATOM     12  C   UNL     1       1.256   8.393  21.642  0.00  0.00    +0.000 A 
ATOM     13  C   UNL     1       0.416   9.109  22.503  0.00  0.00    +0.000 A 
ATOM     14  C   UNL     1      -0.512  10.004  21.979  0.00  0.00    +0.000 A 
ATOM     15 CL   UNL     1      -1.529  10.900  23.037  0.00  0.00    +0.000 Cl
ATOM     16  C   UNL     1      -0.612  10.181  20.603  0.00  0.00    +0.000 A 
ATOM     17  C   UNL     1       0.251   9.486  19.748  0.00  0.00    +0.000 A 
ENDBRANCH   6  11
BRANCH   3  18
ATOM     18  C   UNL     1       2.429   3.346  21.216  0.00  0.00    +0.000 C 
ATOM     19  F   UNL     1       2.259   3.762  22.505  0.00  0.00    +0.000 F 
ATOM     20  F   UNL     1       1.262   2.749  20.855  0.00  0.00    +0.000 F 
ATOM     21  F   UNL     1       3.375   2.368  21.261  0.00  0.00    +0.000 F 
ENDBRANCH   3  18
BRANCH   1  22
ATOM     22  N   UNL     1       4.990   4.769  17.169  0.00  0.00    +0.000 N 
BRANCH  22  23
ATOM     23  C   UNL     1       4.510   4.483  15.792  0.00  0.00    +0.000 C 
BRANCH  23  25
ATOM     24  C   UNL     1       5.285   3.808  13.429  0.00  0.00    +0.000 C 
ATOM     25  C   UNL     1       5.586   4.582  14.700  0.00  0.00    +0.000 C 
ENDBRANCH  23  25
ENDBRANCH  22  23
BRANCH  22  26
ATOM     26  C   UNL     1       6.452   4.569  17.336  0.00  0.00    +0.000 C 
BRANCH  26  27
ATOM     27  C   UNL     1       7.190   5.855  17.730  0.00  0.00    +0.000 C 
ATOM     28  C   UNL     1       7.763   5.832  19.140  0.00  0.00    +0.000 C 
ENDBRANCH  26  27
ENDBRANCH  22  26
ENDBRANCH   1  22
TORSDOF 7
ENDMDL
MODEL 5
REMARK VINA RESULT:      -7.1      0.228      1.174
REMARK  Name = 
REMARK  10 active torsions:
REMARK  status: ('A' for Active; 'I' for Inactive)
REMARK    1  A    between atoms: C_1  and  C_2
REMARK    2  A    between atoms: C_2  and  C_3
REMARK    3  A    between atoms: C_3  and  N_4
REMARK    4  A    between atoms: N_4  and  C_5
REMARK    5  A    between atoms: N_4  and  C_8
REMARK    6  A    between atoms: C_5  and  C_6
REMARK    7  A    between atoms: C_6  and  C_7
REMARK    8  A    between atoms: C_10  and  C_11
REMARK    9  A    between atoms: C_17  and  C_18
REMARK   10  A    between atoms: C_25  and  C_26
REMARK                            x       y       z     vdW  Elec       q    Type
REMARK                         _______ _______ _______ _____ _____    ______ ____
ROOT
ATOM      1  C   UNL     1       3.675   5.759  18.025  0.00  0.00    +0.000 A 
ATOM      2  C   UNL     1       3.445   4.806  18.952  0.00  0.00    +0.000 A 
ATOM      3  C   UNL     1       2.524   5.086  20.093  0.00  0.00    +0.000 A 
ATOM      4  N   UNL     1       1.994   6.256  20.326  0.00  0.00    +0.000 NA
ATOM      5  C   UNL     1       2.286   7.261  19.443  0.00  0.00    +0.000 A 
ATOM      6  C   UNL     1       1.897   8.595  19.428  0.00  0.00    +0.000 A 
ATOM      7  C   UNL     1       2.493   9.124  18.253  0.00  0.00    +0.000 A 
ATOM      8  C   UNL     1       2.422  10.491  17.672  0.00  0.00    +0.000 C 
ATOM      9  N   UNL     1       3.188   8.205  17.582  0.00  0.00    +0.000 NA
ATOM     10  N   UNL     1       3.084   7.049  18.295  0.00  0.00    +0.000 N 
ENDROOT
BRANCH   6  11
ATOM     11  C   UNL     1       1.017   9.220  20.417  0.00  0.00    +0.000 A 
ATOM     12  C   UNL     1       0.006  10.107  20.019  0.00  0.00    +0.000 A 
ATOM     13  C   UNL     1      -0.914  10.613  20.944  0.00  0.00    +0.000 A 
ATOM     14  C   UNL     1      -0.803  10.271  22.289  0.00  0.00    +0.000 A 
ATOM     15 CL   UNL     1      -1.946  10.876  23.423  0.00  0.00    +0.000 Cl
ATOM     16  C   UNL     1       0.225   9.438  22.715  0.00  0.00    +0.000 A 
ATOM     17  C   UNL     1       1.124   8.909  21.782  0.00  0.00    +0.000 A 
ENDBRANCH   6  11
BRANCH   3  18
ATOM     18  C   UNL     1       2.183   3.903  21.002  0.00  0.00    +0.000 C 
ATOM     19  F   UNL     1       2.524   4.123  22.305  0.00  0.00    +0.000 F 
ATOM     20  F   UNL     1       0.854   3.617  21.004  0.00  0.00    +0.000 F 
ATOM     21  F   UNL     1       2.831   2.764  20.634  0.00  0.00    +0.000 F 
ENDBRANCH   3  18
BRANCH   1  22
ATOM     22  N   UNL     1       4.462   5.497  16.852  0.00  0.00    +0.000 N 
BRANCH  22  23
ATOM     23  C   UNL     1       4.466   4.188  16.147  0.00  0.00    +0.000 C 
BRANCH  23  25
ATOM     24  C   UNL     1       5.633   3.818  13.880  0.00  0.00    +0.000 C 
ATOM     25  C   UNL     1       5.764   3.864  15.392  0.00  0.00    +0.000 C 
ENDBRANCH  23  25
ENDBRANCH  22  23
BRANCH  22  26
ATOM     26  C   UNL     1       5.457   6.458  16.311  0.00  0.00    +0.000 C 
BRANCH  26  27
ATOM     27  C   UNL     1       6.453   6.946  17.372  0.00  0.00    +0.000 C 
ATOM     28  C   UNL     1       7.400   5.865  17.875  0.00  0.00    +0.000 C 
ENDBRANCH  26  27
ENDBRANCH  22  26
ENDBRANCH   1  22
TORSDOF 7
ENDMDL
MODEL 6
REMARK VINA RESULT:      -6.8      0.349      2.150
REMARK  Name = 
REMARK  10 active torsions:
REMARK  status: ('A' for Active; 'I' for Inactive)
REMARK    1  A    between atoms: C_1  and  C_2
REMARK    2  A    between atoms: C_2  and  C_3
REMARK    3  A    between atoms: C_3  and  N_4
REMARK    4  A    between atoms: N_4  and  C_5
REMARK    5  A    between atoms: N_4  and  C_8
REMARK    6  A    between atoms: C_5  and  C_6
REMARK    7  A    between atoms: C_6  and  C_7
REMARK    8  A    between atoms: C_10  and  C_11
REMARK    9  A    between atoms: C_17  and  C_18
REMARK   10  A    between atoms: C_25  and  C_26
REMARK                            x       y       z     vdW  Elec       q    Type
REMARK                         _______ _______ _______ _____ _____    ______ ____
ROOT
ATOM      1  C   UNL     1       3.733   5.741  18.110  0.00  0.00    +0.000 A 
ATOM      2  C   UNL     1       3.478   4.788  19.031  0.00  0.00    +0.000 A 
ATOM      3  C   UNL     1       2.529   5.072  20.149  0.00  0.00    +0.000 A 
ATOM      4  N   UNL     1       1.997   6.243  20.368  0.00  0.00    +0.000 NA
ATOM      5  C   UNL     1       2.314   7.247  19.492  0.00  0.00    +0.000 A 
ATOM      6  C   UNL     1       1.928   8.582  19.466  0.00  0.00    +0.000 A 
ATOM      7  C   UNL     1       2.555   9.109  18.307  0.00  0.00    +0.000 A 
ATOM      8  C   UNL     1       2.503  10.476  17.722  0.00  0.00    +0.000 C 
ATOM      9  N   UNL     1       3.264   8.187  17.654  0.00  0.00    +0.000 NA
ATOM     10  N   UNL     1       3.139   7.033  18.364  0.00  0.00    +0.000 N 
ENDROOT
BRANCH   6  11
ATOM     11  C   UNL     1       1.026   9.210  20.432  0.00  0.00    +0.000 A 
ATOM     12  C   UNL     1       0.040  10.114  20.011  0.00  0.00    +0.000 A 
ATOM     13  C   UNL     1      -0.903  10.624  20.911  0.00  0.00    +0.000 A 
ATOM     14  C   UNL     1      -0.839  10.270  22.255  0.00  0.00    +0.000 A 
ATOM     15 CL   UNL     1      -2.009  10.879  23.358  0.00  0.00    +0.000 Cl
ATOM     16  C   UNL     1       0.164   9.419  22.706  0.00  0.00    +0.000 A 
ATOM     17  C   UNL     1       1.085   8.887  21.797  0.00  0.00    +0.000 A 
ENDBRANCH   6  11
BRANCH   3  18
ATOM     18  C   UNL     1       2.163   3.891  21.050  0.00  0.00    +0.000 C 
ATOM     19  F   UNL     1       2.468   4.112  22.362  0.00  0.00    +0.000 F 
ATOM     20  F   UNL     1       0.833   3.606  21.016  0.00  0.00    +0.000 F 
ATOM     21  F   UNL     1       2.819   2.751  20.702  0.00  0.00    +0.000 F 
ENDBRANCH   3  18
BRANCH   1  22
ATOM     22  N   UNL     1       4.549   5.475  16.957  0.00  0.00    +0.000 N 
BRANCH  22  23
ATOM     23  C   UNL     1       5.587   6.414  16.458  0.00  0.00    +0.000 C 
BRANCH  23  25
ATOM     24  C   UNL     1       7.486   7.836  17.464  0.00  0.00    +0.000 C 
ATOM     25  C   UNL     1       6.877   6.456  17.291  0.00  0.00    +0.000 C 
ENDBRANCH  23  25
ENDBRANCH  22  23
BRANCH  22  26
ATOM     26  C   UNL     1       4.340   4.303  16.068  0.00  0.00    +0.000 C 
BRANCH  26  27
ATOM     27  C   UNL     1       5.655   3.689  15.571  0.00  0.00    +0.000 C 
ATOM     28  C   UNL     1       5.904   3.883  14.082  0.00  0.00    +0.000 C 
ENDBRANCH  26  27
ENDBRANCH  22  26
ENDBRANCH   1  22
TORSDOF 7
ENDMDL
MODEL 7
REMARK VINA RESULT:      -6.6      0.748      2.016
REMARK  Name = 
REMARK  10 active torsions:
REMARK  status: ('A' for Active; 'I' for Inactive)
REMARK    1  A    between atoms: C_1  and  C_2
REMARK    2  A    between atoms: C_2  and  C_3
REMARK    3  A    between atoms: C_3  and  N_4
REMARK    4  A    between atoms: N_4  and  C_5
REMARK    5  A    between atoms: N_4  and  C_8
REMARK    6  A    between atoms: C_5  and  C_6
REMARK    7  A    between atoms: C_6  and  C_7
REMARK    8  A    between atoms: C_10  and  C_11
REMARK    9  A    between atoms: C_17  and  C_18
REMARK   10  A    between atoms: C_25  and  C_26
REMARK                            x       y       z     vdW  Elec       q    Type
REMARK                         _______ _______ _______ _____ _____    ______ ____
ROOT
ATOM      1  C   UNL     1       3.947   4.949  18.405  0.00  0.00    +0.000 A 
ATOM      2  C   UNL     1       3.627   4.086  19.392  0.00  0.00    +0.000 A 
ATOM      3  C   UNL     1       2.658   4.495  20.451  0.00  0.00    +0.000 A 
ATOM      4  N   UNL     1       2.166   5.698  20.557  0.00  0.00    +0.000 NA
ATOM      5  C   UNL     1       2.547   6.615  19.615  0.00  0.00    +0.000 A 
ATOM      6  C   UNL     1       2.216   7.957  19.468  0.00  0.00    +0.000 A 
ATOM      7  C   UNL     1       2.897   8.363  18.291  0.00  0.00    +0.000 A 
ATOM      8  C   UNL     1       2.915   9.679  17.597  0.00  0.00    +0.000 C 
ATOM      9  N   UNL     1       3.588   7.366  17.738  0.00  0.00    +0.000 NA
ATOM     10  N   UNL     1       3.397   6.279  18.535  0.00  0.00    +0.000 N 
ENDROOT
BRANCH   6  11
ATOM     11  C   UNL     1       1.310   8.694  20.351  0.00  0.00    +0.000 A 
ATOM     12  C   UNL     1       0.263   9.464  19.824  0.00  0.00    +0.000 A 
ATOM     13  C   UNL     1      -0.678  10.073  20.662  0.00  0.00    +0.000 A 
ATOM     14  C   UNL     1      -0.553   9.955  22.043  0.00  0.00    +0.000 A 
ATOM     15 CL   UNL     1      -1.720  10.685  23.074  0.00  0.00    +0.000 Cl
ATOM     16  C   UNL     1       0.510   9.243  22.590  0.00  0.00    +0.000 A 
ATOM     17  C   UNL     1       1.430   8.610  21.747  0.00  0.00    +0.000 A 
ENDBRANCH   6  11
BRANCH   3  18
ATOM     18  C   UNL     1       2.219   3.405  21.432  0.00  0.00    +0.000 C 
ATOM     19  F   UNL     1       2.960   2.265  21.322  0.00  0.00    +0.000 F 
ATOM     20  F   UNL     1       2.327   3.802  22.728  0.00  0.00    +0.000 F 
ATOM     21  F   UNL     1       0.925   3.028  21.242  0.00  0.00    +0.000 F 
ENDBRANCH   3  18
BRANCH   1  22
ATOM     22  N   UNL     1       4.785   4.561  17.305  0.00  0.00    +0.000 N 
BRANCH  22  23
ATOM     23  C   UNL     1       6.258   4.394  17.419  0.00  0.00    +0.000 C 
BRANCH  23  25
ATOM     24  C   UNL     1       7.269   6.763  17.492  0.00  0.00    +0.000 C 
ATOM     25  C   UNL     1       6.968   5.478  18.244  0.00  0.00    +0.000 C 
ENDBRANCH  23  25
ENDBRANCH  22  23
BRANCH  22  26
ATOM     26  C   UNL     1       4.285   4.426  15.913  0.00  0.00    +0.000 C 
BRANCH  26  27
ATOM     27  C   UNL     1       5.275   4.961  14.868  0.00  0.00    +0.000 C 
ATOM     28  C   UNL     1       5.810   3.896  13.922  0.00  0.00    +0.000 C 
ENDBRANCH  26  27
ENDBRANCH  22  26
ENDBRANCH   1  22
TORSDOF 7
ENDMDL
MODEL 8
REMARK VINA RESULT:      -6.6      0.771      1.940
REMARK  Name = 
REMARK  10 active torsions:
REMARK  status: ('A' for Active; 'I' for Inactive)
REMARK    1  A    between atoms: C_1  and  C_2
REMARK    2  A    between atoms: C_2  and  C_3
REMARK    3  A    between atoms: C_3  and  N_4
REMARK    4  A    between atoms: N_4  and  C_5
REMARK    5  A    between atoms: N_4  and  C_8
REMARK    6  A    between atoms: C_5  and  C_6
REMARK    7  A    between atoms: C_6  and  C_7
REMARK    8  A    between atoms: C_10  and  C_11
REMARK    9  A    between atoms: C_17  and  C_18
REMARK   10  A    between atoms: C_25  and  C_26
REMARK                            x       y       z     vdW  Elec       q    Type
REMARK                         _______ _______ _______ _____ _____    ______ ____
ROOT
ATOM      1  C   UNL     1       3.689   5.499  18.357  0.00  0.00    +0.000 A 
ATOM      2  C   UNL     1       3.458   4.590  19.327  0.00  0.00    +0.000 A 
ATOM      3  C   UNL     1       2.498   4.905  20.426  0.00  0.00    +0.000 A 
ATOM      4  N   UNL     1       1.932   6.070  20.582  0.00  0.00    +0.000 NA
ATOM      5  C   UNL     1       2.222   7.035  19.655  0.00  0.00    +0.000 A 
ATOM      6  C   UNL     1       1.800   8.355  19.557  0.00  0.00    +0.000 A 
ATOM      7  C   UNL     1       2.415   8.837  18.373  0.00  0.00    +0.000 A 
ATOM      8  C   UNL     1       2.325  10.170  17.717  0.00  0.00    +0.000 C 
ATOM      9  N   UNL     1       3.152   7.903  17.770  0.00  0.00    +0.000 NA
ATOM     10  N   UNL     1       3.057   6.785  18.541  0.00  0.00    +0.000 N 
ENDROOT
BRANCH   6  11
ATOM     11  C   UNL     1       0.877   9.008  20.488  0.00  0.00    +0.000 A 
ATOM     12  C   UNL     1       1.000   8.818  21.872  0.00  0.00    +0.000 A 
ATOM     13  C   UNL     1       0.200   9.531  22.771  0.00  0.00    +0.000 A 
ATOM     14  C   UNL     1      -0.767  10.411  22.292  0.00  0.00    +0.000 A 
ATOM     15 CL   UNL     1      -1.736  11.304  23.397  0.00  0.00    +0.000 Cl
ATOM     16  C   UNL     1      -0.945  10.573  20.922  0.00  0.00    +0.000 A 
ATOM     17  C   UNL     1      -0.121   9.881  20.027  0.00  0.00    +0.000 A 
ENDBRANCH   6  11
BRANCH   3  18
ATOM     18  C   UNL     1       2.162   3.763  21.388  0.00  0.00    +0.000 C 
ATOM     19  F   UNL     1       2.901   2.640  21.153  0.00  0.00    +0.000 F 
ATOM     20  F   UNL     1       2.387   4.097  22.687  0.00  0.00    +0.000 F 
ATOM     21  F   UNL     1       0.860   3.378  21.300  0.00  0.00    +0.000 F 
ENDBRANCH   3  18
BRANCH   1  22
ATOM     22  N   UNL     1       4.515   5.196  17.221  0.00  0.00    +0.000 N 
BRANCH  22  23
ATOM     23  C   UNL     1       5.349   6.210  16.524  0.00  0.00    +0.000 C 
BRANCH  23  25
ATOM     24  C   UNL     1       7.410   6.458  18.051  0.00  0.00    +0.000 C 
ATOM     25  C   UNL     1       6.865   6.030  16.699  0.00  0.00    +0.000 C 
ENDBRANCH  23  25
ENDBRANCH  22  23
BRANCH  22  26
ATOM     26  C   UNL     1       4.509   3.874  16.543  0.00  0.00    +0.000 C 
BRANCH  26  27
ATOM     27  C   UNL     1       3.169   3.137  16.683  0.00  0.00    +0.000 C 
ATOM     28  C   UNL     1       3.229   1.915  17.587  0.00  0.00    +0.000 C 
ENDBRANCH  26  27
ENDBRANCH  22  26
ENDBRANCH   1  22
TORSDOF 7
ENDMDL
MODEL 9
REMARK VINA RESULT:      -6.5      0.711      1.272
REMARK  Name = 
REMARK  10 active torsions:
REMARK  status: ('A' for Active; 'I' for Inactive)
REMARK    1  A    between atoms: C_1  and  C_2
REMARK    2  A    between atoms: C_2  and  C_3
REMARK    3  A    between atoms: C_3  and  N_4
REMARK    4  A    between atoms: N_4  and  C_5
REMARK    5  A    between atoms: N_4  and  C_8
REMARK    6  A    between atoms: C_5  and  C_6
REMARK    7  A    between atoms: C_6  and  C_7
REMARK    8  A    between atoms: C_10  and  C_11
REMARK    9  A    between atoms: C_17  and  C_18
REMARK   10  A    between atoms: C_25  and  C_26
REMARK                            x       y       z     vdW  Elec       q    Type
REMARK                         _______ _______ _______ _____ _____    ______ ____
ROOT
ATOM      1  C   UNL     1       3.632   5.780  18.173  0.00  0.00    +0.000 A 
ATOM      2  C   UNL     1       3.410   4.831  19.107  0.00  0.00    +0.000 A 
ATOM      3  C   UNL     1       2.451   5.096  20.220  0.00  0.00    +0.000 A 
ATOM      4  N   UNL     1       1.877   6.250  20.423  0.00  0.00    +0.000 NA
ATOM      5  C   UNL     1       2.159   7.253  19.535  0.00  0.00    +0.000 A 
ATOM      6  C   UNL     1       1.727   8.573  19.491  0.00  0.00    +0.000 A 
ATOM      7  C   UNL     1       2.336   9.106  18.325  0.00  0.00    +0.000 A 
ATOM      8  C   UNL     1       2.236  10.463  17.724  0.00  0.00    +0.000 C 
ATOM      9  N   UNL     1       3.078   8.202  17.685  0.00  0.00    +0.000 NA
ATOM     10  N   UNL     1       2.993   7.053  18.410  0.00  0.00    +0.000 N 
ENDROOT
BRANCH   6  11
ATOM     11  C   UNL     1       0.802   9.181  20.449  0.00  0.00    +0.000 A 
ATOM     12  C   UNL     1       0.934   8.942  21.824  0.00  0.00    +0.000 A 
ATOM     13  C   UNL     1       0.131   9.614  22.753  0.00  0.00    +0.000 A 
ATOM     14  C   UNL     1      -0.847  10.500  22.310  0.00  0.00    +0.000 A 
ATOM     15 CL   UNL     1      -1.820  11.342  23.451  0.00  0.00    +0.000 Cl
ATOM     16  C   UNL     1      -1.033  10.711  20.948  0.00  0.00    +0.000 A 
ATOM     17  C   UNL     1      -0.207  10.061  20.025  0.00  0.00    +0.000 A 
ENDBRANCH   6  11
BRANCH   3  18
ATOM     18  C   UNL     1       2.125   3.914  21.136  0.00  0.00    +0.000 C 
ATOM     19  F   UNL     1       0.804   3.573  21.110  0.00  0.00    +0.000 F 
ATOM     20  F   UNL     1       2.811   2.790  20.795  0.00  0.00    +0.000 F 
ATOM     21  F   UNL     1       2.417   4.174  22.440  0.00  0.00    +0.000 F 
ENDBRANCH   3  18
BRANCH   1  22
ATOM     22  N   UNL     1       4.458   5.528  17.024  0.00  0.00    +0.000 N 
BRANCH  22  23
ATOM     23  C   UNL     1       4.430   4.252  16.262  0.00  0.00    +0.000 C 
BRANCH  23  25
ATOM     24  C   UNL     1       3.561   2.127  17.432  0.00  0.00    +0.000 C 
ATOM     25  C   UNL     1       4.756   2.999  17.089  0.00  0.00    +0.000 C 
ENDBRANCH  23  25
ENDBRANCH  22  23
BRANCH  22  26
ATOM     26  C   UNL     1       5.522   6.460  16.570  0.00  0.00    +0.000 C 
BRANCH  26  27
ATOM     27  C   UNL     1       6.856   6.244  17.298  0.00  0.00    +0.000 C 
ATOM     28  C   UNL     1       7.609   7.530  17.603  0.00  0.00    +0.000 C 
ENDBRANCH  26  27
ENDBRANCH  22  26
ENDBRANCH   1  22
TORSDOF 7
ENDMDL
