MODEL 1
REMARK VINA RESULT:      -7.9      0.000      0.000
REMARK  Name = 
REMARK  5 active torsions:
REMARK  status: ('A' for Active; 'I' for Inactive)
REMARK    1  A    between atoms: O5*_1  and  C5*_2
REMARK    2  A    between atoms: C5*_2  and  C4*_3
REMARK    3  A    between atoms: C1*_5  and  N_6
REMARK    4  A    between atoms: C2*_21  and  O2*_22
REMARK    5  A    between atoms: C3*_23  and  O3*_24
REMARK                            x       y       z     vdW  Elec       q    Type
REMARK                         _______ _______ _______ _____ _____    ______ ____
ROOT
ATOM      1  N   UNL     1       5.500   4.880  18.981  0.00  0.00    +0.000 N 
ATOM      2  C   UNL     1       6.595   5.494  19.519  0.00  0.00    +0.000 A 
ATOM      3  N   UNL     1       7.542   5.675  18.623  0.00  0.00    +0.000 NA
ATOM      4  C   UNL     1       7.033   5.174  17.454  0.00  0.00    +0.000 A 
ATOM      5  N   UNL     1       7.635   5.193  16.247  0.00  0.00    +0.000 NA
ATOM      6  C   UNL     1       6.916   4.702  15.226  0.00  0.00    +0.000 A 
ATOM      7  C   UNL     1       7.448   4.767  13.946  0.00  0.00    +0.000 A 
ATOM      8  C   UNL     1       6.729   4.331  12.825  0.00  0.00    +0.000 A 
ATOM      9 CL   UNL     1       7.470   4.506  11.273  0.00  0.00    +0.000 Cl
ATOM     10  C   UNL     1       5.452   3.791  12.978  0.00  0.00    +0.000 A 
ATOM     11 CL   UNL     1       4.482   3.275  11.645  0.00  0.00    +0.000 Cl
ATOM     12  C   UNL     1       4.908   3.677  14.253  0.00  0.00    +0.000 A 
ATOM     13  C   UNL     1       5.623   4.137  15.365  0.00  0.00    +0.000 A 
ATOM     14  C   UNL     1       5.038   4.068  16.625  0.00  0.00    +0.000 A 
ATOM     15  C   UNL     1       5.767   4.645  17.654  0.00  0.00    +0.000 A 
ENDROOT
BRANCH   1  18
ATOM     16  C4* UNL     1       2.666   2.850  19.534  0.00  0.00    +0.000 C 
ATOM     17  O4* UNL     1       4.057   3.164  19.789  0.00  0.00    +0.000 OA
ATOM     18  C1* UNL     1       4.231   4.585  19.612  0.00  0.00    +0.000 C 
ATOM     19  C2* UNL     1       3.013   5.127  18.871  0.00  0.00    +0.000 C 
ATOM     20  C3* UNL     1       1.937   4.188  19.391  0.00  0.00    +0.000 C 
BRANCH  19  21
ATOM     21  O2* UNL     1       2.726   6.488  19.207  0.00  0.00    +0.000 OA
ATOM     22  H2* UNL     1       3.507   7.008  18.924  0.00  0.00    +0.000 HD
ENDBRANCH  19  21
BRANCH  20  23
ATOM     23  O3* UNL     1       1.504   4.691  20.676  0.00  0.00    +0.000 OA
ATOM     24  H3* UNL     1       0.746   5.292  20.546  0.00  0.00    +0.000 HD
ENDBRANCH  20  23
BRANCH  16  25
ATOM     25  C5* UNL     1       2.580   1.964  18.290  0.00  0.00    +0.000 C 
BRANCH  25  26
ATOM     26  O5* UNL     1       3.728   1.130  18.184  0.00  0.00    +0.000 OA
ATOM     27  H5* UNL     1       3.668   0.664  17.329  0.00  0.00    +0.000 HD
ENDBRANCH  25  26
ENDBRANCH  16  25
ENDBRANCH   1  18
TORSDOF 5
ENDMDL
MODEL 2
REMARK VINA RESULT:      -7.8      5.559      7.683
REMARK  Name = 
REMARK  5 active torsions:
REMARK  status: ('A' for Active; 'I' for Inactive)
REMARK    1  A    between atoms: O5*_1  and  C5*_2
REMARK    2  A    between atoms: C5*_2  and  C4*_3
REMARK    3  A    between atoms: C1*_5  and  N_6
REMARK    4  A    between atoms: C2*_21  and  O2*_22
REMARK    5  A    between atoms: C3*_23  and  O3*_24
REMARK                            x       y       z     vdW  Elec       q    Type
REMARK                         _______ _______ _______ _____ _____    ______ ____
ROOT
ATOM      1  N   UNL     1       1.264   9.352  19.066  0.00  0.00    +0.000 N 
ATOM      2  C   UNL     1       1.807   9.821  17.904  0.00  0.00    +0.000 A 
ATOM      3  N   UNL     1       2.621   8.942  17.357  0.00  0.00    +0.000 NA
ATOM      4  C   UNL     1       2.591   7.856  18.190  0.00  0.00    +0.000 A 
ATOM      5  N   UNL     1       3.235   6.685  18.001  0.00  0.00    +0.000 NA
ATOM      6  C   UNL     1       3.005   5.735  18.919  0.00  0.00    +0.000 A 
ATOM      7  C   UNL     1       3.574   4.483  18.737  0.00  0.00    +0.000 A 
ATOM      8  C   UNL     1       3.327   3.424  19.622  0.00  0.00    +0.000 A 
ATOM      9 CL   UNL     1       4.048   1.893  19.271  0.00  0.00    +0.000 Cl
ATOM     10  C   UNL     1       2.509   3.618  20.736  0.00  0.00    +0.000 A 
ATOM     11 CL   UNL     1       2.117   2.355  21.847  0.00  0.00    +0.000 Cl
ATOM     12  C   UNL     1       1.956   4.873  20.965  0.00  0.00    +0.000 A 
ATOM     13  C   UNL     1       2.188   5.918  20.064  0.00  0.00    +0.000 A 
ATOM     14  C   UNL     1       1.578   7.150  20.279  0.00  0.00    +0.000 A 
ATOM     15  C   UNL     1       1.771   8.094  19.282  0.00  0.00    +0.000 A 
ENDROOT
BRANCH   1  18
ATOM     16  C4* UNL     1      -1.148  11.831  19.772  0.00  0.00    +0.000 C 
ATOM     17  O4* UNL     1      -0.771  10.591  19.124  0.00  0.00    +0.000 OA
ATOM     18  C1* UNL     1       0.269   9.977  19.912  0.00  0.00    +0.000 C 
ATOM     19  C2* UNL     1       0.821  11.024  20.873  0.00  0.00    +0.000 C 
ATOM     20  C3* UNL     1      -0.429  11.852  21.121  0.00  0.00    +0.000 C 
BRANCH  19  21
ATOM     21  O2* UNL     1       1.316  10.449  22.087  0.00  0.00    +0.000 OA
ATOM     22  H2* UNL     1       1.769   9.618  21.829  0.00  0.00    +0.000 HD
ENDBRANCH  19  21
BRANCH  20  23
ATOM     23  O3* UNL     1      -1.202  11.179  22.141  0.00  0.00    +0.000 OA
ATOM     24  H3* UNL     1      -1.158  10.216  21.994  0.00  0.00    +0.000 HD
ENDBRANCH  20  23
BRANCH  16  25
ATOM     25  C5* UNL     1      -0.778  12.998  18.855  0.00  0.00    +0.000 C 
BRANCH  25  26
ATOM     26  O5* UNL     1      -1.162  12.729  17.512  0.00  0.00    +0.000 OA
ATOM     27  H5* UNL     1      -0.351  12.503  17.020  0.00  0.00    +0.000 HD
ENDBRANCH  25  26
ENDBRANCH  16  25
ENDBRANCH   1  18
TORSDOF 5
ENDMDL
MODEL 3
REMARK VINA RESULT:      -7.6      5.532      7.483
REMARK  Name = 
REMARK  5 active torsions:
REMARK  status: ('A' for Active; 'I' for Inactive)
REMARK    1  A    between atoms: O5*_1  and  C5*_2
REMARK    2  A    between atoms: C5*_2  and  C4*_3
REMARK    3  A    between atoms: C1*_5  and  N_6
REMARK    4  A    between atoms: C2*_21  and  O2*_22
REMARK    5  A    between atoms: C3*_23  and  O3*_24
REMARK                            x       y       z     vdW  Elec       q    Type
REMARK                         _______ _______ _______ _____ _____    ______ ____
ROOT
ATOM      1  N   UNL     1       2.844   5.945  19.147  0.00  0.00    +0.000 N 
ATOM      2  C   UNL     1       3.488   6.172  17.965  0.00  0.00    +0.000 A 
ATOM      3  N   UNL     1       3.260   7.386  17.510  0.00  0.00    +0.000 NA
ATOM      4  C   UNL     1       2.450   7.975  18.444  0.00  0.00    +0.000 A 
ATOM      5  N   UNL     1       2.000   9.247  18.425  0.00  0.00    +0.000 NA
ATOM      6  C   UNL     1       1.270   9.626  19.484  0.00  0.00    +0.000 A 
ATOM      7  C   UNL     1       0.847  10.945  19.563  0.00  0.00    +0.000 A 
ATOM      8  C   UNL     1       0.134  11.427  20.669  0.00  0.00    +0.000 A 
ATOM      9 CL   UNL     1      -0.299  13.101  20.683  0.00  0.00    +0.000 Cl
ATOM     10  C   UNL     1      -0.191  10.570  21.721  0.00  0.00    +0.000 A 
ATOM     11 CL   UNL     1      -1.025  11.096  23.139  0.00  0.00    +0.000 Cl
ATOM     12  C   UNL     1       0.186   9.234  21.653  0.00  0.00    +0.000 A 
ATOM     13  C   UNL     1       0.919   8.766  20.555  0.00  0.00    +0.000 A 
ATOM     14  C   UNL     1       1.338   7.440  20.534  0.00  0.00    +0.000 A 
ATOM     15  C   UNL     1       2.150   7.087  19.466  0.00  0.00    +0.000 A 
ENDROOT
BRANCH   1  18
ATOM     16  C4* UNL     1       3.767   2.609  19.835  0.00  0.00    +0.000 C 
ATOM     17  O4* UNL     1       4.105   4.014  19.746  0.00  0.00    +0.000 OA
ATOM     18  C1* UNL     1       2.908   4.777  19.999  0.00  0.00    +0.000 C 
ATOM     19  C2* UNL     1       1.711   3.840  19.880  0.00  0.00    +0.000 C 
ATOM     20  C3* UNL     1       2.333   2.540  20.364  0.00  0.00    +0.000 C 
BRANCH  19  21
ATOM     21  O2* UNL     1       0.617   4.237  20.713  0.00  0.00    +0.000 OA
ATOM     22  H2* UNL     1       0.277   5.074  20.333  0.00  0.00    +0.000 HD
ENDBRANCH  19  21
BRANCH  20  23
ATOM     23  O3* UNL     1       2.304   2.555  21.810  0.00  0.00    +0.000 OA
ATOM     24  H3* UNL     1       2.796   1.784  22.149  0.00  0.00    +0.000 HD
ENDBRANCH  20  23
BRANCH  16  25
ATOM     25  C5* UNL     1       3.949   1.969  18.458  0.00  0.00    +0.000 C 
BRANCH  25  26
ATOM     26  O5* UNL     1       4.369   0.616  18.579  0.00  0.00    +0.000 OA
ATOM     27  H5* UNL     1       3.640   0.057  18.252  0.00  0.00    +0.000 HD
ENDBRANCH  25  26
ENDBRANCH  16  25
ENDBRANCH   1  18
TORSDOF 5
ENDMDL
MODEL 4
REMARK VINA RESULT:      -7.5      1.521      2.410
REMARK  Name = 
REMARK  5 active torsions:
REMARK  status: ('A' for Active; 'I' for Inactive)
REMARK    1  A    between atoms: O5*_1  and  C5*_2
REMARK    2  A    between atoms: C5*_2  and  C4*_3
REMARK    3  A    between atoms: C1*_5  and  N_6
REMARK    4  A    between atoms: C2*_21  and  O2*_22
REMARK    5  A    between atoms: C3*_23  and  O3*_24
REMARK                            x       y       z     vdW  Elec       q    Type
REMARK                         _______ _______ _______ _____ _____    ______ ____
ROOT
ATOM      1  N   UNL     1       3.740   4.408  18.793  0.00  0.00    +0.000 N 
ATOM      2  C   UNL     1       4.290   5.197  19.763  0.00  0.00    +0.000 A 
ATOM      3  N   UNL     1       5.425   5.735  19.368  0.00  0.00    +0.000 NA
ATOM      4  C   UNL     1       5.608   5.291  18.086  0.00  0.00    +0.000 A 
ATOM      5  N   UNL     1       6.619   5.630  17.258  0.00  0.00    +0.000 NA
ATOM      6  C   UNL     1       6.557   5.121  16.019  0.00  0.00    +0.000 A 
ATOM      7  C   UNL     1       7.524   5.497  15.097  0.00  0.00    +0.000 A 
ATOM      8  C   UNL     1       7.487   5.054  13.768  0.00  0.00    +0.000 A 
ATOM      9 CL   UNL     1       8.714   5.626  12.693  0.00  0.00    +0.000 Cl
ATOM     10  C   UNL     1       6.475   4.192  13.343  0.00  0.00    +0.000 A 
ATOM     11 CL   UNL     1       6.333   3.639  11.714  0.00  0.00    +0.000 Cl
ATOM     12  C   UNL     1       5.515   3.767  14.255  0.00  0.00    +0.000 A 
ATOM     13  C   UNL     1       5.545   4.233  15.575  0.00  0.00    +0.000 A 
ATOM     14  C   UNL     1       4.542   3.843  16.456  0.00  0.00    +0.000 A 
ATOM     15  C   UNL     1       4.584   4.436  17.709  0.00  0.00    +0.000 A 
ENDROOT
BRANCH   1  18
ATOM     16  C4* UNL     1       0.906   3.082  20.426  0.00  0.00    +0.000 C 
ATOM     17  O4* UNL     1       1.621   4.209  19.864  0.00  0.00    +0.000 OA
ATOM     18  C1* UNL     1       2.469   3.715  18.807  0.00  0.00    +0.000 C 
ATOM     19  C2* UNL     1       2.575   2.200  18.948  0.00  0.00    +0.000 C 
ATOM     20  C3* UNL     1       1.203   1.884  19.522  0.00  0.00    +0.000 C 
BRANCH  19  21
ATOM     21  O2* UNL     1       2.779   1.545  17.693  0.00  0.00    +0.000 OA
ATOM     22  H2* UNL     1       3.740   1.355  17.640  0.00  0.00    +0.000 HD
ENDBRANCH  19  21
BRANCH  20  23
ATOM     23  O3* UNL     1       0.273   1.817  18.416  0.00  0.00    +0.000 OA
ATOM     24  H3* UNL     1      -0.638   1.793  18.763  0.00  0.00    +0.000 HD
ENDBRANCH  20  23
BRANCH  16  25
ATOM     25  C5* UNL     1       1.355   2.887  21.876  0.00  0.00    +0.000 C 
BRANCH  25  26
ATOM     26  O5* UNL     1       2.744   2.589  21.940  0.00  0.00    +0.000 OA
ATOM     27  H5* UNL     1       2.856   1.670  21.637  0.00  0.00    +0.000 HD
ENDBRANCH  25  26
ENDBRANCH  16  25
ENDBRANCH   1  18
TORSDOF 5
ENDMDL
MODEL 5
REMARK VINA RESULT:      -7.3      5.794      7.897
REMARK  Name = 
REMARK  5 active torsions:
REMARK  status: ('A' for Active; 'I' for Inactive)
REMARK    1  A    between atoms: O5*_1  and  C5*_2
REMARK    2  A    between atoms: C5*_2  and  C4*_3
REMARK    3  A    between atoms: C1*_5  and  N_6
REMARK    4  A    between atoms: C2*_21  and  O2*_22
REMARK    5  A    between atoms: C3*_23  and  O3*_24
REMARK                            x       y       z     vdW  Elec       q    Type
REMARK                         _______ _______ _______ _____ _____    ______ ____
ROOT
ATOM      1  N   UNL     1       1.404   9.734  19.279  0.00  0.00    +0.000 N 
ATOM      2  C   UNL     1       1.808  10.180  18.053  0.00  0.00    +0.000 A 
ATOM      3  N   UNL     1       2.412   9.234  17.365  0.00  0.00    +0.000 NA
ATOM      4  C   UNL     1       2.384   8.127  18.171  0.00  0.00    +0.000 A 
ATOM      5  N   UNL     1       2.843   6.898  17.858  0.00  0.00    +0.000 NA
ATOM      6  C   UNL     1       2.649   5.947  18.784  0.00  0.00    +0.000 A 
ATOM      7  C   UNL     1       3.026   4.644  18.488  0.00  0.00    +0.000 A 
ATOM      8  C   UNL     1       2.797   3.589  19.382  0.00  0.00    +0.000 A 
ATOM      9 CL   UNL     1       3.262   1.999  18.889  0.00  0.00    +0.000 Cl
ATOM     10  C   UNL     1       2.196   3.834  20.617  0.00  0.00    +0.000 A 
ATOM     11 CL   UNL     1       1.836   2.584  21.753  0.00  0.00    +0.000 Cl
ATOM     12  C   UNL     1       1.842   5.135  20.957  0.00  0.00    +0.000 A 
ATOM     13  C   UNL     1       2.053   6.180  20.049  0.00  0.00    +0.000 A 
ATOM     14  C   UNL     1       1.638   7.465  20.384  0.00  0.00    +0.000 A 
ATOM     15  C   UNL     1       1.783   8.418  19.387  0.00  0.00    +0.000 A 
ENDROOT
BRANCH   1  18
ATOM     16  C4* UNL     1      -1.461  11.457  20.411  0.00  0.00    +0.000 C 
ATOM     17  O4* UNL     1      -0.775  10.216  20.114  0.00  0.00    +0.000 OA
ATOM     18  C1* UNL     1       0.639  10.437  20.287  0.00  0.00    +0.000 C 
ATOM     19  C2* UNL     1       0.885  11.942  20.334  0.00  0.00    +0.000 C 
ATOM     20  C3* UNL     1      -0.408  12.409  20.982  0.00  0.00    +0.000 C 
BRANCH  19  21
ATOM     21  O2* UNL     1       2.023  12.288  21.129  0.00  0.00    +0.000 OA
ATOM     22  H2* UNL     1       2.321  11.456  21.553  0.00  0.00    +0.000 HD
ENDBRANCH  19  21
BRANCH  20  23
ATOM     23  O3* UNL     1      -0.264  12.241  22.411  0.00  0.00    +0.000 OA
ATOM     24  H3* UNL     1      -1.150  12.184  22.818  0.00  0.00    +0.000 HD
ENDBRANCH  20  23
BRANCH  16  25
ATOM     25  C5* UNL     1      -2.130  11.969  19.134  0.00  0.00    +0.000 C 
BRANCH  25  26
ATOM     26  O5* UNL     1      -3.263  12.772  19.444  0.00  0.00    +0.000 OA
ATOM     27  H5* UNL     1      -3.806  12.828  18.636  0.00  0.00    +0.000 HD
ENDBRANCH  25  26
ENDBRANCH  16  25
ENDBRANCH   1  18
TORSDOF 5
ENDMDL
MODEL 6
REMARK VINA RESULT:      -7.2      5.989      7.991
REMARK  Name = 
REMARK  5 active torsions:
REMARK  status: ('A' for Active; 'I' for Inactive)
REMARK    1  A    between atoms: O5*_1  and  C5*_2
REMARK    2  A    between atoms: C5*_2  and  C4*_3
REMARK    3  A    between atoms: C1*_5  and  N_6
REMARK    4  A    between atoms: C2*_21  and  O2*_22
REMARK    5  A    between atoms: C3*_23  and  O3*_24
REMARK                            x       y       z     vdW  Elec       q    Type
REMARK                         _______ _______ _______ _____ _____    ______ ____
ROOT
ATOM      1  N   UNL     1       0.266   9.777  19.999  0.00  0.00    +0.000 N 
ATOM      2  C   UNL     1      -0.088   9.469  21.281  0.00  0.00    +0.000 A 
ATOM      3  N   UNL     1       0.488   8.359  21.692  0.00  0.00    +0.000 NA
ATOM      4  C   UNL     1       1.259   7.941  20.640  0.00  0.00    +0.000 A 
ATOM      5  N   UNL     1       2.076   6.867  20.624  0.00  0.00    +0.000 NA
ATOM      6  C   UNL     1       2.787   6.689  19.501  0.00  0.00    +0.000 A 
ATOM      7  C   UNL     1       3.704   5.649  19.454  0.00  0.00    +0.000 A 
ATOM      8  C   UNL     1       4.526   5.440  18.337  0.00  0.00    +0.000 A 
ATOM      9 CL   UNL     1       5.668   4.145  18.406  0.00  0.00    +0.000 Cl
ATOM     10  C   UNL     1       4.420   6.274  17.223  0.00  0.00    +0.000 A 
ATOM     11 CL   UNL     1       5.426   6.114  15.829  0.00  0.00    +0.000 Cl
ATOM     12  C   UNL     1       3.482   7.301  17.227  0.00  0.00    +0.000 A 
ATOM     13  C   UNL     1       2.682   7.516  18.355  0.00  0.00    +0.000 A 
ATOM     14  C   UNL     1       1.791   8.585  18.362  0.00  0.00    +0.000 A 
ATOM     15  C   UNL     1       1.119   8.794  19.557  0.00  0.00    +0.000 A 
ENDROOT
BRANCH   1  18
ATOM     16  C4* UNL     1      -1.288  12.919  19.586  0.00  0.00    +0.000 C 
ATOM     17  O4* UNL     1      -0.180  12.117  20.063  0.00  0.00    +0.000 OA
ATOM     18  C1* UNL     1      -0.084  10.948  19.223  0.00  0.00    +0.000 C 
ATOM     19  C2* UNL     1      -1.382  10.820  18.433  0.00  0.00    +0.000 C 
ATOM     20  C3* UNL     1      -1.748  12.286  18.271  0.00  0.00    +0.000 C 
BRANCH  19  21
ATOM     21  O2* UNL     1      -1.192  10.187  17.164  0.00  0.00    +0.000 OA
ATOM     22  H2* UNL     1      -1.543  10.811  16.494  0.00  0.00    +0.000 HD
ENDBRANCH  19  21
BRANCH  20  23
ATOM     23  O3* UNL     1      -0.998  12.802  17.148  0.00  0.00    +0.000 OA
ATOM     24  H3* UNL     1      -1.349  12.416  16.323  0.00  0.00    +0.000 HD
ENDBRANCH  20  23
BRANCH  16  25
ATOM     25  C5* UNL     1      -2.370  12.956  20.666  0.00  0.00    +0.000 C 
BRANCH  25  26
ATOM     26  O5* UNL     1      -3.502  13.696  20.224  0.00  0.00    +0.000 OA
ATOM     27  H5* UNL     1      -4.244  13.069  20.147  0.00  0.00    +0.000 HD
ENDBRANCH  25  26
ENDBRANCH  16  25
ENDBRANCH   1  18
TORSDOF 5
ENDMDL
MODEL 7
REMARK VINA RESULT:      -7.0      4.805      6.776
REMARK  Name = 
REMARK  5 active torsions:
REMARK  status: ('A' for Active; 'I' for Inactive)
REMARK    1  A    between atoms: O5*_1  and  C5*_2
REMARK    2  A    between atoms: C5*_2  and  C4*_3
REMARK    3  A    between atoms: C1*_5  and  N_6
REMARK    4  A    between atoms: C2*_21  and  O2*_22
REMARK    5  A    between atoms: C3*_23  and  O3*_24
REMARK                            x       y       z     vdW  Elec       q    Type
REMARK                         _______ _______ _______ _____ _____    ______ ____
ROOT
ATOM      1  N   UNL     1       3.844   5.239  17.777  0.00  0.00    +0.000 N 
ATOM      2  C   UNL     1       4.454   5.766  16.675  0.00  0.00    +0.000 A 
ATOM      3  N   UNL     1       4.143   7.034  16.505  0.00  0.00    +0.000 NA
ATOM      4  C   UNL     1       3.313   7.345  17.548  0.00  0.00    +0.000 A 
ATOM      5  N   UNL     1       2.785   8.557  17.817  0.00  0.00    +0.000 NA
ATOM      6  C   UNL     1       2.050   8.641  18.935  0.00  0.00    +0.000 A 
ATOM      7  C   UNL     1       1.546   9.880  19.308  0.00  0.00    +0.000 A 
ATOM      8  C   UNL     1       0.823  10.055  20.495  0.00  0.00    +0.000 A 
ATOM      9 CL   UNL     1       0.286  11.651  20.886  0.00  0.00    +0.000 Cl
ATOM     10  C   UNL     1       0.569   8.965  21.329  0.00  0.00    +0.000 A 
ATOM     11 CL   UNL     1      -0.272   9.104  22.831  0.00  0.00    +0.000 Cl
ATOM     12  C   UNL     1       1.028   7.705  20.962  0.00  0.00    +0.000 A 
ATOM     13  C   UNL     1       1.770   7.543  19.786  0.00  0.00    +0.000 A 
ATOM     14  C   UNL     1       2.271   6.285  19.467  0.00  0.00    +0.000 A 
ATOM     15  C   UNL     1       3.086   6.233  18.346  0.00  0.00    +0.000 A 
ENDROOT
BRANCH   1  18
ATOM     16  C4* UNL     1       2.779   2.552  19.804  0.00  0.00    +0.000 C 
ATOM     17  O4* UNL     1       2.712   3.294  18.561  0.00  0.00    +0.000 OA
ATOM     18  C1* UNL     1       3.995   3.916  18.345  0.00  0.00    +0.000 C 
ATOM     19  C2* UNL     1       4.773   3.875  19.657  0.00  0.00    +0.000 C 
ATOM     20  C3* UNL     1       4.243   2.578  20.246  0.00  0.00    +0.000 C 
BRANCH  19  21
ATOM     21  O2* UNL     1       6.188   3.817  19.455  0.00  0.00    +0.000 OA
ATOM     22  H2* UNL     1       6.334   3.992  18.501  0.00  0.00    +0.000 HD
ENDBRANCH  19  21
BRANCH  20  23
ATOM     23  O3* UNL     1       4.992   1.492  19.653  0.00  0.00    +0.000 OA
ATOM     24  H3* UNL     1       4.372   0.800  19.355  0.00  0.00    +0.000 HD
ENDBRANCH  20  23
BRANCH  16  25
ATOM     25  C5* UNL     1       1.818   3.188  20.810  0.00  0.00    +0.000 C 
BRANCH  25  26
ATOM     26  O5* UNL     1       2.271   2.981  22.142  0.00  0.00    +0.000 OA
ATOM     27  H5* UNL     1       2.451   3.859  22.525  0.00  0.00    +0.000 HD
ENDBRANCH  25  26
ENDBRANCH  16  25
ENDBRANCH   1  18
TORSDOF 5
ENDMDL
MODEL 8
REMARK VINA RESULT:      -7.0      4.666      6.480
REMARK  Name = 
REMARK  5 active torsions:
REMARK  status: ('A' for Active; 'I' for Inactive)
REMARK    1  A    between atoms: O5*_1  and  C5*_2
REMARK    2  A    between atoms: C5*_2  and  C4*_3
REMARK    3  A    between atoms: C1*_5  and  N_6
REMARK    4  A    between atoms: C2*_21  and  O2*_22
REMARK    5  A    between atoms: C3*_23  and  O3*_24
REMARK                            x       y       z     vdW  Elec       q    Type
REMARK                         _______ _______ _______ _____ _____    ______ ____
ROOT
ATOM      1  N   UNL     1       4.203   5.210  17.557  0.00  0.00    +0.000 N 
ATOM      2  C   UNL     1       4.813   5.731  16.452  0.00  0.00    +0.000 A 
ATOM      3  N   UNL     1       4.443   6.975  16.232  0.00  0.00    +0.000 NA
ATOM      4  C   UNL     1       3.572   7.277  17.245  0.00  0.00    +0.000 A 
ATOM      5  N   UNL     1       2.977   8.469  17.460  0.00  0.00    +0.000 NA
ATOM      6  C   UNL     1       2.210   8.552  18.557  0.00  0.00    +0.000 A 
ATOM      7  C   UNL     1       1.636   9.774  18.876  0.00  0.00    +0.000 A 
ATOM      8  C   UNL     1       0.875   9.951  20.040  0.00  0.00    +0.000 A 
ATOM      9 CL   UNL     1       0.249  11.529  20.363  0.00  0.00    +0.000 Cl
ATOM     10  C   UNL     1       0.656   8.877  20.903  0.00  0.00    +0.000 A 
ATOM     11 CL   UNL     1      -0.230   9.022  22.379  0.00  0.00    +0.000 Cl
ATOM     12  C   UNL     1       1.186   7.630  20.590  0.00  0.00    +0.000 A 
ATOM     13  C   UNL     1       1.965   7.469  19.438  0.00  0.00    +0.000 A 
ATOM     14  C   UNL     1       2.536   6.228  19.173  0.00  0.00    +0.000 A 
ATOM     15  C   UNL     1       3.381   6.182  18.074  0.00  0.00    +0.000 A 
ENDROOT
BRANCH   1  18
ATOM     16  C4* UNL     1       3.045   2.192  18.976  0.00  0.00    +0.000 C 
ATOM     17  O4* UNL     1       3.353   2.998  17.812  0.00  0.00    +0.000 OA
ATOM     18  C1* UNL     1       4.406   3.915  18.173  0.00  0.00    +0.000 C 
ATOM     19  C2* UNL     1       4.511   3.947  19.694  0.00  0.00    +0.000 C 
ATOM     20  C3* UNL     1       4.110   2.519  20.024  0.00  0.00    +0.000 C 
BRANCH  19  21
ATOM     21  O2* UNL     1       5.838   4.235  20.147  0.00  0.00    +0.000 OA
ATOM     22  H2* UNL     1       6.371   3.436  19.949  0.00  0.00    +0.000 HD
ENDBRANCH  19  21
BRANCH  20  23
ATOM     23  O3* UNL     1       5.282   1.688  19.860  0.00  0.00    +0.000 OA
ATOM     24  H3* UNL     1       5.336   1.058  20.604  0.00  0.00    +0.000 HD
ENDBRANCH  20  23
BRANCH  16  25
ATOM     25  C5* UNL     1       1.617   2.504  19.427  0.00  0.00    +0.000 C 
BRANCH  25  26
ATOM     26  O5* UNL     1       0.668   1.872  18.577  0.00  0.00    +0.000 OA
ATOM     27  H5* UNL     1      -0.218   2.084  18.925  0.00  0.00    +0.000 HD
ENDBRANCH  25  26
ENDBRANCH  16  25
ENDBRANCH   1  18
TORSDOF 5
ENDMDL
MODEL 9
REMARK VINA RESULT:      -7.0      5.947      7.989
REMARK  Name = 
REMARK  5 active torsions:
REMARK  status: ('A' for Active; 'I' for Inactive)
REMARK    1  A    between atoms: O5*_1  and  C5*_2
REMARK    2  A    between atoms: C5*_2  and  C4*_3
REMARK    3  A    between atoms: C1*_5  and  N_6
REMARK    4  A    between atoms: C2*_21  and  O2*_22
REMARK    5  A    between atoms: C3*_23  and  O3*_24
REMARK                            x       y       z     vdW  Elec       q    Type
REMARK                         _______ _______ _______ _____ _____    ______ ____
ROOT
ATOM      1  N   UNL     1       0.470  10.055  19.882  0.00  0.00    +0.000 N 
ATOM      2  C   UNL     1       0.023   9.803  21.148  0.00  0.00    +0.000 A 
ATOM      3  N   UNL     1       0.456   8.644  21.596  0.00  0.00    +0.000 NA
ATOM      4  C   UNL     1       1.229   8.133  20.588  0.00  0.00    +0.000 A 
ATOM      5  N   UNL     1       1.927   6.979  20.622  0.00  0.00    +0.000 NA
ATOM      6  C   UNL     1       2.669   6.711  19.537  0.00  0.00    +0.000 A 
ATOM      7  C   UNL     1       3.472   5.579  19.544  0.00  0.00    +0.000 A 
ATOM      8  C   UNL     1       4.321   5.270  18.472  0.00  0.00    +0.000 A 
ATOM      9 CL   UNL     1       5.314   3.862  18.608  0.00  0.00    +0.000 Cl
ATOM     10  C   UNL     1       4.358   6.095  17.347  0.00  0.00    +0.000 A 
ATOM     11 CL   UNL     1       5.408   5.811  16.006  0.00  0.00    +0.000 Cl
ATOM     12  C   UNL     1       3.535   7.215  17.295  0.00  0.00    +0.000 A 
ATOM     13  C   UNL     1       2.709   7.530  18.380  0.00  0.00    +0.000 A 
ATOM     14  C   UNL     1       1.937   8.687  18.334  0.00  0.00    +0.000 A 
ATOM     15  C   UNL     1       1.233   8.982  19.492  0.00  0.00    +0.000 A 
ENDROOT
BRANCH   1  18
ATOM     16  C4* UNL     1       0.976  13.477  19.180  0.00  0.00    +0.000 C 
ATOM     17  O4* UNL     1       1.441  12.105  19.152  0.00  0.00    +0.000 OA
ATOM     18  C1* UNL     1       0.284  11.246  19.081  0.00  0.00    +0.000 C 
ATOM     19  C2* UNL     1      -0.946  12.070  19.446  0.00  0.00    +0.000 C 
ATOM     20  C3* UNL     1      -0.529  13.432  18.914  0.00  0.00    +0.000 C 
BRANCH  19  21
ATOM     21  O2* UNL     1      -2.134  11.599  18.802  0.00  0.00    +0.000 OA
ATOM     22  H2* UNL     1      -2.806  12.303  18.925  0.00  0.00    +0.000 HD
ENDBRANCH  19  21
BRANCH  20  23
ATOM     23  O3* UNL     1      -0.814  13.451  17.496  0.00  0.00    +0.000 OA
ATOM     24  H3* UNL     1      -1.048  14.360  17.229  0.00  0.00    +0.000 HD
ENDBRANCH  20  23
BRANCH  16  25
ATOM     25  C5* UNL     1       1.347  14.094  20.530  0.00  0.00    +0.000 C 
BRANCH  25  26
ATOM     26  O5* UNL     1       2.000  13.141  21.361  0.00  0.00    +0.000 OA
ATOM     27  H5* UNL     1       2.731  13.602  21.810  0.00  0.00    +0.000 HD
ENDBRANCH  25  26
ENDBRANCH  16  25
ENDBRANCH   1  18
TORSDOF 5
ENDMDL
