MODEL 1
REMARK VINA RESULT:      -7.6      0.000      0.000
REMARK  Name = 
REMARK  5 active torsions:
REMARK  status: ('A' for Active; 'I' for Inactive)
REMARK    1  A    between atoms: C_1  and  C_2
REMARK    2  A    between atoms: C_2  and  C_3
REMARK    3  A    between atoms: C_25  and  N_26
REMARK    4  A    between atoms: N_26  and  C_27
REMARK    5  A    between atoms: C_31  and  C_32
REMARK                            x       y       z     vdW  Elec       q    Type
REMARK                         _______ _______ _______ _____ _____    ______ ____
ROOT
ATOM      1  C   UNL     1       8.142  14.024  18.498  0.00  0.00    +0.000 A 
ATOM      2  C   UNL     1       8.431  12.640  18.505  0.00  0.00    +0.000 A 
ATOM      3  C   UNL     1       9.736  12.226  18.299  0.00  0.00    +0.000 A 
ATOM      4  C   UNL     1      10.628  13.200  17.808  0.00  0.00    +0.000 A 
ATOM      5  C   UNL     1      10.323  14.570  17.942  0.00  0.00    +0.000 A 
ATOM      6  C   UNL     1       9.201  14.947  18.708  0.00  0.00    +0.000 A 
ATOM      7  C   UNL     1       9.772  15.380  20.142  0.00  0.00    +0.000 C 
ATOM      8  C   UNL     1       9.450  16.353  21.332  0.00  0.00    +0.000 C 
ATOM      9  O   UNL     1       8.335  17.245  21.267  0.00  0.00    +0.000 OA
ATOM     10  C   UNL     1       7.655  17.304  22.462  0.00  0.00    +0.000 C 
ATOM     11  O   UNL     1       7.839  18.163  23.320  0.00  0.00    +0.000 OA
ATOM     12  N   UNL     1       6.711  16.301  22.492  0.00  0.00    +0.000 N 
ATOM     13  C   UNL     1       7.171  15.073  23.047  0.00  0.00    +0.000 A 
ATOM     14  C   UNL     1       7.615  15.023  24.368  0.00  0.00    +0.000 A 
ATOM     15  C   UNL     1       8.434  13.971  24.776  0.00  0.00    +0.000 A 
ATOM     16  C   UNL     1       8.843  13.000  23.864  0.00  0.00    +0.000 A 
ATOM     17  C   UNL     1       8.365  13.003  22.553  0.00  0.00    +0.000 A 
ATOM     18  C   UNL     1       7.459  14.014  22.168  0.00  0.00    +0.000 A 
ATOM     19  C   UNL     1       8.869  11.961  21.584  0.00  0.00    +0.000 C 
ATOM     20  N   UNL     1      10.301  12.074  21.278  0.00  0.00    +0.000 N 
ATOM     21  C   UNL     1      11.029  11.552  20.224  0.00  0.00    +0.000 C 
ATOM     22  O   UNL     1      12.257  11.677  20.237  0.00  0.00    +0.000 OA
ATOM     23  C   UNL     1      10.277  10.961  18.964  0.00  0.00    +0.000 C 
ATOM     24  H   UNL     1       6.438  16.167  21.527  0.00  0.00    +0.000 HD
ATOM     25  H   UNL     1      10.877  12.609  21.914  0.00  0.00    +0.000 HD
ENDROOT
BRANCH   1  27
ATOM     26  C   UNL     1       5.755  14.832  17.947  0.00  0.00    +0.000 C 
ATOM     27  C   UNL     1       7.093  14.292  17.386  0.00  0.00    +0.000 C 
ENDBRANCH   1  27
BRANCH  23  28
ATOM     28  N   UNL     1       9.268  10.004  19.471  0.00  0.00    +0.000 N 
ATOM     29  H   UNL     1       9.625   9.549  20.312  0.00  0.00    +0.000 HD
BRANCH  28  30
ATOM     30  C   UNL     1       8.594   9.047  18.726  0.00  0.00    +0.000 A 
ATOM     31  C   UNL     1       7.812   9.322  17.604  0.00  0.00    +0.000 A 
ATOM     32  C   UNL     1       7.151   8.295  16.915  0.00  0.00    +0.000 A 
ATOM     33  C   UNL     1       7.209   6.985  17.372  0.00  0.00    +0.000 A 
ATOM     34  C   UNL     1       7.907   6.699  18.546  0.00  0.00    +0.000 A 
ATOM     35  C   UNL     1       8.621   7.719  19.192  0.00  0.00    +0.000 A 
BRANCH  34  36
ATOM     36  C   UNL     1       7.854   5.352  19.173  0.00  0.00    +0.000 C 
ATOM     37  N   UNL     1       7.663   4.302  18.315  0.00  0.00    +0.000 N 
ATOM     38  O   UNL     1       7.900   5.190  20.385  0.00  0.00    +0.000 OA
ATOM     39  H   UNL     1       7.382   4.448  17.355  0.00  0.00    +0.000 HD
ATOM     40  H   UNL     1       7.472   3.397  18.727  0.00  0.00    +0.000 HD
ENDBRANCH  34  36
ENDBRANCH  28  30
ENDBRANCH  23  28
TORSDOF 4
ENDMDL
MODEL 2
REMARK VINA RESULT:      -7.5      9.903     12.305
REMARK  Name = 
REMARK  5 active torsions:
REMARK  status: ('A' for Active; 'I' for Inactive)
REMARK    1  A    between atoms: C_1  and  C_2
REMARK    2  A    between atoms: C_2  and  C_3
REMARK    3  A    between atoms: C_25  and  N_26
REMARK    4  A    between atoms: N_26  and  C_27
REMARK    5  A    between atoms: C_31  and  C_32
REMARK                            x       y       z     vdW  Elec       q    Type
REMARK                         _______ _______ _______ _____ _____    ______ ____
ROOT
ATOM      1  C   UNL     1      -1.176  12.130  20.441  0.00  0.00    +0.000 A 
ATOM      2  C   UNL     1      -2.540  12.430  20.656  0.00  0.00    +0.000 A 
ATOM      3  C   UNL     1      -3.016  12.495  21.955  0.00  0.00    +0.000 A 
ATOM      4  C   UNL     1      -2.172  11.970  22.954  0.00  0.00    +0.000 A 
ATOM      5  C   UNL     1      -0.794  11.806  22.702  0.00  0.00    +0.000 A 
ATOM      6  C   UNL     1      -0.254  12.320  21.505  0.00  0.00    +0.000 A 
ATOM      7  C   UNL     1       0.426  13.718  21.893  0.00  0.00    +0.000 C 
ATOM      8  C   UNL     1       1.612  14.652  21.457  0.00  0.00    +0.000 C 
ATOM      9  O   UNL     1       2.502  14.264  20.408  0.00  0.00    +0.000 OA
ATOM     10  C   UNL     1       2.799  15.316  19.573  0.00  0.00    +0.000 C 
ATOM     11  O   UNL     1       3.800  16.021  19.678  0.00  0.00    +0.000 OA
ATOM     12  N   UNL     1       1.842  15.391  18.585  0.00  0.00    +0.000 N 
ATOM     13  C   UNL     1       0.729  16.221  18.902  0.00  0.00    +0.000 A 
ATOM     14  C   UNL     1       0.917  17.579  19.155  0.00  0.00    +0.000 A 
ATOM     15  C   UNL     1      -0.058  18.287  19.856  0.00  0.00    +0.000 A 
ATOM     16  C   UNL     1      -1.192  17.636  20.339  0.00  0.00    +0.000 A 
ATOM     17  C   UNL     1      -1.424  16.291  20.048  0.00  0.00    +0.000 A 
ATOM     18  C   UNL     1      -0.482  15.601  19.256  0.00  0.00    +0.000 A 
ATOM     19  C   UNL     1      -2.641  15.611  20.628  0.00  0.00    +0.000 C 
ATOM     20  N   UNL     1      -2.620  15.502  22.093  0.00  0.00    +0.000 N 
ATOM     21  C   UNL     1      -3.347  14.678  22.933  0.00  0.00    +0.000 C 
ATOM     22  O   UNL     1      -3.250  14.847  24.153  0.00  0.00    +0.000 OA
ATOM     23  C   UNL     1      -4.145  13.451  22.335  0.00  0.00    +0.000 C 
ATOM     24  H   UNL     1       1.536  14.437  18.442  0.00  0.00    +0.000 HD
ATOM     25  H   UNL     1      -1.989  16.107  22.602  0.00  0.00    +0.000 HD
ENDROOT
BRANCH   1  27
ATOM     26  C   UNL     1      -1.770  11.022  18.188  0.00  0.00    +0.000 C 
ATOM     27  C   UNL     1      -1.096  10.847  19.570  0.00  0.00    +0.000 C 
ENDBRANCH   1  27
BRANCH  23  28
ATOM     28  N   UNL     1      -4.967  13.971  21.219  0.00  0.00    +0.000 N 
ATOM     29  H   UNL     1      -5.589  14.702  21.568  0.00  0.00    +0.000 HD
BRANCH  28  30
ATOM     30  C   UNL     1      -5.678  13.215  20.298  0.00  0.00    +0.000 A 
ATOM     31  C   UNL     1      -6.050  13.656  19.029  0.00  0.00    +0.000 A 
ATOM     32  C   UNL     1      -6.782  12.832  18.162  0.00  0.00    +0.000 A 
ATOM     33  C   UNL     1      -7.207  11.576  18.573  0.00  0.00    +0.000 A 
ATOM     34  C   UNL     1      -6.930  11.149  19.872  0.00  0.00    +0.000 A 
ATOM     35  C   UNL     1      -6.140  11.951  20.709  0.00  0.00    +0.000 A 
BRANCH  34  36
ATOM     36  C   UNL     1      -7.511   9.894  20.419  0.00  0.00    +0.000 C 
ATOM     37  N   UNL     1      -7.678   8.874  19.521  0.00  0.00    +0.000 N 
ATOM     38  O   UNL     1      -7.890   9.797  21.578  0.00  0.00    +0.000 OA
ATOM     39  H   UNL     1      -7.597   9.026  18.526  0.00  0.00    +0.000 HD
ATOM     40  H   UNL     1      -8.208   8.068  19.830  0.00  0.00    +0.000 HD
ENDBRANCH  34  36
ENDBRANCH  28  30
ENDBRANCH  23  28
TORSDOF 4
ENDMDL
MODEL 3
REMARK VINA RESULT:      -7.4      9.200     11.565
REMARK  Name = 
REMARK  5 active torsions:
REMARK  status: ('A' for Active; 'I' for Inactive)
REMARK    1  A    between atoms: C_1  and  C_2
REMARK    2  A    between atoms: C_2  and  C_3
REMARK    3  A    between atoms: C_25  and  N_26
REMARK    4  A    between atoms: N_26  and  C_27
REMARK    5  A    between atoms: C_31  and  C_32
REMARK                            x       y       z     vdW  Elec       q    Type
REMARK                         _______ _______ _______ _____ _____    ______ ____
ROOT
ATOM      1  C   UNL     1      -0.183  11.686  19.536  0.00  0.00    +0.000 A 
ATOM      2  C   UNL     1      -1.431  11.945  20.149  0.00  0.00    +0.000 A 
ATOM      3  C   UNL     1      -1.559  11.758  21.514  0.00  0.00    +0.000 A 
ATOM      4  C   UNL     1      -0.521  11.046  22.146  0.00  0.00    +0.000 A 
ATOM      5  C   UNL     1       0.738  10.928  21.521  0.00  0.00    +0.000 A 
ATOM      6  C   UNL     1       0.986  11.661  20.343  0.00  0.00    +0.000 A 
ATOM      7  C   UNL     1       1.817  12.955  20.796  0.00  0.00    +0.000 C 
ATOM      8  C   UNL     1       2.903  13.950  20.252  0.00  0.00    +0.000 C 
ATOM      9  O   UNL     1       3.477  13.770  18.955  0.00  0.00    +0.000 OA
ATOM     10  C   UNL     1       3.611  14.963  18.283  0.00  0.00    +0.000 C 
ATOM     11  O   UNL     1       4.642  15.629  18.256  0.00  0.00    +0.000 OA
ATOM     12  N   UNL     1       2.441  15.232  17.607  0.00  0.00    +0.000 N 
ATOM     13  C   UNL     1       1.491  15.990  18.350  0.00  0.00    +0.000 A 
ATOM     14  C   UNL     1       1.810  17.272  18.795  0.00  0.00    +0.000 A 
ATOM     15  C   UNL     1       1.083  17.834  19.843  0.00  0.00    +0.000 A 
ATOM     16  C   UNL     1       0.074  17.107  20.472  0.00  0.00    +0.000 A 
ATOM     17  C   UNL     1      -0.296  15.845  20.005  0.00  0.00    +0.000 A 
ATOM     18  C   UNL     1       0.377  15.318  18.882  0.00  0.00    +0.000 A 
ATOM     19  C   UNL     1      -1.362  15.071  20.742  0.00  0.00    +0.000 C 
ATOM     20  N   UNL     1      -0.978  14.679  22.105  0.00  0.00    +0.000 N 
ATOM     21  C   UNL     1      -1.514  13.711  22.935  0.00  0.00    +0.000 C 
ATOM     22  O   UNL     1      -1.104  13.639  24.098  0.00  0.00    +0.000 OA
ATOM     23  C   UNL     1      -2.503  12.627  22.345  0.00  0.00    +0.000 C 
ATOM     24  H   UNL     1       2.057  14.326  17.372  0.00  0.00    +0.000 HD
ATOM     25  H   UNL     1      -0.208  15.171  22.537  0.00  0.00    +0.000 HD
ENDROOT
BRANCH   1  27
ATOM     26  C   UNL     1       0.893   9.795  18.150  0.00  0.00    +0.000 C 
ATOM     27  C   UNL     1      -0.396  10.597  18.451  0.00  0.00    +0.000 C 
ENDBRANCH   1  27
BRANCH  23  28
ATOM     28  N   UNL     1      -3.550  13.357  21.597  0.00  0.00    +0.000 N 
ATOM     29  H   UNL     1      -3.523  14.346  21.851  0.00  0.00    +0.000 HD
BRANCH  28  30
ATOM     30  C   UNL     1      -4.882  12.989  21.473  0.00  0.00    +0.000 A 
ATOM     31  C   UNL     1      -5.828  13.079  22.493  0.00  0.00    +0.000 A 
ATOM     32  C   UNL     1      -7.154  12.671  22.288  0.00  0.00    +0.000 A 
ATOM     33  C   UNL     1      -7.541  12.108  21.080  0.00  0.00    +0.000 A 
ATOM     34  C   UNL     1      -6.591  11.920  20.076  0.00  0.00    +0.000 A 
ATOM     35  C   UNL     1      -5.284  12.391  20.263  0.00  0.00    +0.000 A 
BRANCH  34  36
ATOM     36  C   UNL     1      -6.910  11.164  18.835  0.00  0.00    +0.000 C 
ATOM     37  N   UNL     1      -7.210   9.838  19.005  0.00  0.00    +0.000 N 
ATOM     38  O   UNL     1      -6.837  11.667  17.722  0.00  0.00    +0.000 OA
ATOM     39  H   UNL     1      -7.035   9.365  19.880  0.00  0.00    +0.000 HD
ATOM     40  H   UNL     1      -7.281   9.269  18.170  0.00  0.00    +0.000 HD
ENDBRANCH  34  36
ENDBRANCH  28  30
ENDBRANCH  23  28
TORSDOF 4
ENDMDL
MODEL 4
REMARK VINA RESULT:      -7.3      6.825      8.809
REMARK  Name = 
REMARK  5 active torsions:
REMARK  status: ('A' for Active; 'I' for Inactive)
REMARK    1  A    between atoms: C_1  and  C_2
REMARK    2  A    between atoms: C_2  and  C_3
REMARK    3  A    between atoms: C_25  and  N_26
REMARK    4  A    between atoms: N_26  and  C_27
REMARK    5  A    between atoms: C_31  and  C_32
REMARK                            x       y       z     vdW  Elec       q    Type
REMARK                         _______ _______ _______ _____ _____    ______ ____
ROOT
ATOM      1  C   UNL     1      -0.734  13.329  21.792  0.00  0.00    +0.000 A 
ATOM      2  C   UNL     1      -0.388  11.978  21.564  0.00  0.00    +0.000 A 
ATOM      3  C   UNL     1      -1.141  11.234  20.671  0.00  0.00    +0.000 A 
ATOM      4  C   UNL     1      -2.373  11.795  20.277  0.00  0.00    +0.000 A 
ATOM      5  C   UNL     1      -2.602  13.178  20.431  0.00  0.00    +0.000 A 
ATOM      6  C   UNL     1      -1.532  14.006  20.832  0.00  0.00    +0.000 A 
ATOM      7  C   UNL     1      -0.978  14.688  19.492  0.00  0.00    +0.000 C 
ATOM      8  C   UNL     1      -0.281  16.008  19.001  0.00  0.00    +0.000 C 
ATOM      9  O   UNL     1      -0.010  17.075  19.913  0.00  0.00    +0.000 OA
ATOM     10  C   UNL     1       1.232  17.627  19.701  0.00  0.00    +0.000 C 
ATOM     11  O   UNL     1       1.435  18.631  19.022  0.00  0.00    +0.000 OA
ATOM     12  N   UNL     1       2.168  16.919  20.423  0.00  0.00    +0.000 N 
ATOM     13  C   UNL     1       2.756  15.831  19.718  0.00  0.00    +0.000 A 
ATOM     14  C   UNL     1       3.480  16.061  18.549  0.00  0.00    +0.000 A 
ATOM     15  C   UNL     1       3.688  15.011  17.655  0.00  0.00    +0.000 A 
ATOM     16  C   UNL     1       3.144  13.753  17.904  0.00  0.00    +0.000 A 
ATOM     17  C   UNL     1       2.465  13.490  19.095  0.00  0.00    +0.000 A 
ATOM     18  C   UNL     1       2.338  14.528  20.041  0.00  0.00    +0.000 A 
ATOM     19  C   UNL     1       1.850  12.127  19.305  0.00  0.00    +0.000 C 
ATOM     20  N   UNL     1       0.757  11.817  18.374  0.00  0.00    +0.000 N 
ATOM     21  C   UNL     1      -0.241  10.862  18.462  0.00  0.00    +0.000 C 
ATOM     22  O   UNL     1      -0.988  10.700  17.492  0.00  0.00    +0.000 OA
ATOM     23  C   UNL     1      -0.506  10.124  19.835  0.00  0.00    +0.000 C 
ATOM     24  H   UNL     1       1.673  16.581  21.237  0.00  0.00    +0.000 HD
ATOM     25  H   UNL     1       0.690  12.364  17.527  0.00  0.00    +0.000 HD
ENDROOT
BRANCH   1  27
ATOM     26  C   UNL     1      -2.537  13.731  23.592  0.00  0.00    +0.000 C 
ATOM     27  C   UNL     1      -1.034  13.501  23.305  0.00  0.00    +0.000 C 
ENDBRANCH   1  27
BRANCH  23  28
ATOM     28  N   UNL     1       0.798   9.610  20.310  0.00  0.00    +0.000 N 
ATOM     29  H   UNL     1       1.460  10.383  20.388  0.00  0.00    +0.000 HD
BRANCH  28  30
ATOM     30  C   UNL     1       1.483   8.515  19.806  0.00  0.00    +0.000 A 
ATOM     31  C   UNL     1       2.202   8.510  18.611  0.00  0.00    +0.000 A 
ATOM     32  C   UNL     1       2.857   7.353  18.165  0.00  0.00    +0.000 A 
ATOM     33  C   UNL     1       2.752   6.164  18.874  0.00  0.00    +0.000 A 
ATOM     34  C   UNL     1       1.961   6.118  20.023  0.00  0.00    +0.000 A 
ATOM     35  C   UNL     1       1.364   7.295  20.499  0.00  0.00    +0.000 A 
BRANCH  34  36
ATOM     36  C   UNL     1       1.673   4.835  20.718  0.00  0.00    +0.000 C 
ATOM     37  N   UNL     1       2.583   4.455  21.667  0.00  0.00    +0.000 N 
ATOM     38  O   UNL     1       0.727   4.121  20.412  0.00  0.00    +0.000 OA
ATOM     39  H   UNL     1       3.481   4.908  21.751  0.00  0.00    +0.000 HD
ATOM     40  H   UNL     1       2.493   3.519  22.045  0.00  0.00    +0.000 HD
ENDBRANCH  34  36
ENDBRANCH  28  30
ENDBRANCH  23  28
TORSDOF 4
ENDMDL
MODEL 5
REMARK VINA RESULT:      -7.3      9.276     11.715
REMARK  Name = 
REMARK  5 active torsions:
REMARK  status: ('A' for Active; 'I' for Inactive)
REMARK    1  A    between atoms: C_1  and  C_2
REMARK    2  A    between atoms: C_2  and  C_3
REMARK    3  A    between atoms: C_25  and  N_26
REMARK    4  A    between atoms: N_26  and  C_27
REMARK    5  A    between atoms: C_31  and  C_32
REMARK                            x       y       z     vdW  Elec       q    Type
REMARK                         _______ _______ _______ _____ _____    ______ ____
ROOT
ATOM      1  C   UNL     1      -0.286  11.965  19.402  0.00  0.00    +0.000 A 
ATOM      2  C   UNL     1      -1.561  12.276  19.926  0.00  0.00    +0.000 A 
ATOM      3  C   UNL     1      -1.801  12.071  21.274  0.00  0.00    +0.000 A 
ATOM      4  C   UNL     1      -0.849  11.295  21.965  0.00  0.00    +0.000 A 
ATOM      5  C   UNL     1       0.445  11.123  21.432  0.00  0.00    +0.000 A 
ATOM      6  C   UNL     1       0.817  11.865  20.291  0.00  0.00    +0.000 A 
ATOM      7  C   UNL     1       1.676  13.105  20.833  0.00  0.00    +0.000 C 
ATOM      8  C   UNL     1       2.848  14.053  20.393  0.00  0.00    +0.000 C 
ATOM      9  O   UNL     1       3.508  13.867  19.138  0.00  0.00    +0.000 OA
ATOM     10  C   UNL     1       3.751  15.064  18.505  0.00  0.00    +0.000 C 
ATOM     11  O   UNL     1       4.814  15.677  18.569  0.00  0.00    +0.000 OA
ATOM     12  N   UNL     1       2.649  15.406  17.751  0.00  0.00    +0.000 N 
ATOM     13  C   UNL     1       1.686  16.198  18.438  0.00  0.00    +0.000 A 
ATOM     14  C   UNL     1       2.035  17.454  18.933  0.00  0.00    +0.000 A 
ATOM     15  C   UNL     1       1.261  18.033  19.938  0.00  0.00    +0.000 A 
ATOM     16  C   UNL     1       0.172  17.347  20.474  0.00  0.00    +0.000 A 
ATOM     17  C   UNL     1      -0.225  16.115  19.953  0.00  0.00    +0.000 A 
ATOM     18  C   UNL     1       0.503  15.575  18.871  0.00  0.00    +0.000 A 
ATOM     19  C   UNL     1      -1.381  15.383  20.592  0.00  0.00    +0.000 C 
ATOM     20  N   UNL     1      -1.120  14.947  21.970  0.00  0.00    +0.000 N 
ATOM     21  C   UNL     1      -1.764  13.992  22.737  0.00  0.00    +0.000 C 
ATOM     22  O   UNL     1      -1.446  13.878  23.925  0.00  0.00    +0.000 OA
ATOM     23  C   UNL     1      -2.759  12.972  22.051  0.00  0.00    +0.000 C 
ATOM     24  H   UNL     1       2.240  14.525  17.468  0.00  0.00    +0.000 HD
ATOM     25  H   UNL     1      -0.361  15.391  22.469  0.00  0.00    +0.000 HD
ENDROOT
BRANCH   1  27
ATOM     26  C   UNL     1      -1.909  10.340  18.228  0.00  0.00    +0.000 C 
ATOM     27  C   UNL     1      -0.471  10.908  18.280  0.00  0.00    +0.000 C 
ENDBRANCH   1  27
BRANCH  23  28
ATOM     28  N   UNL     1      -3.709  13.769  21.244  0.00  0.00    +0.000 N 
ATOM     29  H   UNL     1      -3.575  14.762  21.443  0.00  0.00    +0.000 HD
BRANCH  28  30
ATOM     30  C   UNL     1      -5.072  13.544  21.117  0.00  0.00    +0.000 A 
ATOM     31  C   UNL     1      -6.065  14.443  21.507  0.00  0.00    +0.000 A 
ATOM     32  C   UNL     1      -7.424  14.131  21.356  0.00  0.00    +0.000 A 
ATOM     33  C   UNL     1      -7.814  12.890  20.873  0.00  0.00    +0.000 A 
ATOM     34  C   UNL     1      -6.842  11.937  20.566  0.00  0.00    +0.000 A 
ATOM     35  C   UNL     1      -5.485  12.280  20.655  0.00  0.00    +0.000 A 
BRANCH  34  36
ATOM     36  C   UNL     1      -7.207  10.539  20.215  0.00  0.00    +0.000 C 
ATOM     37  N   UNL     1      -7.160  10.227  18.882  0.00  0.00    +0.000 N 
ATOM     38  O   UNL     1      -7.600   9.734  21.048  0.00  0.00    +0.000 OA
ATOM     39  H   UNL     1      -7.076  10.943  18.174  0.00  0.00    +0.000 HD
ATOM     40  H   UNL     1      -7.547   9.334  18.602  0.00  0.00    +0.000 HD
ENDBRANCH  34  36
ENDBRANCH  28  30
ENDBRANCH  23  28
TORSDOF 4
ENDMDL
MODEL 6
REMARK VINA RESULT:      -7.3     10.588     14.303
REMARK  Name = 
REMARK  5 active torsions:
REMARK  status: ('A' for Active; 'I' for Inactive)
REMARK    1  A    between atoms: C_1  and  C_2
REMARK    2  A    between atoms: C_2  and  C_3
REMARK    3  A    between atoms: C_25  and  N_26
REMARK    4  A    between atoms: N_26  and  C_27
REMARK    5  A    between atoms: C_31  and  C_32
REMARK                            x       y       z     vdW  Elec       q    Type
REMARK                         _______ _______ _______ _____ _____    ______ ____
ROOT
ATOM      1  C   UNL     1      -4.930  14.855  20.445  0.00  0.00    +0.000 A 
ATOM      2  C   UNL     1      -4.348  15.126  21.705  0.00  0.00    +0.000 A 
ATOM      3  C   UNL     1      -4.936  14.599  22.842  0.00  0.00    +0.000 A 
ATOM      4  C   UNL     1      -6.234  14.075  22.687  0.00  0.00    +0.000 A 
ATOM      5  C   UNL     1      -6.705  13.719  21.406  0.00  0.00    +0.000 A 
ATOM      6  C   UNL     1      -5.808  13.746  20.318  0.00  0.00    +0.000 A 
ATOM      7  C   UNL     1      -5.344  12.228  20.093  0.00  0.00    +0.000 C 
ATOM      8  C   UNL     1      -4.874  11.261  18.948  0.00  0.00    +0.000 C 
ATOM      9  O   UNL     1      -4.818  11.706  17.591  0.00  0.00    +0.000 OA
ATOM     10  C   UNL     1      -3.686  11.257  16.950  0.00  0.00    +0.000 C 
ATOM     11  O   UNL     1      -3.642  10.250  16.249  0.00  0.00    +0.000 OA
ATOM     12  N   UNL     1      -2.661  12.151  17.171  0.00  0.00    +0.000 N 
ATOM     13  C   UNL     1      -1.873  11.873  18.324  0.00  0.00    +0.000 A 
ATOM     14  C   UNL     1      -1.168  10.674  18.420  0.00  0.00    +0.000 A 
ATOM     15  C   UNL     1      -0.756  10.220  19.671  0.00  0.00    +0.000 A 
ATOM     16  C   UNL     1      -1.080  10.935  20.824  0.00  0.00    +0.000 A 
ATOM     17  C   UNL     1      -1.736  12.165  20.742  0.00  0.00    +0.000 A 
ATOM     18  C   UNL     1      -2.067  12.668  19.467  0.00  0.00    +0.000 A 
ATOM     19  C   UNL     1      -2.109  12.885  22.016  0.00  0.00    +0.000 C 
ATOM     20  N   UNL     1      -3.106  12.176  22.829  0.00  0.00    +0.000 N 
ATOM     21  C   UNL     1      -3.924  12.647  23.841  0.00  0.00    +0.000 C 
ATOM     22  O   UNL     1      -4.604  11.834  24.475  0.00  0.00    +0.000 OA
ATOM     23  C   UNL     1      -4.094  14.205  24.055  0.00  0.00    +0.000 C 
ATOM     24  H   UNL     1      -3.112  13.052  17.264  0.00  0.00    +0.000 HD
ATOM     25  H   UNL     1      -3.243  11.190  22.653  0.00  0.00    +0.000 HD
ENDROOT
BRANCH   1  27
ATOM     26  C   UNL     1      -6.493  16.093  18.808  0.00  0.00    +0.000 C 
ATOM     27  C   UNL     1      -5.297  16.210  19.783  0.00  0.00    +0.000 C 
ENDBRANCH   1  27
BRANCH  23  28
ATOM     28  N   UNL     1      -2.734  14.784  24.126  0.00  0.00    +0.000 N 
ATOM     29  H   UNL     1      -2.053  14.036  24.260  0.00  0.00    +0.000 HD
BRANCH  28  30
ATOM     30  C   UNL     1      -2.338  15.861  24.905  0.00  0.00    +0.000 A 
ATOM     31  C   UNL     1      -2.873  17.146  24.814  0.00  0.00    +0.000 A 
ATOM     32  C   UNL     1      -2.404  18.185  25.632  0.00  0.00    +0.000 A 
ATOM     33  C   UNL     1      -1.350  17.972  26.509  0.00  0.00    +0.000 A 
ATOM     34  C   UNL     1      -0.735  16.720  26.552  0.00  0.00    +0.000 A 
ATOM     35  C   UNL     1      -1.252  15.669  25.781  0.00  0.00    +0.000 A 
BRANCH  34  36
ATOM     36  C   UNL     1       0.504  16.489  27.340  0.00  0.00    +0.000 C 
ATOM     37  N   UNL     1       0.343  16.427  28.699  0.00  0.00    +0.000 N 
ATOM     38  O   UNL     1       1.611  16.435  26.823  0.00  0.00    +0.000 OA
ATOM     39  H   UNL     1      -0.519  16.712  29.143  0.00  0.00    +0.000 HD
ATOM     40  H   UNL     1       1.183  16.423  29.265  0.00  0.00    +0.000 HD
ENDBRANCH  34  36
ENDBRANCH  28  30
ENDBRANCH  23  28
TORSDOF 4
ENDMDL
MODEL 7
REMARK VINA RESULT:      -7.2      6.564      9.635
REMARK  Name = 
REMARK  5 active torsions:
REMARK  status: ('A' for Active; 'I' for Inactive)
REMARK    1  A    between atoms: C_1  and  C_2
REMARK    2  A    between atoms: C_2  and  C_3
REMARK    3  A    between atoms: C_25  and  N_26
REMARK    4  A    between atoms: N_26  and  C_27
REMARK    5  A    between atoms: C_31  and  C_32
REMARK                            x       y       z     vdW  Elec       q    Type
REMARK                         _______ _______ _______ _____ _____    ______ ____
ROOT
ATOM      1  C   UNL     1      -0.297  16.347  19.071  0.00  0.00    +0.000 A 
ATOM      2  C   UNL     1       1.114  16.396  19.006  0.00  0.00    +0.000 A 
ATOM      3  C   UNL     1       1.833  16.569  20.176  0.00  0.00    +0.000 A 
ATOM      4  C   UNL     1       1.096  16.975  21.307  0.00  0.00    +0.000 A 
ATOM      5  C   UNL     1      -0.301  16.788  21.344  0.00  0.00    +0.000 A 
ATOM      6  C   UNL     1      -0.918  16.050  20.313  0.00  0.00    +0.000 A 
ATOM      7  C   UNL     1      -1.141  14.575  20.900  0.00  0.00    +0.000 C 
ATOM      8  C   UNL     1      -2.118  13.353  20.768  0.00  0.00    +0.000 C 
ATOM      9  O   UNL     1      -3.263  13.419  19.914  0.00  0.00    +0.000 OA
ATOM     10  C   UNL     1      -3.445  12.251  19.210  0.00  0.00    +0.000 C 
ATOM     11  O   UNL     1      -4.199  11.345  19.557  0.00  0.00    +0.000 OA
ATOM     12  N   UNL     1      -2.709  12.308  18.046  0.00  0.00    +0.000 N 
ATOM     13  C   UNL     1      -1.386  11.795  18.159  0.00  0.00    +0.000 A 
ATOM     14  C   UNL     1      -1.177  10.461  18.508  0.00  0.00    +0.000 A 
ATOM     15  C   UNL     1       0.060  10.072  19.019  0.00  0.00    +0.000 A 
ATOM     16  C   UNL     1       1.068  11.013  19.221  0.00  0.00    +0.000 A 
ATOM     17  C   UNL     1       0.897  12.341  18.826  0.00  0.00    +0.000 A 
ATOM     18  C   UNL     1      -0.322  12.712  18.220  0.00  0.00    +0.000 A 
ATOM     19  C   UNL     1       1.995  13.339  19.104  0.00  0.00    +0.000 C 
ATOM     20  N   UNL     1       2.232  13.580  20.533  0.00  0.00    +0.000 N 
ATOM     21  C   UNL     1       2.880  14.628  21.162  0.00  0.00    +0.000 C 
ATOM     22  O   UNL     1       3.067  14.560  22.381  0.00  0.00    +0.000 OA
ATOM     23  C   UNL     1       3.217  15.945  20.353  0.00  0.00    +0.000 C 
ATOM     24  H   UNL     1      -2.684  13.288  17.798  0.00  0.00    +0.000 HD
ATOM     25  H   UNL     1       1.883  12.896  21.191  0.00  0.00    +0.000 HD
ENDROOT
BRANCH   1  27
ATOM     26  C   UNL     1       0.207  18.079  17.227  0.00  0.00    +0.000 C 
ATOM     27  C   UNL     1      -0.860  17.486  18.178  0.00  0.00    +0.000 C 
ENDBRANCH   1  27
BRANCH  23  28
ATOM     28  N   UNL     1       3.910  15.527  19.114  0.00  0.00    +0.000 N 
ATOM     29  H   UNL     1       3.669  14.558  18.900  0.00  0.00    +0.000 HD
BRANCH  28  30
ATOM     30  C   UNL     1       5.256  15.701  18.824  0.00  0.00    +0.000 A 
ATOM     31  C   UNL     1       5.918  16.928  18.841  0.00  0.00    +0.000 A 
ATOM     32  C   UNL     1       7.281  17.019  18.522  0.00  0.00    +0.000 A 
ATOM     33  C   UNL     1       7.988  15.894  18.117  0.00  0.00    +0.000 A 
ATOM     34  C   UNL     1       7.325  14.673  18.000  0.00  0.00    +0.000 A 
ATOM     35  C   UNL     1       5.980  14.576  18.386  0.00  0.00    +0.000 A 
BRANCH  34  36
ATOM     36  C   UNL     1       7.988  13.482  17.406  0.00  0.00    +0.000 C 
ATOM     37  N   UNL     1       9.357  13.515  17.376  0.00  0.00    +0.000 N 
ATOM     38  O   UNL     1       7.358  12.562  16.902  0.00  0.00    +0.000 OA
ATOM     39  H   UNL     1       9.870  14.365  17.563  0.00  0.00    +0.000 HD
ATOM     40  H   UNL     1       9.826  12.792  16.844  0.00  0.00    +0.000 HD
ENDBRANCH  34  36
ENDBRANCH  28  30
ENDBRANCH  23  28
TORSDOF 4
ENDMDL
MODEL 8
REMARK VINA RESULT:      -7.2      9.187     11.870
REMARK  Name = 
REMARK  5 active torsions:
REMARK  status: ('A' for Active; 'I' for Inactive)
REMARK    1  A    between atoms: C_1  and  C_2
REMARK    2  A    between atoms: C_2  and  C_3
REMARK    3  A    between atoms: C_25  and  N_26
REMARK    4  A    between atoms: N_26  and  C_27
REMARK    5  A    between atoms: C_31  and  C_32
REMARK                            x       y       z     vdW  Elec       q    Type
REMARK                         _______ _______ _______ _____ _____    ______ ____
ROOT
ATOM      1  C   UNL     1       0.114  11.665  19.364  0.00  0.00    +0.000 A 
ATOM      2  C   UNL     1      -1.235  11.878  19.731  0.00  0.00    +0.000 A 
ATOM      3  C   UNL     1      -1.605  11.707  21.054  0.00  0.00    +0.000 A 
ATOM      4  C   UNL     1      -0.673  11.050  21.882  0.00  0.00    +0.000 A 
ATOM      5  C   UNL     1       0.683  10.977  21.501  0.00  0.00    +0.000 A 
ATOM      6  C   UNL     1       1.114  11.704  20.372  0.00  0.00    +0.000 A 
ATOM      7  C   UNL     1       1.795  13.039  20.940  0.00  0.00    +0.000 C 
ATOM      8  C   UNL     1       2.922  14.072  20.582  0.00  0.00    +0.000 C 
ATOM      9  O   UNL     1       3.732  13.898  19.417  0.00  0.00    +0.000 OA
ATOM     10  C   UNL     1       3.939  15.086  18.754  0.00  0.00    +0.000 C 
ATOM     11  O   UNL     1       4.930  15.796  18.902  0.00  0.00    +0.000 OA
ATOM     12  N   UNL     1       2.903  15.293  17.870  0.00  0.00    +0.000 N 
ATOM     13  C   UNL     1       1.804  16.020  18.408  0.00  0.00    +0.000 A 
ATOM     14  C   UNL     1       1.983  17.322  18.874  0.00  0.00    +0.000 A 
ATOM     15  C   UNL     1       1.054  17.867  19.759  0.00  0.00    +0.000 A 
ATOM     16  C   UNL     1      -0.024  17.106  20.208  0.00  0.00    +0.000 A 
ATOM     17  C   UNL     1      -0.251  15.822  19.709  0.00  0.00    +0.000 A 
ATOM     18  C   UNL     1       0.638  15.308  18.742  0.00  0.00    +0.000 A 
ATOM     19  C   UNL     1      -1.403  15.013  20.256  0.00  0.00    +0.000 C 
ATOM     20  N   UNL     1      -1.261  14.659  21.675  0.00  0.00    +0.000 N 
ATOM     21  C   UNL     1      -1.901  13.680  22.414  0.00  0.00    +0.000 C 
ATOM     22  O   UNL     1      -1.709  13.644  23.634  0.00  0.00    +0.000 OA
ATOM     23  C   UNL     1      -2.720  12.545  21.677  0.00  0.00    +0.000 C 
ATOM     24  H   UNL     1       2.607  14.368  17.589  0.00  0.00    +0.000 HD
ATOM     25  H   UNL     1      -0.604  15.190  22.230  0.00  0.00    +0.000 HD
ENDROOT
BRANCH   1  27
ATOM     26  C   UNL     1       1.541   9.888  18.156  0.00  0.00    +0.000 C 
ATOM     27  C   UNL     1       0.149  10.551  18.283  0.00  0.00    +0.000 C 
ENDBRANCH   1  27
BRANCH  23  28
ATOM     28  N   UNL     1      -3.640  13.218  20.733  0.00  0.00    +0.000 N 
ATOM     29  H   UNL     1      -3.213  14.085  20.403  0.00  0.00    +0.000 HD
BRANCH  28  30
ATOM     30  C   UNL     1      -4.991  13.461  20.932  0.00  0.00    +0.000 A 
ATOM     31  C   UNL     1      -5.775  14.289  20.130  0.00  0.00    +0.000 A 
ATOM     32  C   UNL     1      -7.134  14.491  20.409  0.00  0.00    +0.000 A 
ATOM     33  C   UNL     1      -7.717  13.920  21.533  0.00  0.00    +0.000 A 
ATOM     34  C   UNL     1      -6.931  13.165  22.404  0.00  0.00    +0.000 A 
ATOM     35  C   UNL     1      -5.590  12.912  22.082  0.00  0.00    +0.000 A 
BRANCH  34  36
ATOM     36  C   UNL     1      -7.460  12.682  23.707  0.00  0.00    +0.000 C 
ATOM     37  N   UNL     1      -7.671  13.644  24.659  0.00  0.00    +0.000 N 
ATOM     38  O   UNL     1      -7.625  11.494  23.949  0.00  0.00    +0.000 OA
ATOM     39  H   UNL     1      -7.311  14.581  24.552  0.00  0.00    +0.000 HD
ATOM     40  H   UNL     1      -7.885  13.327  25.597  0.00  0.00    +0.000 HD
ENDBRANCH  34  36
ENDBRANCH  28  30
ENDBRANCH  23  28
TORSDOF 4
ENDMDL
MODEL 9
REMARK VINA RESULT:      -7.0      6.639      8.688
REMARK  Name = 
REMARK  5 active torsions:
REMARK  status: ('A' for Active; 'I' for Inactive)
REMARK    1  A    between atoms: C_1  and  C_2
REMARK    2  A    between atoms: C_2  and  C_3
REMARK    3  A    between atoms: C_25  and  N_26
REMARK    4  A    between atoms: N_26  and  C_27
REMARK    5  A    between atoms: C_31  and  C_32
REMARK                            x       y       z     vdW  Elec       q    Type
REMARK                         _______ _______ _______ _____ _____    ______ ____
ROOT
ATOM      1  C   UNL     1      -0.629  13.367  21.782  0.00  0.00    +0.000 A 
ATOM      2  C   UNL     1      -0.301  12.010  21.558  0.00  0.00    +0.000 A 
ATOM      3  C   UNL     1      -1.063  11.274  20.668  0.00  0.00    +0.000 A 
ATOM      4  C   UNL     1      -2.287  11.849  20.270  0.00  0.00    +0.000 A 
ATOM      5  C   UNL     1      -2.497  13.236  20.419  0.00  0.00    +0.000 A 
ATOM      6  C   UNL     1      -1.418  14.050  20.819  0.00  0.00    +0.000 A 
ATOM      7  C   UNL     1      -0.853  14.721  19.477  0.00  0.00    +0.000 C 
ATOM      8  C   UNL     1      -0.138  16.030  18.984  0.00  0.00    +0.000 C 
ATOM      9  O   UNL     1       0.146  17.096  19.892  0.00  0.00    +0.000 OA
ATOM     10  C   UNL     1       1.395  17.632  19.681  0.00  0.00    +0.000 C 
ATOM     11  O   UNL     1       1.612  18.630  18.999  0.00  0.00    +0.000 OA
ATOM     12  N   UNL     1       2.321  16.914  20.405  0.00  0.00    +0.000 N 
ATOM     13  C   UNL     1       2.896  15.815  19.705  0.00  0.00    +0.000 A 
ATOM     14  C   UNL     1       3.624  16.032  18.536  0.00  0.00    +0.000 A 
ATOM     15  C   UNL     1       3.820  14.977  17.646  0.00  0.00    +0.000 A 
ATOM     16  C   UNL     1       3.258  13.727  17.898  0.00  0.00    +0.000 A 
ATOM     17  C   UNL     1       2.574  13.477  19.089  0.00  0.00    +0.000 A 
ATOM     18  C   UNL     1       2.460  14.519  20.032  0.00  0.00    +0.000 A 
ATOM     19  C   UNL     1       1.941  12.123  19.303  0.00  0.00    +0.000 C 
ATOM     20  N   UNL     1       0.845  11.824  18.371  0.00  0.00    +0.000 N 
ATOM     21  C   UNL     1      -0.165  10.883  18.460  0.00  0.00    +0.000 C 
ATOM     22  O   UNL     1      -0.913  10.728  17.490  0.00  0.00    +0.000 OA
ATOM     23  C   UNL     1      -0.442  10.153  19.836  0.00  0.00    +0.000 C 
ATOM     24  H   UNL     1       1.820  16.585  21.220  0.00  0.00    +0.000 HD
ATOM     25  H   UNL     1       0.787  12.369  17.522  0.00  0.00    +0.000 HD
ENDROOT
BRANCH   1  27
ATOM     26  C   UNL     1      -2.024  14.608  23.563  0.00  0.00    +0.000 C 
ATOM     27  C   UNL     1      -0.929  13.547  23.295  0.00  0.00    +0.000 C 
ENDBRANCH   1  27
BRANCH  23  28
ATOM     28  N   UNL     1       0.855   9.623  20.314  0.00  0.00    +0.000 N 
ATOM     29  H   UNL     1       1.607  10.248  20.020  0.00  0.00    +0.000 HD
BRANCH  28  30
ATOM     30  C   UNL     1       1.311   8.320  20.180  0.00  0.00    +0.000 A 
ATOM     31  C   UNL     1       1.044   7.289  21.081  0.00  0.00    +0.000 A 
ATOM     32  C   UNL     1       1.557   6.000  20.878  0.00  0.00    +0.000 A 
ATOM     33  C   UNL     1       2.398   5.735  19.805  0.00  0.00    +0.000 A 
ATOM     34  C   UNL     1       2.757   6.771  18.944  0.00  0.00    +0.000 A 
ATOM     35  C   UNL     1       2.187   8.041  19.114  0.00  0.00    +0.000 A 
BRANCH  34  36
ATOM     36  C   UNL     1       3.789   6.584  17.889  0.00  0.00    +0.000 C 
ATOM     37  N   UNL     1       4.674   5.560  18.098  0.00  0.00    +0.000 N 
ATOM     38  O   UNL     1       3.895   7.339  16.933  0.00  0.00    +0.000 OA
ATOM     39  H   UNL     1       4.744   5.095  18.992  0.00  0.00    +0.000 HD
ATOM     40  H   UNL     1       5.473   5.506  17.477  0.00  0.00    +0.000 HD
ENDBRANCH  34  36
ENDBRANCH  28  30
ENDBRANCH  23  28
TORSDOF 4
ENDMDL
