MODEL 1
REMARK VINA RESULT:      -8.2      0.000      0.000
REMARK  Name = 
REMARK  3 active torsions:
REMARK  status: ('A' for Active; 'I' for Inactive)
REMARK    1  A    between atoms: C_2  and  C_3
REMARK    2  A    between atoms: C_4  and  C_5
REMARK    3  A    between atoms: N_20  and  O_21
REMARK                            x       y       z     vdW  Elec       q    Type
REMARK                         _______ _______ _______ _____ _____    ______ ____
ROOT
ATOM      1  C   UNL     1       6.056   4.291  15.875  0.00  0.00    +0.000 A 
ATOM      2  C   UNL     1       6.817   4.666  17.009  0.00  0.00    +0.000 A 
ATOM      3  C   UNL     1       6.229   4.786  18.276  0.00  0.00    +0.000 A 
ATOM      4  C   UNL     1       4.886   4.501  18.395  0.00  0.00    +0.000 A 
ATOM      5  C   UNL     1       4.151   4.131  17.292  0.00  0.00    +0.000 A 
ATOM      6  C   UNL     1       4.690   4.010  16.029  0.00  0.00    +0.000 A 
ATOM      7  C   UNL     1       2.829   3.836  17.780  0.00  0.00    +0.000 C 
ATOM      8  O   UNL     1       1.872   3.579  17.074  0.00  0.00    +0.000 OA
ATOM      9  C   UNL     1       2.922   3.852  19.293  0.00  0.00    +0.000 C 
ATOM     10  C   UNL     1       1.770   4.606  19.951  0.00  0.00    +0.000 C 
ATOM     11  C   UNL     1       1.864   4.504  21.474  0.00  0.00    +0.000 C 
ATOM     12  N   UNL     1       1.942   3.117  21.937  0.00  0.00    +0.000 NA
ATOM     13  C   UNL     1       3.081   2.417  21.342  0.00  0.00    +0.000 C 
ATOM     14  C   UNL     1       2.998   2.415  19.819  0.00  0.00    +0.000 C 
ATOM     15  O   UNL     1       4.192   4.518  19.576  0.00  0.00    +0.000 OA
ATOM     16  H   UNL     1       1.079   2.627  21.696  0.00  0.00    +0.000 HD
ENDROOT
BRANCH   1  18
ATOM     17  C   UNL     1       6.100   3.689  13.482  0.00  0.00    +0.000 C 
ATOM     18  C   UNL     1       6.730   4.143  14.575  0.00  0.00    +0.000 C 
BRANCH  17  20
ATOM     19  O   UNL     1       7.302   4.462  11.564  0.00  0.00    +0.000 OA
ATOM     20  C   UNL     1       6.812   3.531  12.193  0.00  0.00    +0.000 C 
ATOM     21  N   UNL     1       6.872   2.227  11.781  0.00  0.00    +0.000 N 
ATOM     22  H   UNL     1       6.500   1.428  12.281  0.00  0.00    +0.000 HD
BRANCH  21  23
ATOM     23  O   UNL     1       7.550   1.960  10.571  0.00  0.00    +0.000 OA
ATOM     24  H   UNL     1       6.926   1.348  10.121  0.00  0.00    +0.000 HD
ENDBRANCH  21  23
ENDBRANCH  17  20
ENDBRANCH   1  18
TORSDOF 3
ENDMDL
MODEL 2
REMARK VINA RESULT:      -7.6      4.044      8.545
REMARK  Name = 
REMARK  3 active torsions:
REMARK  status: ('A' for Active; 'I' for Inactive)
REMARK    1  A    between atoms: C_2  and  C_3
REMARK    2  A    between atoms: C_4  and  C_5
REMARK    3  A    between atoms: N_20  and  O_21
REMARK                            x       y       z     vdW  Elec       q    Type
REMARK                         _______ _______ _______ _____ _____    ______ ____
ROOT
ATOM      1  C   UNL     1       1.797   6.780  20.412  0.00  0.00    +0.000 A 
ATOM      2  C   UNL     1       2.051   5.442  20.801  0.00  0.00    +0.000 A 
ATOM      3  C   UNL     1       2.918   4.620  20.067  0.00  0.00    +0.000 A 
ATOM      4  C   UNL     1       3.542   5.162  18.964  0.00  0.00    +0.000 A 
ATOM      5  C   UNL     1       3.297   6.464  18.592  0.00  0.00    +0.000 A 
ATOM      6  C   UNL     1       2.446   7.301  19.283  0.00  0.00    +0.000 A 
ATOM      7  C   UNL     1       4.157   6.722  17.467  0.00  0.00    +0.000 C 
ATOM      8  O   UNL     1       4.139   7.740  16.801  0.00  0.00    +0.000 OA
ATOM      9  C   UNL     1       5.084   5.527  17.359  0.00  0.00    +0.000 C 
ATOM     10  C   UNL     1       5.244   5.028  15.926  0.00  0.00    +0.000 C 
ATOM     11  C   UNL     1       6.261   3.888  15.866  0.00  0.00    +0.000 C 
ATOM     12  N   UNL     1       7.548   4.257  16.461  0.00  0.00    +0.000 NA
ATOM     13  C   UNL     1       7.392   4.684  17.852  0.00  0.00    +0.000 C 
ATOM     14  C   UNL     1       6.446   5.875  17.965  0.00  0.00    +0.000 C 
ATOM     15  O   UNL     1       4.455   4.499  18.187  0.00  0.00    +0.000 OA
ATOM     16  H   UNL     1       7.971   5.012  15.920  0.00  0.00    +0.000 HD
ENDROOT
BRANCH   1  18
ATOM     17  C   UNL     1       1.278   8.808  21.721  0.00  0.00    +0.000 C 
ATOM     18  C   UNL     1       0.909   7.612  21.240  0.00  0.00    +0.000 C 
BRANCH  17  20
ATOM     19  O   UNL     1       0.395   9.609  23.794  0.00  0.00    +0.000 OA
ATOM     20  C   UNL     1       0.367   9.610  22.569  0.00  0.00    +0.000 C 
ATOM     21  N   UNL     1      -0.508  10.365  21.836  0.00  0.00    +0.000 N 
ATOM     22  H   UNL     1      -0.550  10.411  20.824  0.00  0.00    +0.000 HD
BRANCH  21  23
ATOM     23  O   UNL     1      -1.410  11.186  22.547  0.00  0.00    +0.000 OA
ATOM     24  H   UNL     1      -2.097  10.539  22.823  0.00  0.00    +0.000 HD
ENDBRANCH  21  23
ENDBRANCH  17  20
ENDBRANCH   1  18
TORSDOF 3
ENDMDL
MODEL 3
REMARK VINA RESULT:      -7.5      9.604     11.517
REMARK  Name = 
REMARK  3 active torsions:
REMARK  status: ('A' for Active; 'I' for Inactive)
REMARK    1  A    between atoms: C_2  and  C_3
REMARK    2  A    between atoms: C_4  and  C_5
REMARK    3  A    between atoms: N_20  and  O_21
REMARK                            x       y       z     vdW  Elec       q    Type
REMARK                         _______ _______ _______ _____ _____    ______ ____
ROOT
ATOM      1  C   UNL     1       9.452  10.470  19.128  0.00  0.00    +0.000 A 
ATOM      2  C   UNL     1       9.382  11.063  20.412  0.00  0.00    +0.000 A 
ATOM      3  C   UNL     1       9.870  12.356  20.648  0.00  0.00    +0.000 A 
ATOM      4  C   UNL     1      10.399  13.051  19.582  0.00  0.00    +0.000 A 
ATOM      5  C   UNL     1      10.460  12.474  18.334  0.00  0.00    +0.000 A 
ATOM      6  C   UNL     1       9.998  11.203  18.064  0.00  0.00    +0.000 A 
ATOM      7  C   UNL     1      10.986  13.486  17.456  0.00  0.00    +0.000 C 
ATOM      8  O   UNL     1      11.283  13.306  16.290  0.00  0.00    +0.000 OA
ATOM      9  C   UNL     1      11.014  14.772  18.260  0.00  0.00    +0.000 C 
ATOM     10  C   UNL     1      12.316  15.550  18.090  0.00  0.00    +0.000 C 
ATOM     11  C   UNL     1      12.247  16.878  18.844  0.00  0.00    +0.000 C 
ATOM     12  N   UNL     1      11.082  17.678  18.462  0.00  0.00    +0.000 NA
ATOM     13  C   UNL     1       9.835  16.943  18.678  0.00  0.00    +0.000 C 
ATOM     14  C   UNL     1       9.811  15.641  17.883  0.00  0.00    +0.000 C 
ATOM     15  O   UNL     1      10.859  14.339  19.649  0.00  0.00    +0.000 OA
ATOM     16  H   UNL     1      11.154  17.940  17.478  0.00  0.00    +0.000 HD
ENDROOT
BRANCH   1  18
ATOM     17  C   UNL     1       8.168   8.797  17.846  0.00  0.00    +0.000 C 
ATOM     18  C   UNL     1       8.891   9.125  18.927  0.00  0.00    +0.000 C 
BRANCH  17  20
ATOM     19  O   UNL     1       6.872   7.109  16.754  0.00  0.00    +0.000 OA
ATOM     20  C   UNL     1       7.599   7.440  17.684  0.00  0.00    +0.000 C 
ATOM     21  N   UNL     1       7.978   6.586  18.684  0.00  0.00    +0.000 N 
ATOM     22  H   UNL     1       8.592   6.813  19.458  0.00  0.00    +0.000 HD
BRANCH  21  23
ATOM     23  O   UNL     1       7.507   5.257  18.616  0.00  0.00    +0.000 OA
ATOM     24  H   UNL     1       8.323   4.766  18.372  0.00  0.00    +0.000 HD
ENDBRANCH  21  23
ENDBRANCH  17  20
ENDBRANCH   1  18
TORSDOF 3
ENDMDL
MODEL 4
REMARK VINA RESULT:      -7.5      4.711      7.303
REMARK  Name = 
REMARK  3 active torsions:
REMARK  status: ('A' for Active; 'I' for Inactive)
REMARK    1  A    between atoms: C_2  and  C_3
REMARK    2  A    between atoms: C_4  and  C_5
REMARK    3  A    between atoms: N_20  and  O_21
REMARK                            x       y       z     vdW  Elec       q    Type
REMARK                         _______ _______ _______ _____ _____    ______ ____
ROOT
ATOM      1  C   UNL     1       2.290   8.339  18.339  0.00  0.00    +0.000 A 
ATOM      2  C   UNL     1       3.386   8.059  17.487  0.00  0.00    +0.000 A 
ATOM      3  C   UNL     1       4.031   6.814  17.513  0.00  0.00    +0.000 A 
ATOM      4  C   UNL     1       3.549   5.854  18.376  0.00  0.00    +0.000 A 
ATOM      5  C   UNL     1       2.480   6.129  19.198  0.00  0.00    +0.000 A 
ATOM      6  C   UNL     1       1.825   7.342  19.208  0.00  0.00    +0.000 A 
ATOM      7  C   UNL     1       2.196   4.903  19.897  0.00  0.00    +0.000 C 
ATOM      8  O   UNL     1       1.380   4.790  20.793  0.00  0.00    +0.000 OA
ATOM      9  C   UNL     1       3.050   3.834  19.244  0.00  0.00    +0.000 C 
ATOM     10  C   UNL     1       3.743   2.927  20.256  0.00  0.00    +0.000 C 
ATOM     11  C   UNL     1       4.509   1.813  19.541  0.00  0.00    +0.000 C 
ATOM     12  N   UNL     1       3.658   1.053  18.623  0.00  0.00    +0.000 NA
ATOM     13  C   UNL     1       3.039   1.923  17.622  0.00  0.00    +0.000 C 
ATOM     14  C   UNL     1       2.193   3.010  18.277  0.00  0.00    +0.000 C 
ATOM     15  O   UNL     1       4.040   4.579  18.467  0.00  0.00    +0.000 OA
ATOM     16  H   UNL     1       2.929   0.571  19.150  0.00  0.00    +0.000 HD
ENDROOT
BRANCH   1  18
ATOM     17  C   UNL     1       0.575   9.983  19.009  0.00  0.00    +0.000 C 
ATOM     18  C   UNL     1       1.625   9.649  18.246  0.00  0.00    +0.000 C 
BRANCH  17  20
ATOM     19  O   UNL     1      -0.024  12.186  19.721  0.00  0.00    +0.000 OA
ATOM     20  C   UNL     1      -0.086  11.301  18.876  0.00  0.00    +0.000 C 
ATOM     21  N   UNL     1      -0.771  11.430  17.697  0.00  0.00    +0.000 N 
ATOM     22  H   UNL     1      -0.829  10.733  16.965  0.00  0.00    +0.000 HD
BRANCH  21  23
ATOM     23  O   UNL     1      -1.422  12.659  17.458  0.00  0.00    +0.000 OA
ATOM     24  H   UNL     1      -0.962  13.258  18.087  0.00  0.00    +0.000 HD
ENDBRANCH  21  23
ENDBRANCH  17  20
ENDBRANCH   1  18
TORSDOF 3
ENDMDL
MODEL 5
REMARK VINA RESULT:      -7.3      1.876      2.211
REMARK  Name = 
REMARK  3 active torsions:
REMARK  status: ('A' for Active; 'I' for Inactive)
REMARK    1  A    between atoms: C_2  and  C_3
REMARK    2  A    between atoms: C_4  and  C_5
REMARK    3  A    between atoms: N_20  and  O_21
REMARK                            x       y       z     vdW  Elec       q    Type
REMARK                         _______ _______ _______ _____ _____    ______ ____
ROOT
ATOM      1  C   UNL     1       5.163   5.248  16.159  0.00  0.00    +0.000 A 
ATOM      2  C   UNL     1       4.573   6.350  16.825  0.00  0.00    +0.000 A 
ATOM      3  C   UNL     1       3.576   6.169  17.794  0.00  0.00    +0.000 A 
ATOM      4  C   UNL     1       3.202   4.879  18.103  0.00  0.00    +0.000 A 
ATOM      5  C   UNL     1       3.782   3.811  17.458  0.00  0.00    +0.000 A 
ATOM      6  C   UNL     1       4.759   3.948  16.494  0.00  0.00    +0.000 A 
ATOM      7  C   UNL     1       3.226   2.632  18.068  0.00  0.00    +0.000 C 
ATOM      8  O   UNL     1       3.422   1.494  17.684  0.00  0.00    +0.000 OA
ATOM      9  C   UNL     1       2.441   3.109  19.275  0.00  0.00    +0.000 C 
ATOM     10  C   UNL     1       1.075   2.441  19.397  0.00  0.00    +0.000 C 
ATOM     11  C   UNL     1       0.374   2.887  20.681  0.00  0.00    +0.000 C 
ATOM     12  N   UNL     1       1.196   2.665  21.872  0.00  0.00    +0.000 NA
ATOM     13  C   UNL     1       2.483   3.354  21.769  0.00  0.00    +0.000 C 
ATOM     14  C   UNL     1       3.267   2.887  20.546  0.00  0.00    +0.000 C 
ATOM     15  O   UNL     1       2.287   4.548  19.067  0.00  0.00    +0.000 OA
ATOM     16  H   UNL     1       1.355   1.665  21.997  0.00  0.00    +0.000 HD
ENDROOT
BRANCH   1  18
ATOM     17  C   UNL     1       6.415   4.715  14.099  0.00  0.00    +0.000 C 
ATOM     18  C   UNL     1       6.232   5.492  15.177  0.00  0.00    +0.000 C 
BRANCH  17  20
ATOM     19  O   UNL     1       7.545   4.529  12.000  0.00  0.00    +0.000 OA
ATOM     20  C   UNL     1       7.514   4.974  13.142  0.00  0.00    +0.000 C 
ATOM     21  N   UNL     1       8.493   5.773  13.667  0.00  0.00    +0.000 N 
ATOM     22  H   UNL     1       8.495   6.178  14.596  0.00  0.00    +0.000 HD
BRANCH  21  23
ATOM     23  O   UNL     1       9.581   6.101  12.829  0.00  0.00    +0.000 OA
ATOM     24  H   UNL     1       9.511   5.414  12.129  0.00  0.00    +0.000 HD
ENDBRANCH  21  23
ENDBRANCH  17  20
ENDBRANCH   1  18
TORSDOF 3
ENDMDL
MODEL 6
REMARK VINA RESULT:      -7.3      5.762      7.783
REMARK  Name = 
REMARK  3 active torsions:
REMARK  status: ('A' for Active; 'I' for Inactive)
REMARK    1  A    between atoms: C_2  and  C_3
REMARK    2  A    between atoms: C_4  and  C_5
REMARK    3  A    between atoms: N_20  and  O_21
REMARK                            x       y       z     vdW  Elec       q    Type
REMARK                         _______ _______ _______ _____ _____    ______ ____
ROOT
ATOM      1  C   UNL     1       2.523   7.089  19.322  0.00  0.00    +0.000 A 
ATOM      2  C   UNL     1       2.545   7.705  18.048  0.00  0.00    +0.000 A 
ATOM      3  C   UNL     1       1.845   8.894  17.799  0.00  0.00    +0.000 A 
ATOM      4  C   UNL     1       1.152   9.467  18.844  0.00  0.00    +0.000 A 
ATOM      5  C   UNL     1       1.138   8.868  20.083  0.00  0.00    +0.000 A 
ATOM      6  C   UNL     1       1.806   7.694  20.364  0.00  0.00    +0.000 A 
ATOM      7  C   UNL     1       0.400   9.756  20.942  0.00  0.00    +0.000 C 
ATOM      8  O   UNL     1       0.087   9.507  22.091  0.00  0.00    +0.000 OA
ATOM      9  C   UNL     1       0.179  11.029  20.147  0.00  0.00    +0.000 C 
ATOM     10  C   UNL     1      -1.247  11.559  20.260  0.00  0.00    +0.000 C 
ATOM     11  C   UNL     1      -1.382  12.891  19.521  0.00  0.00    +0.000 C 
ATOM     12  N   UNL     1      -0.397  13.879  19.965  0.00  0.00    +0.000 NA
ATOM     13  C   UNL     1       0.970  13.382  19.803  0.00  0.00    +0.000 C 
ATOM     14  C   UNL     1       1.189  12.092  20.588  0.00  0.00    +0.000 C 
ATOM     15  O   UNL     1       0.473  10.653  18.765  0.00  0.00    +0.000 OA
ATOM     16  H   UNL     1      -0.560  14.108  20.947  0.00  0.00    +0.000 HD
ENDROOT
BRANCH   1  18
ATOM     17  C   UNL     1       4.419   5.582  18.847  0.00  0.00    +0.000 C 
ATOM     18  C   UNL     1       3.306   5.861  19.540  0.00  0.00    +0.000 C 
BRANCH  17  20
ATOM     19  O   UNL     1       6.384   4.219  18.924  0.00  0.00    +0.000 OA
ATOM     20  C   UNL     1       5.172   4.327  19.075  0.00  0.00    +0.000 C 
ATOM     21  N   UNL     1       4.369   3.296  19.483  0.00  0.00    +0.000 N 
ATOM     22  H   UNL     1       3.369   3.349  19.640  0.00  0.00    +0.000 HD
BRANCH  21  23
ATOM     23  O   UNL     1       4.989   2.057  19.749  0.00  0.00    +0.000 OA
ATOM     24  H   UNL     1       5.888   2.337  20.031  0.00  0.00    +0.000 HD
ENDBRANCH  21  23
ENDBRANCH  17  20
ENDBRANCH   1  18
TORSDOF 3
ENDMDL
MODEL 7
REMARK VINA RESULT:      -7.3      5.070      7.268
REMARK  Name = 
REMARK  3 active torsions:
REMARK  status: ('A' for Active; 'I' for Inactive)
REMARK    1  A    between atoms: C_2  and  C_3
REMARK    2  A    between atoms: C_4  and  C_5
REMARK    3  A    between atoms: N_20  and  O_21
REMARK                            x       y       z     vdW  Elec       q    Type
REMARK                         _______ _______ _______ _____ _____    ______ ____
ROOT
ATOM      1  C   UNL     1       2.584   5.994  19.475  0.00  0.00    +0.000 A 
ATOM      2  C   UNL     1       1.865   6.152  20.685  0.00  0.00    +0.000 A 
ATOM      3  C   UNL     1       1.248   7.368  21.014  0.00  0.00    +0.000 A 
ATOM      4  C   UNL     1       1.336   8.403  20.109  0.00  0.00    +0.000 A 
ATOM      5  C   UNL     1       2.030   8.243  18.931  0.00  0.00    +0.000 A 
ATOM      6  C   UNL     1       2.658   7.067  18.576  0.00  0.00    +0.000 A 
ATOM      7  C   UNL     1       1.857   9.471  18.201  0.00  0.00    +0.000 C 
ATOM      8  O   UNL     1       2.419   9.741  17.156  0.00  0.00    +0.000 OA
ATOM      9  C   UNL     1       0.816  10.273  18.959  0.00  0.00    +0.000 C 
ATOM     10  C   UNL     1       1.198  11.741  19.118  0.00  0.00    +0.000 C 
ATOM     11  C   UNL     1       0.071  12.516  19.802  0.00  0.00    +0.000 C 
ATOM     12  N   UNL     1      -1.212  12.359  19.114  0.00  0.00    +0.000 NA
ATOM     13  C   UNL     1      -1.596  10.950  19.013  0.00  0.00    +0.000 C 
ATOM     14  C   UNL     1      -0.542  10.139  18.265  0.00  0.00    +0.000 C 
ATOM     15  O   UNL     1       0.736   9.624  20.267  0.00  0.00    +0.000 OA
ATOM     16  H   UNL     1      -1.150  12.761  18.178  0.00  0.00    +0.000 HD
ENDROOT
BRANCH   1  18
ATOM     17  C   UNL     1       3.450   3.769  20.103  0.00  0.00    +0.000 C 
ATOM     18  C   UNL     1       3.181   4.686  19.161  0.00  0.00    +0.000 C 
BRANCH  17  20
ATOM     19  O   UNL     1       4.982   1.956  20.396  0.00  0.00    +0.000 OA
ATOM     20  C   UNL     1       4.071   2.471  19.757  0.00  0.00    +0.000 C 
ATOM     21  N   UNL     1       3.513   1.898  18.645  0.00  0.00    +0.000 N 
ATOM     22  H   UNL     1       2.748   2.280  18.102  0.00  0.00    +0.000 HD
BRANCH  21  23
ATOM     23  O   UNL     1       4.019   0.645  18.238  0.00  0.00    +0.000 OA
ATOM     24  H   UNL     1       3.339   0.353  17.591  0.00  0.00    +0.000 HD
ENDBRANCH  21  23
ENDBRANCH  17  20
ENDBRANCH   1  18
TORSDOF 3
ENDMDL
MODEL 8
REMARK VINA RESULT:      -7.3      3.834      8.458
REMARK  Name = 
REMARK  3 active torsions:
REMARK  status: ('A' for Active; 'I' for Inactive)
REMARK    1  A    between atoms: C_2  and  C_3
REMARK    2  A    between atoms: C_4  and  C_5
REMARK    3  A    between atoms: N_20  and  O_21
REMARK                            x       y       z     vdW  Elec       q    Type
REMARK                         _______ _______ _______ _____ _____    ______ ____
ROOT
ATOM      1  C   UNL     1       2.417   7.202  19.554  0.00  0.00    +0.000 A 
ATOM      2  C   UNL     1       2.477   8.023  18.402  0.00  0.00    +0.000 A 
ATOM      3  C   UNL     1       3.384   7.761  17.364  0.00  0.00    +0.000 A 
ATOM      4  C   UNL     1       4.202   6.659  17.484  0.00  0.00    +0.000 A 
ATOM      5  C   UNL     1       4.137   5.860  18.603  0.00  0.00    +0.000 A 
ATOM      6  C   UNL     1       3.266   6.089  19.647  0.00  0.00    +0.000 A 
ATOM      7  C   UNL     1       5.054   4.776  18.368  0.00  0.00    +0.000 C 
ATOM      8  O   UNL     1       5.347   3.926  19.188  0.00  0.00    +0.000 OA
ATOM      9  C   UNL     1       5.491   4.896  16.921  0.00  0.00    +0.000 C 
ATOM     10  C   UNL     1       6.995   4.713  16.737  0.00  0.00    +0.000 C 
ATOM     11  C   UNL     1       7.361   4.747  15.253  0.00  0.00    +0.000 C 
ATOM     12  N   UNL     1       6.595   3.778  14.467  0.00  0.00    +0.000 NA
ATOM     13  C   UNL     1       5.154   3.995  14.607  0.00  0.00    +0.000 C 
ATOM     14  C   UNL     1       4.715   3.891  16.064  0.00  0.00    +0.000 C 
ATOM     15  O   UNL     1       5.092   6.247  16.528  0.00  0.00    +0.000 OA
ATOM     16  H   UNL     1       6.826   2.831  14.771  0.00  0.00    +0.000 HD
ENDROOT
BRANCH   1  18
ATOM     17  C   UNL     1       0.965   8.739  20.827  0.00  0.00    +0.000 C 
ATOM     18  C   UNL     1       1.422   7.500  20.596  0.00  0.00    +0.000 C 
BRANCH  17  20
ATOM     19  O   UNL     1      -0.828   8.182  22.308  0.00  0.00    +0.000 OA
ATOM     20  C   UNL     1      -0.021   9.008  21.898  0.00  0.00    +0.000 C 
ATOM     21  N   UNL     1       0.070  10.282  22.391  0.00  0.00    +0.000 N 
ATOM     22  H   UNL     1       0.736  10.987  22.095  0.00  0.00    +0.000 HD
BRANCH  21  23
ATOM     23  O   UNL     1      -0.812  10.639  23.433  0.00  0.00    +0.000 OA
ATOM     24  H   UNL     1      -0.378  10.230  24.214  0.00  0.00    +0.000 HD
ENDBRANCH  21  23
ENDBRANCH  17  20
ENDBRANCH   1  18
TORSDOF 3
ENDMDL
MODEL 9
REMARK VINA RESULT:      -7.2      5.488      7.646
REMARK  Name = 
REMARK  3 active torsions:
REMARK  status: ('A' for Active; 'I' for Inactive)
REMARK    1  A    between atoms: C_2  and  C_3
REMARK    2  A    between atoms: C_4  and  C_5
REMARK    3  A    between atoms: N_20  and  O_21
REMARK                            x       y       z     vdW  Elec       q    Type
REMARK                         _______ _______ _______ _____ _____    ______ ____
ROOT
ATOM      1  C   UNL     1       2.336   6.745  19.929  0.00  0.00    +0.000 A 
ATOM      2  C   UNL     1       1.475   6.920  21.040  0.00  0.00    +0.000 A 
ATOM      3  C   UNL     1       0.704   8.081  21.191  0.00  0.00    +0.000 A 
ATOM      4  C   UNL     1       0.786   9.044  20.208  0.00  0.00    +0.000 A 
ATOM      5  C   UNL     1       1.620   8.868  19.127  0.00  0.00    +0.000 A 
ATOM      6  C   UNL     1       2.399   7.745  18.947  0.00  0.00    +0.000 A 
ATOM      7  C   UNL     1       1.404  10.006  18.273  0.00  0.00    +0.000 C 
ATOM      8  O   UNL     1       2.048  10.252  17.270  0.00  0.00    +0.000 OA
ATOM      9  C   UNL     1       0.209  10.745  18.845  0.00  0.00    +0.000 C 
ATOM     10  C   UNL     1       0.420  12.256  18.907  0.00  0.00    +0.000 C 
ATOM     11  C   UNL     1      -0.850  12.953  19.399  0.00  0.00    +0.000 C 
ATOM     12  N   UNL     1      -2.025  12.599  18.601  0.00  0.00    +0.000 NA
ATOM     13  C   UNL     1      -2.250  11.153  18.591  0.00  0.00    +0.000 C 
ATOM     14  C   UNL     1      -1.043  10.406  18.032  0.00  0.00    +0.000 C 
ATOM     15  O   UNL     1       0.051  10.199  20.192  0.00  0.00    +0.000 OA
ATOM     16  H   UNL     1      -1.902  12.929  17.642  0.00  0.00    +0.000 HD
ENDROOT
BRANCH   1  18
ATOM     17  C   UNL     1       4.344   5.448  19.313  0.00  0.00    +0.000 C 
ATOM     18  C   UNL     1       3.095   5.491  19.799  0.00  0.00    +0.000 C 
BRANCH  17  20
ATOM     19  O   UNL     1       6.186   4.064  18.674  0.00  0.00    +0.000 OA
ATOM     20  C   UNL     1       5.072   4.167  19.175  0.00  0.00    +0.000 C 
ATOM     21  N   UNL     1       4.369   3.104  19.675  0.00  0.00    +0.000 N 
ATOM     22  H   UNL     1       3.458   3.149  20.115  0.00  0.00    +0.000 HD
BRANCH  21  23
ATOM     23  O   UNL     1       4.982   1.834  19.613  0.00  0.00    +0.000 OA
ATOM     24  H   UNL     1       4.568   1.449  18.809  0.00  0.00    +0.000 HD
ENDBRANCH  21  23
ENDBRANCH  17  20
ENDBRANCH   1  18
TORSDOF 3
ENDMDL
