MODEL 1
REMARK VINA RESULT:      -7.5      0.000      0.000
REMARK  Name = 
REMARK  3 active torsions:
REMARK  status: ('A' for Active; 'I' for Inactive)
REMARK    1  A    between atoms: C_2  and  C_13
REMARK    2  A    between atoms: N_3  and  N_4
REMARK    3  A    between atoms: N_4  and  C_5
REMARK                            x       y       z     vdW  Elec       q    Type
REMARK                         _______ _______ _______ _____ _____    ______ ____
ROOT
ATOM      1  O   UNL     1       4.534   5.010  16.417  0.00  0.00    +0.000 OA
ATOM      2  C   UNL     1       5.243   4.851  17.404  0.00  0.00    +0.000 C 
ATOM      3  N   UNL     1       5.128   3.794  18.287  0.00  0.00    +0.000 N 
ATOM      4  H   UNL     1       5.486   3.884  19.235  0.00  0.00    +0.000 HD
ENDROOT
BRANCH   2   5
ATOM      5  C   UNL     1       6.318   5.822  17.754  0.00  0.00    +0.000 A 
ATOM      6  C   UNL     1       7.204   5.531  18.796  0.00  0.00    +0.000 A 
ATOM      7  C   UNL     1       8.209   6.443  19.131  0.00  0.00    +0.000 A 
ATOM      8  C   UNL     1       8.322   7.649  18.434  0.00  0.00    +0.000 A 
ATOM      9  C   UNL     1       7.434   7.948  17.402  0.00  0.00    +0.000 A 
ATOM     10  C   UNL     1       6.432   7.039  17.062  0.00  0.00    +0.000 A 
ENDBRANCH   2   5
BRANCH   3  11
ATOM     11  N   UNL     1       4.089   2.872  18.123  0.00  0.00    +0.000 N 
ATOM     12  H   UNL     1       4.464   1.927  17.949  0.00  0.00    +0.000 HD
BRANCH  11  13
ATOM     13  C   UNL     1       3.147   2.861  19.200  0.00  0.00    +0.000 A 
ATOM     14  C   UNL     1       3.417   2.359  20.497  0.00  0.00    +0.000 A 
ATOM     15 CL   UNL     1       4.926   1.627  20.953  0.00  0.00    +0.000 Cl
ATOM     16  C   UNL     1       2.471   2.457  21.530  0.00  0.00    +0.000 A 
ATOM     17  C   UNL     1       1.253   3.093  21.315  0.00  0.00    +0.000 A 
ATOM     18  C   UNL     1       0.976   3.637  20.066  0.00  0.00    +0.000 A 
ATOM     19  C   UNL     1       1.911   3.529  19.028  0.00  0.00    +0.000 A 
ATOM     20 CL   UNL     1       1.491   4.239  17.505  0.00  0.00    +0.000 Cl
ENDBRANCH  11  13
ENDBRANCH   3  11
TORSDOF 3
ENDMDL
MODEL 2
REMARK VINA RESULT:      -7.4      0.131      2.448
REMARK  Name = 
REMARK  3 active torsions:
REMARK  status: ('A' for Active; 'I' for Inactive)
REMARK    1  A    between atoms: C_2  and  C_13
REMARK    2  A    between atoms: N_3  and  N_4
REMARK    3  A    between atoms: N_4  and  C_5
REMARK                            x       y       z     vdW  Elec       q    Type
REMARK                         _______ _______ _______ _____ _____    ______ ____
ROOT
ATOM      1  O   UNL     1       4.472   5.075  16.633  0.00  0.00    +0.000 OA
ATOM      2  C   UNL     1       5.262   4.905  17.555  0.00  0.00    +0.000 C 
ATOM      3  N   UNL     1       5.246   3.819  18.409  0.00  0.00    +0.000 N 
ATOM      4  H   UNL     1       5.676   3.889  19.328  0.00  0.00    +0.000 HD
ENDROOT
BRANCH   2   5
ATOM      5  C   UNL     1       6.334   5.897  17.852  0.00  0.00    +0.000 A 
ATOM      6  C   UNL     1       6.421   7.072  17.099  0.00  0.00    +0.000 A 
ATOM      7  C   UNL     1       7.429   8.002  17.372  0.00  0.00    +0.000 A 
ATOM      8  C   UNL     1       8.355   7.752  18.387  0.00  0.00    +0.000 A 
ATOM      9  C   UNL     1       8.279   6.577  19.133  0.00  0.00    +0.000 A 
ATOM     10  C   UNL     1       7.273   5.649  18.866  0.00  0.00    +0.000 A 
ENDBRANCH   2   5
BRANCH   3  11
ATOM     11  N   UNL     1       4.223   2.872  18.297  0.00  0.00    +0.000 N 
ATOM     12  H   UNL     1       4.610   1.916  18.283  0.00  0.00    +0.000 HD
BRANCH  11  13
ATOM     13  C   UNL     1       3.202   2.999  19.292  0.00  0.00    +0.000 A 
ATOM     14  C   UNL     1       1.918   3.551  19.059  0.00  0.00    +0.000 A 
ATOM     15 CL   UNL     1       1.415   4.213  17.533  0.00  0.00    +0.000 Cl
ATOM     16  C   UNL     1       0.937   3.567  20.064  0.00  0.00    +0.000 A 
ATOM     17  C   UNL     1       1.188   2.997  21.307  0.00  0.00    +0.000 A 
ATOM     18  C   UNL     1       2.422   2.405  21.552  0.00  0.00    +0.000 A 
ATOM     19  C   UNL     1       3.410   2.400  20.558  0.00  0.00    +0.000 A 
ATOM     20 CL   UNL     1       4.918   1.637  20.941  0.00  0.00    +0.000 Cl
ENDBRANCH  11  13
ENDBRANCH   3  11
TORSDOF 3
ENDMDL
MODEL 3
REMARK VINA RESULT:      -7.4      3.166      4.246
REMARK  Name = 
REMARK  3 active torsions:
REMARK  status: ('A' for Active; 'I' for Inactive)
REMARK    1  A    between atoms: C_2  and  C_13
REMARK    2  A    between atoms: N_3  and  N_4
REMARK    3  A    between atoms: N_4  and  C_5
REMARK                            x       y       z     vdW  Elec       q    Type
REMARK                         _______ _______ _______ _____ _____    ______ ____
ROOT
ATOM      1  O   UNL     1       7.408   5.128  16.690  0.00  0.00    +0.000 OA
ATOM      2  C   UNL     1       6.658   4.477  15.971  0.00  0.00    +0.000 C 
ATOM      3  N   UNL     1       5.604   3.710  16.430  0.00  0.00    +0.000 N 
ATOM      4  H   UNL     1       5.244   2.948  15.861  0.00  0.00    +0.000 HD
ENDROOT
BRANCH   2   5
ATOM      5  C   UNL     1       6.833   4.446  14.491  0.00  0.00    +0.000 A 
ATOM      6  C   UNL     1       7.714   5.342  13.878  0.00  0.00    +0.000 A 
ATOM      7  C   UNL     1       7.876   5.319  12.489  0.00  0.00    +0.000 A 
ATOM      8  C   UNL     1       7.151   4.410  11.714  0.00  0.00    +0.000 A 
ATOM      9  C   UNL     1       6.264   3.522  12.321  0.00  0.00    +0.000 A 
ATOM     10  C   UNL     1       6.102   3.540  13.706  0.00  0.00    +0.000 A 
ENDBRANCH   2   5
BRANCH   3  11
ATOM     11  N   UNL     1       5.402   3.576  17.808  0.00  0.00    +0.000 N 
ATOM     12  H   UNL     1       6.043   4.192  18.332  0.00  0.00    +0.000 HD
BRANCH  11  13
ATOM     13  C   UNL     1       4.046   3.777  18.219  0.00  0.00    +0.000 A 
ATOM     14  C   UNL     1       3.384   5.029  18.217  0.00  0.00    +0.000 A 
ATOM     15 CL   UNL     1       4.149   6.524  17.766  0.00  0.00    +0.000 Cl
ATOM     16  C   UNL     1       2.025   5.137  18.554  0.00  0.00    +0.000 A 
ATOM     17  C   UNL     1       1.279   4.003  18.857  0.00  0.00    +0.000 A 
ATOM     18  C   UNL     1       1.888   2.754  18.823  0.00  0.00    +0.000 A 
ATOM     19  C   UNL     1       3.247   2.643  18.501  0.00  0.00    +0.000 A 
ATOM     20 CL   UNL     1       3.928   1.049  18.475  0.00  0.00    +0.000 Cl
ENDBRANCH  11  13
ENDBRANCH   3  11
TORSDOF 3
ENDMDL
MODEL 4
REMARK VINA RESULT:      -7.4      3.192      4.244
REMARK  Name = 
REMARK  3 active torsions:
REMARK  status: ('A' for Active; 'I' for Inactive)
REMARK    1  A    between atoms: C_2  and  C_13
REMARK    2  A    between atoms: N_3  and  N_4
REMARK    3  A    between atoms: N_4  and  C_5
REMARK                            x       y       z     vdW  Elec       q    Type
REMARK                         _______ _______ _______ _____ _____    ______ ____
ROOT
ATOM      1  O   UNL     1       7.354   5.184  16.634  0.00  0.00    +0.000 OA
ATOM      2  C   UNL     1       6.634   4.497  15.918  0.00  0.00    +0.000 C 
ATOM      3  N   UNL     1       5.613   3.688  16.381  0.00  0.00    +0.000 N 
ATOM      4  H   UNL     1       5.288   2.908  15.815  0.00  0.00    +0.000 HD
ENDROOT
BRANCH   2   5
ATOM      5  C   UNL     1       6.812   4.465  14.439  0.00  0.00    +0.000 A 
ATOM      6  C   UNL     1       6.095   3.540  13.673  0.00  0.00    +0.000 A 
ATOM      7  C   UNL     1       6.265   3.504  12.286  0.00  0.00    +0.000 A 
ATOM      8  C   UNL     1       7.157   4.383  11.666  0.00  0.00    +0.000 A 
ATOM      9  C   UNL     1       7.882   5.298  12.427  0.00  0.00    +0.000 A 
ATOM     10  C   UNL     1       7.713   5.340  13.811  0.00  0.00    +0.000 A 
ENDBRANCH   2   5
BRANCH   3  11
ATOM     11  N   UNL     1       5.415   3.553  17.759  0.00  0.00    +0.000 N 
ATOM     12  H   UNL     1       6.066   4.159  18.282  0.00  0.00    +0.000 HD
BRANCH  11  13
ATOM     13  C   UNL     1       4.064   3.772  18.176  0.00  0.00    +0.000 A 
ATOM     14  C   UNL     1       3.415   5.031  18.168  0.00  0.00    +0.000 A 
ATOM     15 CL   UNL     1       4.193   6.514  17.702  0.00  0.00    +0.000 Cl
ATOM     16  C   UNL     1       2.059   5.156  18.512  0.00  0.00    +0.000 A 
ATOM     17  C   UNL     1       1.303   4.033  18.827  0.00  0.00    +0.000 A 
ATOM     18  C   UNL     1       1.898   2.777  18.799  0.00  0.00    +0.000 A 
ATOM     19  C   UNL     1       3.255   2.649  18.471  0.00  0.00    +0.000 A 
ATOM     20 CL   UNL     1       3.918   1.048  18.452  0.00  0.00    +0.000 Cl
ENDBRANCH  11  13
ENDBRANCH   3  11
TORSDOF 3
ENDMDL
MODEL 5
REMARK VINA RESULT:      -7.4      0.294      1.179
REMARK  Name = 
REMARK  3 active torsions:
REMARK  status: ('A' for Active; 'I' for Inactive)
REMARK    1  A    between atoms: C_2  and  C_13
REMARK    2  A    between atoms: N_3  and  N_4
REMARK    3  A    between atoms: N_4  and  C_5
REMARK                            x       y       z     vdW  Elec       q    Type
REMARK                         _______ _______ _______ _____ _____    ______ ____
ROOT
ATOM      1  O   UNL     1       3.934   5.394  17.012  0.00  0.00    +0.000 OA
ATOM      2  C   UNL     1       4.905   4.974  17.632  0.00  0.00    +0.000 C 
ATOM      3  N   UNL     1       5.018   3.690  18.131  0.00  0.00    +0.000 N 
ATOM      4  H   UNL     1       5.653   3.500  18.902  0.00  0.00    +0.000 HD
ENDROOT
BRANCH   2   5
ATOM      5  C   UNL     1       6.079   5.845  17.921  0.00  0.00    +0.000 A 
ATOM      6  C   UNL     1       6.280   7.010  17.173  0.00  0.00    +0.000 A 
ATOM      7  C   UNL     1       7.384   7.825  17.439  0.00  0.00    +0.000 A 
ATOM      8  C   UNL     1       8.291   7.472  18.442  0.00  0.00    +0.000 A 
ATOM      9  C   UNL     1       8.100   6.307  19.181  0.00  0.00    +0.000 A 
ATOM     10  C   UNL     1       6.998   5.492  18.922  0.00  0.00    +0.000 A 
ENDBRANCH   2   5
BRANCH   3  11
ATOM     11  N   UNL     1       3.936   2.811  18.014  0.00  0.00    +0.000 N 
ATOM     12  H   UNL     1       4.264   1.856  17.803  0.00  0.00    +0.000 HD
BRANCH  11  13
ATOM     13  C   UNL     1       3.060   2.814  19.146  0.00  0.00    +0.000 A 
ATOM     14  C   UNL     1       3.421   2.372  20.442  0.00  0.00    +0.000 A 
ATOM     15 CL   UNL     1       4.976   1.703  20.834  0.00  0.00    +0.000 Cl
ATOM     16  C   UNL     1       2.534   2.483  21.525  0.00  0.00    +0.000 A 
ATOM     17  C   UNL     1       1.286   3.074  21.360  0.00  0.00    +0.000 A 
ATOM     18  C   UNL     1       0.919   3.560  20.110  0.00  0.00    +0.000 A 
ATOM     19  C   UNL     1       1.795   3.439  19.023  0.00  0.00    +0.000 A 
ATOM     20 CL   UNL     1       1.264   4.075  17.501  0.00  0.00    +0.000 Cl
ENDBRANCH  11  13
ENDBRANCH   3  11
TORSDOF 3
ENDMDL
MODEL 6
REMARK VINA RESULT:      -7.3      1.863      6.446
REMARK  Name = 
REMARK  3 active torsions:
REMARK  status: ('A' for Active; 'I' for Inactive)
REMARK    1  A    between atoms: C_2  and  C_13
REMARK    2  A    between atoms: N_3  and  N_4
REMARK    3  A    between atoms: N_4  and  C_5
REMARK                            x       y       z     vdW  Elec       q    Type
REMARK                         _______ _______ _______ _____ _____    ______ ____
ROOT
ATOM      1  O   UNL     1       4.262   2.780  17.303  0.00  0.00    +0.000 OA
ATOM      2  C   UNL     1       4.332   3.227  18.442  0.00  0.00    +0.000 C 
ATOM      3  N   UNL     1       5.441   3.862  18.967  0.00  0.00    +0.000 N 
ATOM      4  H   UNL     1       5.575   3.902  19.975  0.00  0.00    +0.000 HD
ENDROOT
BRANCH   2   5
ATOM      5  C   UNL     1       3.192   3.108  19.395  0.00  0.00    +0.000 A 
ATOM      6  C   UNL     1       1.893   3.396  18.964  0.00  0.00    +0.000 A 
ATOM      7  C   UNL     1       0.823   3.290  19.857  0.00  0.00    +0.000 A 
ATOM      8  C   UNL     1       1.051   2.908  21.182  0.00  0.00    +0.000 A 
ATOM      9  C   UNL     1       2.345   2.631  21.618  0.00  0.00    +0.000 A 
ATOM     10  C   UNL     1       3.415   2.731  20.730  0.00  0.00    +0.000 A 
ENDBRANCH   2   5
BRANCH   3  11
ATOM     11  N   UNL     1       6.611   3.943  18.204  0.00  0.00    +0.000 N 
ATOM     12  H   UNL     1       6.528   3.373  17.349  0.00  0.00    +0.000 HD
BRANCH  11  13
ATOM     13  C   UNL     1       7.010   5.281  17.893  0.00  0.00    +0.000 A 
ATOM     14  C   UNL     1       6.534   6.024  16.784  0.00  0.00    +0.000 A 
ATOM     15 CL   UNL     1       5.430   5.388  15.601  0.00  0.00    +0.000 Cl
ATOM     16  C   UNL     1       6.906   7.363  16.588  0.00  0.00    +0.000 A 
ATOM     17  C   UNL     1       7.722   8.013  17.508  0.00  0.00    +0.000 A 
ATOM     18  C   UNL     1       8.169   7.326  18.631  0.00  0.00    +0.000 A 
ATOM     19  C   UNL     1       7.812   5.984  18.823  0.00  0.00    +0.000 A 
ATOM     20 CL   UNL     1       8.406   5.203  20.252  0.00  0.00    +0.000 Cl
ENDBRANCH  11  13
ENDBRANCH   3  11
TORSDOF 3
ENDMDL
MODEL 7
REMARK VINA RESULT:      -7.2      3.136      3.892
REMARK  Name = 
REMARK  3 active torsions:
REMARK  status: ('A' for Active; 'I' for Inactive)
REMARK    1  A    between atoms: C_2  and  C_13
REMARK    2  A    between atoms: N_3  and  N_4
REMARK    3  A    between atoms: N_4  and  C_5
REMARK                            x       y       z     vdW  Elec       q    Type
REMARK                         _______ _______ _______ _____ _____    ______ ____
ROOT
ATOM      1  O   UNL     1       7.357   5.257  16.700  0.00  0.00    +0.000 OA
ATOM      2  C   UNL     1       6.622   4.571  15.999  0.00  0.00    +0.000 C 
ATOM      3  N   UNL     1       5.571   3.812  16.477  0.00  0.00    +0.000 N 
ATOM      4  H   UNL     1       5.225   3.024  15.934  0.00  0.00    +0.000 HD
ENDROOT
BRANCH   2   5
ATOM      5  C   UNL     1       6.814   4.484  14.524  0.00  0.00    +0.000 A 
ATOM      6  C   UNL     1       7.716   5.344  13.889  0.00  0.00    +0.000 A 
ATOM      7  C   UNL     1       7.894   5.267  12.504  0.00  0.00    +0.000 A 
ATOM      8  C   UNL     1       7.164   4.341  11.754  0.00  0.00    +0.000 A 
ATOM      9  C   UNL     1       6.257   3.491  12.381  0.00  0.00    +0.000 A 
ATOM     10  C   UNL     1       6.079   3.561  13.763  0.00  0.00    +0.000 A 
ENDBRANCH   2   5
BRANCH   3  11
ATOM     11  N   UNL     1       5.355   3.730  17.857  0.00  0.00    +0.000 N 
ATOM     12  H   UNL     1       5.861   4.481  18.350  0.00  0.00    +0.000 HD
BRANCH  11  13
ATOM     13  C   UNL     1       3.973   3.712  18.228  0.00  0.00    +0.000 A 
ATOM     14  C   UNL     1       3.249   2.544  18.573  0.00  0.00    +0.000 A 
ATOM     15 CL   UNL     1       3.927   0.944  18.536  0.00  0.00    +0.000 Cl
ATOM     16  C   UNL     1       1.916   2.613  19.009  0.00  0.00    +0.000 A 
ATOM     17  C   UNL     1       1.283   3.842  19.157  0.00  0.00    +0.000 A 
ATOM     18  C   UNL     1       1.981   5.010  18.872  0.00  0.00    +0.000 A 
ATOM     19  C   UNL     1       3.306   4.946  18.422  0.00  0.00    +0.000 A 
ATOM     20 CL   UNL     1       4.106   6.448  18.095  0.00  0.00    +0.000 Cl
ENDBRANCH  11  13
ENDBRANCH   3  11
TORSDOF 3
ENDMDL
MODEL 8
REMARK VINA RESULT:      -7.2      0.389      2.191
REMARK  Name = 
REMARK  3 active torsions:
REMARK  status: ('A' for Active; 'I' for Inactive)
REMARK    1  A    between atoms: C_2  and  C_13
REMARK    2  A    between atoms: N_3  and  N_4
REMARK    3  A    between atoms: N_4  and  C_5
REMARK                            x       y       z     vdW  Elec       q    Type
REMARK                         _______ _______ _______ _____ _____    ______ ____
ROOT
ATOM      1  O   UNL     1       5.153   4.389  16.458  0.00  0.00    +0.000 OA
ATOM      2  C   UNL     1       5.646   4.591  17.563  0.00  0.00    +0.000 C 
ATOM      3  N   UNL     1       5.411   3.811  18.679  0.00  0.00    +0.000 N 
ATOM      4  H   UNL     1       5.554   4.199  19.608  0.00  0.00    +0.000 HD
ENDROOT
BRANCH   2   5
ATOM      5  C   UNL     1       6.559   5.743  17.806  0.00  0.00    +0.000 A 
ATOM      6  C   UNL     1       7.520   5.665  18.820  0.00  0.00    +0.000 A 
ATOM      7  C   UNL     1       8.375   6.746  19.054  0.00  0.00    +0.000 A 
ATOM      8  C   UNL     1       8.262   7.908  18.286  0.00  0.00    +0.000 A 
ATOM      9  C   UNL     1       7.299   7.994  17.283  0.00  0.00    +0.000 A 
ATOM     10  C   UNL     1       6.447   6.916  17.043  0.00  0.00    +0.000 A 
ENDBRANCH   2   5
BRANCH   3  11
ATOM     11  N   UNL     1       4.490   2.762  18.602  0.00  0.00    +0.000 N 
ATOM     12  H   UNL     1       4.955   1.855  18.760  0.00  0.00    +0.000 HD
BRANCH  11  13
ATOM     13  C   UNL     1       3.360   2.916  19.467  0.00  0.00    +0.000 A 
ATOM     14  C   UNL     1       2.124   3.488  19.078  0.00  0.00    +0.000 A 
ATOM     15 CL   UNL     1       1.819   4.142  17.496  0.00  0.00    +0.000 Cl
ATOM     16  C   UNL     1       1.030   3.530  19.957  0.00  0.00    +0.000 A 
ATOM     17  C   UNL     1       1.120   2.968  21.226  0.00  0.00    +0.000 A 
ATOM     18  C   UNL     1       2.305   2.358  21.621  0.00  0.00    +0.000 A 
ATOM     19  C   UNL     1       3.404   2.327  20.753  0.00  0.00    +0.000 A 
ATOM     20 CL   UNL     1       4.841   1.542  21.320  0.00  0.00    +0.000 Cl
ENDBRANCH  11  13
ENDBRANCH   3  11
TORSDOF 3
ENDMDL
MODEL 9
REMARK VINA RESULT:      -7.2      3.128      3.842
REMARK  Name = 
REMARK  3 active torsions:
REMARK  status: ('A' for Active; 'I' for Inactive)
REMARK    1  A    between atoms: C_2  and  C_13
REMARK    2  A    between atoms: N_3  and  N_4
REMARK    3  A    between atoms: N_4  and  C_5
REMARK                            x       y       z     vdW  Elec       q    Type
REMARK                         _______ _______ _______ _____ _____    ______ ____
ROOT
ATOM      1  O   UNL     1       7.601   4.812  16.771  0.00  0.00    +0.000 OA
ATOM      2  C   UNL     1       6.709   4.399  16.039  0.00  0.00    +0.000 C 
ATOM      3  N   UNL     1       5.510   3.874  16.484  0.00  0.00    +0.000 N 
ATOM      4  H   UNL     1       4.973   3.253  15.885  0.00  0.00    +0.000 HD
ENDROOT
BRANCH   2   5
ATOM      5  C   UNL     1       6.851   4.416  14.555  0.00  0.00    +0.000 A 
ATOM      6  C   UNL     1       6.127   3.506  13.778  0.00  0.00    +0.000 A 
ATOM      7  C   UNL     1       6.262   3.517  12.387  0.00  0.00    +0.000 A 
ATOM      8  C   UNL     1       7.127   4.426  11.774  0.00  0.00    +0.000 A 
ATOM      9  C   UNL     1       7.859   5.327  12.545  0.00  0.00    +0.000 A 
ATOM     10  C   UNL     1       7.724   5.323  13.933  0.00  0.00    +0.000 A 
ENDBRANCH   2   5
BRANCH   3  11
ATOM     11  N   UNL     1       5.302   3.709  17.858  0.00  0.00    +0.000 N 
ATOM     12  H   UNL     1       5.819   4.424  18.393  0.00  0.00    +0.000 HD
BRANCH  11  13
ATOM     13  C   UNL     1       3.922   3.682  18.237  0.00  0.00    +0.000 A 
ATOM     14  C   UNL     1       3.213   2.510  18.598  0.00  0.00    +0.000 A 
ATOM     15 CL   UNL     1       3.907   0.917  18.577  0.00  0.00    +0.000 Cl
ATOM     16  C   UNL     1       1.881   2.570  19.041  0.00  0.00    +0.000 A 
ATOM     17  C   UNL     1       1.236   3.794  19.179  0.00  0.00    +0.000 A 
ATOM     18  C   UNL     1       1.920   4.966  18.876  0.00  0.00    +0.000 A 
ATOM     19  C   UNL     1       3.244   4.911  18.420  0.00  0.00    +0.000 A 
ATOM     20 CL   UNL     1       4.027   6.417  18.071  0.00  0.00    +0.000 Cl
ENDBRANCH  11  13
ENDBRANCH   3  11
TORSDOF 3
ENDMDL
