MODEL 1
REMARK VINA RESULT:      -8.0      0.000      0.000
REMARK  Name = 
REMARK  10 active torsions:
REMARK  status: ('A' for Active; 'I' for Inactive)
REMARK    1  A    between atoms: C_1  and  C_2
REMARK    2  A    between atoms: C_2  and  O_3
REMARK    3  A    between atoms: O_3  and  C_4
REMARK    4  A    between atoms: C_4  and  C_6
REMARK    5  A    between atoms: N_9  and  C_10
REMARK    6  A    between atoms: C_13  and  C_14
REMARK    7  A    between atoms: N_16  and  C_17
REMARK    8  A    between atoms: N_16  and  C_25
REMARK    9  A    between atoms: C_17  and  C_18
REMARK   10  A    between atoms: C_30  and  C_31
REMARK                            x       y       z     vdW  Elec       q    Type
REMARK                         _______ _______ _______ _____ _____    ______ ____
ROOT
ATOM      1  C   UNL     1       1.606   8.180  20.082  0.00  0.00    +0.000 A 
ATOM      2  C   UNL     1       1.965   8.586  18.789  0.00  0.00    +0.000 A 
ATOM      3  C   UNL     1       2.682   7.708  17.922  0.00  0.00    +0.000 A 
ATOM      4  C   UNL     1       3.021   6.401  18.315  0.00  0.00    +0.000 A 
ATOM      5  C   UNL     1       2.689   6.026  19.622  0.00  0.00    +0.000 A 
ATOM      6  C   UNL     1       1.981   6.886  20.477  0.00  0.00    +0.000 A 
ENDROOT
BRANCH   1  10
ATOM      7  C   UNL     1      -0.302  10.503  22.187  0.00  0.00    +0.000 A 
ATOM      8  C   UNL     1       0.372   9.613  23.032  0.00  0.00    +0.000 A 
ATOM      9  N   UNL     1       1.083   8.713  22.362  0.00  0.00    +0.000 NA
ATOM     10  N   UNL     1       0.875   8.977  21.036  0.00  0.00    +0.000 N 
ATOM     11  C   UNL     1       0.006  10.061  20.895  0.00  0.00    +0.000 A 
ATOM     12  C   UNL     1      -0.375  10.744  19.634  0.00  0.00    +0.000 C 
BRANCH   7  13
ATOM     13  C   UNL     1      -1.058  11.692  22.555  0.00  0.00    +0.000 C 
ATOM     14  O   UNL     1      -0.628  12.832  22.422  0.00  0.00    +0.000 OA
BRANCH  13  15
ATOM     15  O   UNL     1      -2.242  11.389  23.166  0.00  0.00    +0.000 OA
BRANCH  15  17
ATOM     16  C   UNL     1      -3.925  12.597  24.367  0.00  0.00    +0.000 C 
ATOM     17  C   UNL     1      -3.285  12.367  23.008  0.00  0.00    +0.000 C 
ENDBRANCH  15  17
ENDBRANCH  13  15
ENDBRANCH   7  13
ENDBRANCH   1  10
BRANCH   4  18
ATOM     18  C   UNL     1       3.781   5.367  17.504  0.00  0.00    +0.000 C 
ATOM     19  O   UNL     1       3.102   4.501  16.955  0.00  0.00    +0.000 OA
ATOM     20  N   UNL     1       5.185   5.429  17.317  0.00  0.00    +0.000 N 
BRANCH  20  21
ATOM     21  C   UNL     1       6.061   6.291  18.070  0.00  0.00    +0.000 C 
ATOM     22  C   UNL     1       7.059   5.715  19.042  0.00  0.00    +0.000 C 
ATOM     23  C   UNL     1       7.538   6.413  17.812  0.00  0.00    +0.000 C 
ENDBRANCH  20  21
BRANCH  20  24
ATOM     24  C   UNL     1       5.851   4.284  16.641  0.00  0.00    +0.000 C 
BRANCH  24  25
ATOM     25  C   UNL     1       6.121   4.366  15.137  0.00  0.00    +0.000 A 
ATOM     26  C   UNL     1       7.277   5.038  14.674  0.00  0.00    +0.000 A 
ATOM     27  C   UNL     1       7.687   4.953  13.335  0.00  0.00    +0.000 A 
ATOM     28  C   UNL     1       6.944   4.197  12.444  0.00  0.00    +0.000 A 
ATOM     29  F   UNL     1       7.361   4.068  11.175  0.00  0.00    +0.000 F 
ATOM     30  C   UNL     1       5.788   3.547  12.861  0.00  0.00    +0.000 A 
ATOM     31  C   UNL     1       5.376   3.630  14.204  0.00  0.00    +0.000 A 
ENDBRANCH  24  25
ENDBRANCH  20  24
ENDBRANCH   4  18
TORSDOF 8
ENDMDL
MODEL 2
REMARK VINA RESULT:      -8.0      4.795     10.487
REMARK  Name = 
REMARK  10 active torsions:
REMARK  status: ('A' for Active; 'I' for Inactive)
REMARK    1  A    between atoms: C_1  and  C_2
REMARK    2  A    between atoms: C_2  and  O_3
REMARK    3  A    between atoms: O_3  and  C_4
REMARK    4  A    between atoms: C_4  and  C_6
REMARK    5  A    between atoms: N_9  and  C_10
REMARK    6  A    between atoms: C_13  and  C_14
REMARK    7  A    between atoms: N_16  and  C_17
REMARK    8  A    between atoms: N_16  and  C_25
REMARK    9  A    between atoms: C_17  and  C_18
REMARK   10  A    between atoms: C_30  and  C_31
REMARK                            x       y       z     vdW  Elec       q    Type
REMARK                         _______ _______ _______ _____ _____    ______ ____
ROOT
ATOM      1  C   UNL     1       2.562   7.419  18.718  0.00  0.00    +0.000 A 
ATOM      2  C   UNL     1       2.527   8.320  17.645  0.00  0.00    +0.000 A 
ATOM      3  C   UNL     1       1.868   9.580  17.772  0.00  0.00    +0.000 A 
ATOM      4  C   UNL     1       1.263   9.975  18.979  0.00  0.00    +0.000 A 
ATOM      5  C   UNL     1       1.273   9.048  20.027  0.00  0.00    +0.000 A 
ATOM      6  C   UNL     1       1.924   7.809  19.907  0.00  0.00    +0.000 A 
ENDROOT
BRANCH   1  10
ATOM      7  C   UNL     1       3.795   3.962  18.673  0.00  0.00    +0.000 A 
ATOM      8  C   UNL     1       4.833   4.783  19.130  0.00  0.00    +0.000 A 
ATOM      9  N   UNL     1       4.491   6.066  19.167  0.00  0.00    +0.000 NA
ATOM     10  N   UNL     1       3.206   6.128  18.706  0.00  0.00    +0.000 N 
ATOM     11  C   UNL     1       2.755   4.850  18.371  0.00  0.00    +0.000 A 
ATOM     12  C   UNL     1       1.384   4.465  17.955  0.00  0.00    +0.000 C 
BRANCH   7  13
ATOM     13  C   UNL     1       3.753   2.507  18.629  0.00  0.00    +0.000 C 
ATOM     14  O   UNL     1       3.486   1.871  17.616  0.00  0.00    +0.000 OA
BRANCH  13  15
ATOM     15  O   UNL     1       3.930   1.943  19.861  0.00  0.00    +0.000 OA
BRANCH  15  17
ATOM     16  C   UNL     1       1.736   2.222  20.778  0.00  0.00    +0.000 C 
ATOM     17  C   UNL     1       3.208   2.569  20.935  0.00  0.00    +0.000 C 
ENDBRANCH  15  17
ENDBRANCH  13  15
ENDBRANCH   7  13
ENDBRANCH   1  10
BRANCH   4  18
ATOM     18  C   UNL     1       0.527  11.274  19.254  0.00  0.00    +0.000 C 
ATOM     19  O   UNL     1       1.200  12.191  19.723  0.00  0.00    +0.000 OA
ATOM     20  N   UNL     1      -0.838  11.459  18.921  0.00  0.00    +0.000 N 
BRANCH  20  21
ATOM     21  C   UNL     1      -1.730  10.390  18.548  0.00  0.00    +0.000 C 
ATOM     22  C   UNL     1      -2.969  10.668  17.736  0.00  0.00    +0.000 C 
ATOM     23  C   UNL     1      -1.859   9.860  17.147  0.00  0.00    +0.000 C 
ENDBRANCH  20  21
BRANCH  20  24
ATOM     24  C   UNL     1      -1.504  12.709  19.375  0.00  0.00    +0.000 C 
BRANCH  24  25
ATOM     25  C   UNL     1      -2.153  12.744  20.760  0.00  0.00    +0.000 A 
ATOM     26  C   UNL     1      -3.547  12.958  20.869  0.00  0.00    +0.000 A 
ATOM     27  C   UNL     1      -4.222  12.780  22.086  0.00  0.00    +0.000 A 
ATOM     28  C   UNL     1      -3.510  12.387  23.207  0.00  0.00    +0.000 A 
ATOM     29  F   UNL     1      -4.159  12.162  24.360  0.00  0.00    +0.000 F 
ATOM     30  C   UNL     1      -2.135  12.195  23.139  0.00  0.00    +0.000 A 
ATOM     31  C   UNL     1      -1.456  12.371  21.919  0.00  0.00    +0.000 A 
ENDBRANCH  24  25
ENDBRANCH  20  24
ENDBRANCH   4  18
TORSDOF 8
ENDMDL
MODEL 3
REMARK VINA RESULT:      -7.8      4.644     10.967
REMARK  Name = 
REMARK  10 active torsions:
REMARK  status: ('A' for Active; 'I' for Inactive)
REMARK    1  A    between atoms: C_1  and  C_2
REMARK    2  A    between atoms: C_2  and  O_3
REMARK    3  A    between atoms: O_3  and  C_4
REMARK    4  A    between atoms: C_4  and  C_6
REMARK    5  A    between atoms: N_9  and  C_10
REMARK    6  A    between atoms: C_13  and  C_14
REMARK    7  A    between atoms: N_16  and  C_17
REMARK    8  A    between atoms: N_16  and  C_25
REMARK    9  A    between atoms: C_17  and  C_18
REMARK   10  A    between atoms: C_30  and  C_31
REMARK                            x       y       z     vdW  Elec       q    Type
REMARK                         _______ _______ _______ _____ _____    ______ ____
ROOT
ATOM      1  C   UNL     1       2.287   8.203  18.651  0.00  0.00    +0.000 A 
ATOM      2  C   UNL     1       2.234   9.311  17.794  0.00  0.00    +0.000 A 
ATOM      3  C   UNL     1       1.524  10.490  18.171  0.00  0.00    +0.000 A 
ATOM      4  C   UNL     1       0.885  10.596  19.420  0.00  0.00    +0.000 A 
ATOM      5  C   UNL     1       0.914   9.467  20.245  0.00  0.00    +0.000 A 
ATOM      6  C   UNL     1       1.614   8.306  19.879  0.00  0.00    +0.000 A 
ENDROOT
BRANCH   1  10
ATOM      7  C   UNL     1       3.929   4.933  18.361  0.00  0.00    +0.000 A 
ATOM      8  C   UNL     1       4.473   5.775  17.384  0.00  0.00    +0.000 A 
ATOM      9  N   UNL     1       3.929   6.987  17.394  0.00  0.00    +0.000 NA
ATOM     10  N   UNL     1       2.981   6.968  18.378  0.00  0.00    +0.000 N 
ATOM     11  C   UNL     1       2.940   5.708  18.979  0.00  0.00    +0.000 A 
ATOM     12  C   UNL     1       2.145   5.308  20.166  0.00  0.00    +0.000 C 
BRANCH   7  13
ATOM     13  C   UNL     1       4.365   3.596  18.738  0.00  0.00    +0.000 C 
ATOM     14  O   UNL     1       5.151   3.376  19.652  0.00  0.00    +0.000 OA
BRANCH  13  15
ATOM     15  O   UNL     1       3.891   2.634  17.891  0.00  0.00    +0.000 OA
BRANCH  15  17
ATOM     16  C   UNL     1       1.895   1.904  18.994  0.00  0.00    +0.000 C 
ATOM     17  C   UNL     1       3.283   1.497  18.528  0.00  0.00    +0.000 C 
ENDBRANCH  15  17
ENDBRANCH  13  15
ENDBRANCH   7  13
ENDBRANCH   1  10
BRANCH   4  18
ATOM     18  C   UNL     1       0.094  11.780  19.948  0.00  0.00    +0.000 C 
ATOM     19  O   UNL     1       0.707  12.564  20.671  0.00  0.00    +0.000 OA
ATOM     20  N   UNL     1      -1.252  12.022  19.574  0.00  0.00    +0.000 N 
BRANCH  20  21
ATOM     21  C   UNL     1      -2.085  11.064  18.893  0.00  0.00    +0.000 C 
ATOM     22  C   UNL     1      -3.133  11.516  17.908  0.00  0.00    +0.000 C 
ATOM     23  C   UNL     1      -1.955  10.732  17.432  0.00  0.00    +0.000 C 
ENDBRANCH  20  21
BRANCH  20  24
ATOM     24  C   UNL     1      -1.984  13.115  20.269  0.00  0.00    +0.000 C 
BRANCH  24  25
ATOM     25  C   UNL     1      -2.936  12.761  21.413  0.00  0.00    +0.000 A 
ATOM     26  C   UNL     1      -2.404  12.373  22.665  0.00  0.00    +0.000 A 
ATOM     27  C   UNL     1      -3.218  12.254  23.801  0.00  0.00    +0.000 A 
ATOM     28  C   UNL     1      -4.573  12.519  23.698  0.00  0.00    +0.000 A 
ATOM     29  F   UNL     1      -5.346  12.460  24.792  0.00  0.00    +0.000 F 
ATOM     30  C   UNL     1      -5.132  12.876  22.475  0.00  0.00    +0.000 A 
ATOM     31  C   UNL     1      -4.317  12.998  21.335  0.00  0.00    +0.000 A 
ENDBRANCH  24  25
ENDBRANCH  20  24
ENDBRANCH   4  18
TORSDOF 8
ENDMDL
MODEL 4
REMARK VINA RESULT:      -7.8      4.944     10.513
REMARK  Name = 
REMARK  10 active torsions:
REMARK  status: ('A' for Active; 'I' for Inactive)
REMARK    1  A    between atoms: C_1  and  C_2
REMARK    2  A    between atoms: C_2  and  O_3
REMARK    3  A    between atoms: O_3  and  C_4
REMARK    4  A    between atoms: C_4  and  C_6
REMARK    5  A    between atoms: N_9  and  C_10
REMARK    6  A    between atoms: C_13  and  C_14
REMARK    7  A    between atoms: N_16  and  C_17
REMARK    8  A    between atoms: N_16  and  C_25
REMARK    9  A    between atoms: C_17  and  C_18
REMARK   10  A    between atoms: C_30  and  C_31
REMARK                            x       y       z     vdW  Elec       q    Type
REMARK                         _______ _______ _______ _____ _____    ______ ____
ROOT
ATOM      1  C   UNL     1       2.496   7.378  18.820  0.00  0.00    +0.000 A 
ATOM      2  C   UNL     1       2.540   8.317  17.780  0.00  0.00    +0.000 A 
ATOM      3  C   UNL     1       1.940   9.603  17.933  0.00  0.00    +0.000 A 
ATOM      4  C   UNL     1       1.319   9.986  19.136  0.00  0.00    +0.000 A 
ATOM      5  C   UNL     1       1.250   9.023  20.148  0.00  0.00    +0.000 A 
ATOM      6  C   UNL     1       1.841   7.758  20.003  0.00  0.00    +0.000 A 
ENDROOT
BRANCH   1  10
ATOM      7  C   UNL     1       3.557   3.868  18.673  0.00  0.00    +0.000 A 
ATOM      8  C   UNL     1       4.608   4.612  19.224  0.00  0.00    +0.000 A 
ATOM      9  N   UNL     1       4.329   5.908  19.304  0.00  0.00    +0.000 NA
ATOM     10  N   UNL     1       3.075   6.057  18.779  0.00  0.00    +0.000 N 
ATOM     11  C   UNL     1       2.581   4.821  18.360  0.00  0.00    +0.000 A 
ATOM     12  C   UNL     1       1.217   4.527  17.854  0.00  0.00    +0.000 C 
BRANCH   7  13
ATOM     13  C   UNL     1       3.446   2.420  18.557  0.00  0.00    +0.000 C 
ATOM     14  O   UNL     1       3.961   1.775  17.651  0.00  0.00    +0.000 OA
BRANCH  13  15
ATOM     15  O   UNL     1       2.615   1.884  19.501  0.00  0.00    +0.000 OA
BRANCH  15  17
ATOM     16  C   UNL     1       1.345   2.797  21.313  0.00  0.00    +0.000 C 
ATOM     17  C   UNL     1       2.738   2.444  20.819  0.00  0.00    +0.000 C 
ENDBRANCH  15  17
ENDBRANCH  13  15
ENDBRANCH   7  13
ENDBRANCH   1  10
BRANCH   4  18
ATOM     18  C   UNL     1       0.640  11.311  19.436  0.00  0.00    +0.000 C 
ATOM     19  O   UNL     1       1.350  12.185  19.929  0.00  0.00    +0.000 OA
ATOM     20  N   UNL     1      -0.714  11.564  19.099  0.00  0.00    +0.000 N 
BRANCH  20  21
ATOM     21  C   UNL     1      -1.650  10.545  18.698  0.00  0.00    +0.000 C 
ATOM     22  C   UNL     1      -2.747  10.852  17.710  0.00  0.00    +0.000 C 
ATOM     23  C   UNL     1      -1.655   9.904  17.337  0.00  0.00    +0.000 C 
ENDBRANCH  20  21
BRANCH  20  24
ATOM     24  C   UNL     1      -1.326  12.832  19.578  0.00  0.00    +0.000 C 
BRANCH  24  25
ATOM     25  C   UNL     1      -1.918  12.885  20.988  0.00  0.00    +0.000 A 
ATOM     26  C   UNL     1      -1.121  13.356  22.059  0.00  0.00    +0.000 A 
ATOM     27  C   UNL     1      -1.676  13.632  23.317  0.00  0.00    +0.000 A 
ATOM     28  C   UNL     1      -3.032  13.439  23.520  0.00  0.00    +0.000 A 
ATOM     29  F   UNL     1      -3.577  13.753  24.705  0.00  0.00    +0.000 F 
ATOM     30  C   UNL     1      -3.837  12.951  22.497  0.00  0.00    +0.000 A 
ATOM     31  C   UNL     1      -3.283  12.675  21.233  0.00  0.00    +0.000 A 
ENDBRANCH  24  25
ENDBRANCH  20  24
ENDBRANCH   4  18
TORSDOF 8
ENDMDL
MODEL 5
REMARK VINA RESULT:      -7.7      4.708     11.166
REMARK  Name = 
REMARK  10 active torsions:
REMARK  status: ('A' for Active; 'I' for Inactive)
REMARK    1  A    between atoms: C_1  and  C_2
REMARK    2  A    between atoms: C_2  and  O_3
REMARK    3  A    between atoms: O_3  and  C_4
REMARK    4  A    between atoms: C_4  and  C_6
REMARK    5  A    between atoms: N_9  and  C_10
REMARK    6  A    between atoms: C_13  and  C_14
REMARK    7  A    between atoms: N_16  and  C_17
REMARK    8  A    between atoms: N_16  and  C_25
REMARK    9  A    between atoms: C_17  and  C_18
REMARK   10  A    between atoms: C_30  and  C_31
REMARK                            x       y       z     vdW  Elec       q    Type
REMARK                         _______ _______ _______ _____ _____    ______ ____
ROOT
ATOM      1  C   UNL     1       2.043   8.111  19.165  0.00  0.00    +0.000 A 
ATOM      2  C   UNL     1       1.457   8.185  20.436  0.00  0.00    +0.000 A 
ATOM      3  C   UNL     1       0.671   9.314  20.812  0.00  0.00    +0.000 A 
ATOM      4  C   UNL     1       0.426  10.372  19.917  0.00  0.00    +0.000 A 
ATOM      5  C   UNL     1       1.050  10.300  18.667  0.00  0.00    +0.000 A 
ATOM      6  C   UNL     1       1.823   9.189  18.291  0.00  0.00    +0.000 A 
ENDROOT
BRANCH   1  10
ATOM      7  C   UNL     1       4.022   5.140  18.313  0.00  0.00    +0.000 A 
ATOM      8  C   UNL     1       4.351   6.151  17.402  0.00  0.00    +0.000 A 
ATOM      9  N   UNL     1       3.671   7.272  17.615  0.00  0.00    +0.000 NA
ATOM     10  N   UNL     1       2.845   7.017  18.675  0.00  0.00    +0.000 N 
ATOM     11  C   UNL     1       3.021   5.703  19.114  0.00  0.00    +0.000 A 
ATOM     12  C   UNL     1       2.415   5.071  20.311  0.00  0.00    +0.000 C 
BRANCH   7  13
ATOM     13  C   UNL     1       4.654   3.838  18.475  0.00  0.00    +0.000 C 
ATOM     14  O   UNL     1       5.595   3.635  19.234  0.00  0.00    +0.000 OA
BRANCH  13  15
ATOM     15  O   UNL     1       4.155   2.905  17.610  0.00  0.00    +0.000 OA
BRANCH  15  17
ATOM     16  C   UNL     1       2.005   2.069  18.251  0.00  0.00    +0.000 C 
ATOM     17  C   UNL     1       3.498   1.784  18.224  0.00  0.00    +0.000 C 
ENDBRANCH  15  17
ENDBRANCH  13  15
ENDBRANCH   7  13
ENDBRANCH   1  10
BRANCH   4  18
ATOM     18  C   UNL     1      -0.381  11.629  20.182  0.00  0.00    +0.000 C 
ATOM     19  O   UNL     1       0.143  12.468  20.913  0.00  0.00    +0.000 OA
ATOM     20  N   UNL     1      -1.636  11.871  19.567  0.00  0.00    +0.000 N 
BRANCH  20  21
ATOM     21  C   UNL     1      -2.392  10.870  18.858  0.00  0.00    +0.000 C 
ATOM     22  C   UNL     1      -3.342  11.261  17.754  0.00  0.00    +0.000 C 
ATOM     23  C   UNL     1      -2.118  10.466  17.436  0.00  0.00    +0.000 C 
ENDBRANCH  20  21
BRANCH  20  24
ATOM     24  C   UNL     1      -2.416  13.055  20.015  0.00  0.00    +0.000 C 
BRANCH  24  25
ATOM     25  C   UNL     1      -3.469  12.879  21.111  0.00  0.00    +0.000 A 
ATOM     26  C   UNL     1      -3.055  12.757  22.459  0.00  0.00    +0.000 A 
ATOM     27  C   UNL     1      -3.975  12.816  23.515  0.00  0.00    +0.000 A 
ATOM     28  C   UNL     1      -5.320  12.996  23.237  0.00  0.00    +0.000 A 
ATOM     29  F   UNL     1      -6.197  13.108  24.246  0.00  0.00    +0.000 F 
ATOM     30  C   UNL     1      -5.762  13.092  21.922  0.00  0.00    +0.000 A 
ATOM     31  C   UNL     1      -4.840  13.035  20.861  0.00  0.00    +0.000 A 
ENDBRANCH  24  25
ENDBRANCH  20  24
ENDBRANCH   4  18
TORSDOF 8
ENDMDL
MODEL 6
REMARK VINA RESULT:      -7.7      0.787      1.185
REMARK  Name = 
REMARK  10 active torsions:
REMARK  status: ('A' for Active; 'I' for Inactive)
REMARK    1  A    between atoms: C_1  and  C_2
REMARK    2  A    between atoms: C_2  and  O_3
REMARK    3  A    between atoms: O_3  and  C_4
REMARK    4  A    between atoms: C_4  and  C_6
REMARK    5  A    between atoms: N_9  and  C_10
REMARK    6  A    between atoms: C_13  and  C_14
REMARK    7  A    between atoms: N_16  and  C_17
REMARK    8  A    between atoms: N_16  and  C_25
REMARK    9  A    between atoms: C_17  and  C_18
REMARK   10  A    between atoms: C_30  and  C_31
REMARK                            x       y       z     vdW  Elec       q    Type
REMARK                         _______ _______ _______ _____ _____    ______ ____
ROOT
ATOM      1  C   UNL     1       1.674   7.897  20.032  0.00  0.00    +0.000 A 
ATOM      2  C   UNL     1       1.899   6.613  20.550  0.00  0.00    +0.000 A 
ATOM      3  C   UNL     1       2.589   5.628  19.782  0.00  0.00    +0.000 A 
ATOM      4  C   UNL     1       3.097   5.916  18.501  0.00  0.00    +0.000 A 
ATOM      5  C   UNL     1       2.830   7.189  17.985  0.00  0.00    +0.000 A 
ATOM      6  C   UNL     1       2.153   8.162  18.739  0.00  0.00    +0.000 A 
ENDROOT
BRANCH   1  10
ATOM      7  C   UNL     1       0.090  10.887  21.453  0.00  0.00    +0.000 A 
ATOM      8  C   UNL     1       0.210   9.938  22.475  0.00  0.00    +0.000 A 
ATOM      9  N   UNL     1       0.760   8.804  22.056  0.00  0.00    +0.000 NA
ATOM     10  N   UNL     1       1.000   8.970  20.721  0.00  0.00    +0.000 N 
ATOM     11  C   UNL     1       0.577  10.237  20.313  0.00  0.00    +0.000 A 
ATOM     12  C   UNL     1       0.771  10.859  18.980  0.00  0.00    +0.000 C 
BRANCH   7  13
ATOM     13  C   UNL     1      -0.331  12.277  21.563  0.00  0.00    +0.000 C 
ATOM     14  O   UNL     1       0.424  13.187  21.884  0.00  0.00    +0.000 OA
BRANCH  13  15
ATOM     15  O   UNL     1      -1.677  12.430  21.381  0.00  0.00    +0.000 OA
BRANCH  15  17
ATOM     16  C   UNL     1      -3.788  12.696  22.478  0.00  0.00    +0.000 C 
ATOM     17  C   UNL     1      -2.354  13.192  22.395  0.00  0.00    +0.000 C 
ENDBRANCH  15  17
ENDBRANCH  13  15
ENDBRANCH   7  13
ENDBRANCH   1  10
BRANCH   4  18
ATOM     18  C   UNL     1       3.841   4.971  17.576  0.00  0.00    +0.000 C 
ATOM     19  O   UNL     1       3.159   4.122  17.003  0.00  0.00    +0.000 OA
ATOM     20  N   UNL     1       5.230   5.096  17.318  0.00  0.00    +0.000 N 
BRANCH  20  21
ATOM     21  C   UNL     1       6.120   5.931  18.083  0.00  0.00    +0.000 C 
ATOM     22  C   UNL     1       6.684   5.456  19.398  0.00  0.00    +0.000 C 
ATOM     23  C   UNL     1       7.593   5.666  18.232  0.00  0.00    +0.000 C 
ENDBRANCH  20  21
BRANCH  20  24
ATOM     24  C   UNL     1       5.891   4.026  16.525  0.00  0.00    +0.000 C 
BRANCH  24  25
ATOM     25  C   UNL     1       6.167   4.267  15.039  0.00  0.00    +0.000 A 
ATOM     26  C   UNL     1       7.277   5.057  14.658  0.00  0.00    +0.000 A 
ATOM     27  C   UNL     1       7.702   5.127  13.323  0.00  0.00    +0.000 A 
ATOM     28  C   UNL     1       7.021   4.409  12.354  0.00  0.00    +0.000 A 
ATOM     29  F   UNL     1       7.456   4.429  11.085  0.00  0.00    +0.000 F 
ATOM     30  C   UNL     1       5.910   3.645  12.692  0.00  0.00    +0.000 A 
ATOM     31  C   UNL     1       5.483   3.572  14.031  0.00  0.00    +0.000 A 
ENDBRANCH  24  25
ENDBRANCH  20  24
ENDBRANCH   4  18
TORSDOF 8
ENDMDL
MODEL 7
REMARK VINA RESULT:      -7.7      4.662     10.989
REMARK  Name = 
REMARK  10 active torsions:
REMARK  status: ('A' for Active; 'I' for Inactive)
REMARK    1  A    between atoms: C_1  and  C_2
REMARK    2  A    between atoms: C_2  and  O_3
REMARK    3  A    between atoms: O_3  and  C_4
REMARK    4  A    between atoms: C_4  and  C_6
REMARK    5  A    between atoms: N_9  and  C_10
REMARK    6  A    between atoms: C_13  and  C_14
REMARK    7  A    between atoms: N_16  and  C_17
REMARK    8  A    between atoms: N_16  and  C_25
REMARK    9  A    between atoms: C_17  and  C_18
REMARK   10  A    between atoms: C_30  and  C_31
REMARK                            x       y       z     vdW  Elec       q    Type
REMARK                         _______ _______ _______ _____ _____    ______ ____
ROOT
ATOM      1  C   UNL     1       2.107   7.898  19.222  0.00  0.00    +0.000 A 
ATOM      2  C   UNL     1       1.541   8.100  20.489  0.00  0.00    +0.000 A 
ATOM      3  C   UNL     1       0.874   9.322  20.802  0.00  0.00    +0.000 A 
ATOM      4  C   UNL     1       0.731  10.347  19.850  0.00  0.00    +0.000 A 
ATOM      5  C   UNL     1       1.336  10.145  18.605  0.00  0.00    +0.000 A 
ATOM      6  C   UNL     1       1.990   8.942  18.291  0.00  0.00    +0.000 A 
ENDROOT
BRANCH   1  10
ATOM      7  C   UNL     1       3.784   4.705  18.538  0.00  0.00    +0.000 A 
ATOM      8  C   UNL     1       4.178   5.617  17.552  0.00  0.00    +0.000 A 
ATOM      9  N   UNL     1       3.608   6.808  17.701  0.00  0.00    +0.000 NA
ATOM     10  N   UNL     1       2.793   6.703  18.794  0.00  0.00    +0.000 N 
ATOM     11  C   UNL     1       2.861   5.412  19.320  0.00  0.00    +0.000 A 
ATOM     12  C   UNL     1       2.233   4.921  20.571  0.00  0.00    +0.000 C 
BRANCH   7  13
ATOM     13  C   UNL     1       4.298   3.364  18.778  0.00  0.00    +0.000 C 
ATOM     14  O   UNL     1       5.107   3.100  19.660  0.00  0.00    +0.000 OA
BRANCH  13  15
ATOM     15  O   UNL     1       3.867   2.465  17.844  0.00  0.00    +0.000 OA
BRANCH  15  17
ATOM     16  C   UNL     1       1.870   1.740  18.948  0.00  0.00    +0.000 C 
ATOM     17  C   UNL     1       2.440   2.373  17.689  0.00  0.00    +0.000 C 
ENDBRANCH  15  17
ENDBRANCH  13  15
ENDBRANCH   7  13
ENDBRANCH   1  10
BRANCH   4  18
ATOM     18  C   UNL     1       0.055  11.692  20.045  0.00  0.00    +0.000 C 
ATOM     19  O   UNL     1       0.713  12.551  20.630  0.00  0.00    +0.000 OA
ATOM     20  N   UNL     1      -1.231  11.981  19.521  0.00  0.00    +0.000 N 
BRANCH  20  21
ATOM     21  C   UNL     1      -2.130  10.984  18.996  0.00  0.00    +0.000 C 
ATOM     22  C   UNL     1      -3.121  11.334  17.916  0.00  0.00    +0.000 C 
ATOM     23  C   UNL     1      -2.005  10.386  17.622  0.00  0.00    +0.000 C 
ENDBRANCH  20  21
BRANCH  20  24
ATOM     24  C   UNL     1      -1.867  13.269  19.903  0.00  0.00    +0.000 C 
BRANCH  24  25
ATOM     25  C   UNL     1      -2.839  13.295  21.086  0.00  0.00    +0.000 A 
ATOM     26  C   UNL     1      -4.216  13.511  20.848  0.00  0.00    +0.000 A 
ATOM     27  C   UNL     1      -5.171  13.326  21.859  0.00  0.00    +0.000 A 
ATOM     28  C   UNL     1      -4.758  12.925  23.119  0.00  0.00    +0.000 A 
ATOM     29  F   UNL     1      -5.671  12.694  24.074  0.00  0.00    +0.000 F 
ATOM     30  C   UNL     1      -3.409  12.731  23.392  0.00  0.00    +0.000 A 
ATOM     31  C   UNL     1      -2.450  12.915  22.379  0.00  0.00    +0.000 A 
ENDBRANCH  24  25
ENDBRANCH  20  24
ENDBRANCH   4  18
TORSDOF 8
ENDMDL
MODEL 8
REMARK VINA RESULT:      -7.7      3.816     10.805
REMARK  Name = 
REMARK  10 active torsions:
REMARK  status: ('A' for Active; 'I' for Inactive)
REMARK    1  A    between atoms: C_1  and  C_2
REMARK    2  A    between atoms: C_2  and  O_3
REMARK    3  A    between atoms: O_3  and  C_4
REMARK    4  A    between atoms: C_4  and  C_6
REMARK    5  A    between atoms: N_9  and  C_10
REMARK    6  A    between atoms: C_13  and  C_14
REMARK    7  A    between atoms: N_16  and  C_17
REMARK    8  A    between atoms: N_16  and  C_25
REMARK    9  A    between atoms: C_17  and  C_18
REMARK   10  A    between atoms: C_30  and  C_31
REMARK                            x       y       z     vdW  Elec       q    Type
REMARK                         _______ _______ _______ _____ _____    ______ ____
ROOT
ATOM      1  C   UNL     1       3.032   7.013  18.323  0.00  0.00    +0.000 A 
ATOM      2  C   UNL     1       2.440   7.022  19.593  0.00  0.00    +0.000 A 
ATOM      3  C   UNL     1       1.663   8.138  20.028  0.00  0.00    +0.000 A 
ATOM      4  C   UNL     1       1.437   9.247  19.191  0.00  0.00    +0.000 A 
ATOM      5  C   UNL     1       2.068   9.238  17.943  0.00  0.00    +0.000 A 
ATOM      6  C   UNL     1       2.830   8.140  17.510  0.00  0.00    +0.000 A 
ENDROOT
BRANCH   1  10
ATOM      7  C   UNL     1       5.322   4.592  16.785  0.00  0.00    +0.000 A 
ATOM      8  C   UNL     1       4.104   3.943  17.019  0.00  0.00    +0.000 A 
ATOM      9  N   UNL     1       3.205   4.734  17.594  0.00  0.00    +0.000 NA
ATOM     10  N   UNL     1       3.826   5.938  17.778  0.00  0.00    +0.000 N 
ATOM     11  C   UNL     1       5.140   5.877  17.311  0.00  0.00    +0.000 A 
ATOM     12  C   UNL     1       6.107   6.997  17.209  0.00  0.00    +0.000 C 
BRANCH   7  13
ATOM     13  C   UNL     1       6.480   4.093  16.056  0.00  0.00    +0.000 C 
ATOM     14  O   UNL     1       7.636   4.372  16.355  0.00  0.00    +0.000 OA
BRANCH  13  15
ATOM     15  O   UNL     1       6.130   3.380  14.945  0.00  0.00    +0.000 OA
BRANCH  15  17
ATOM     16  C   UNL     1       6.411   3.571  12.575  0.00  0.00    +0.000 C 
ATOM     17  C   UNL     1       5.744   4.166  13.804  0.00  0.00    +0.000 C 
ENDBRANCH  15  17
ENDBRANCH  13  15
ENDBRANCH   7  13
ENDBRANCH   1  10
BRANCH   4  18
ATOM     18  C   UNL     1       0.642  10.497  19.521  0.00  0.00    +0.000 C 
ATOM     19  O   UNL     1       0.781  11.448  18.753  0.00  0.00    +0.000 OA
ATOM     20  N   UNL     1      -0.271  10.554  20.604  0.00  0.00    +0.000 N 
BRANCH  20  21
ATOM     21  C   UNL     1      -0.350   9.561  21.646  0.00  0.00    +0.000 C 
ATOM     22  C   UNL     1       0.637   9.561  22.786  0.00  0.00    +0.000 C 
ATOM     23  C   UNL     1      -0.803   9.856  23.049  0.00  0.00    +0.000 C 
ENDBRANCH  20  21
BRANCH  20  24
ATOM     24  C   UNL     1      -0.879  11.870  20.937  0.00  0.00    +0.000 C 
BRANCH  24  25
ATOM     25  C   UNL     1      -2.274  12.200  20.402  0.00  0.00    +0.000 A 
ATOM     26  C   UNL     1      -2.659  11.726  19.126  0.00  0.00    +0.000 A 
ATOM     27  C   UNL     1      -3.988  11.808  18.685  0.00  0.00    +0.000 A 
ATOM     28  C   UNL     1      -4.946  12.367  19.514  0.00  0.00    +0.000 A 
ATOM     29  F   UNL     1      -6.228  12.399  19.119  0.00  0.00    +0.000 F 
ATOM     30  C   UNL     1      -4.595  12.867  20.763  0.00  0.00    +0.000 A 
ATOM     31  C   UNL     1      -3.263  12.784  21.208  0.00  0.00    +0.000 A 
ENDBRANCH  24  25
ENDBRANCH  20  24
ENDBRANCH   4  18
TORSDOF 8
ENDMDL
MODEL 9
REMARK VINA RESULT:      -7.6      4.047     10.990
REMARK  Name = 
REMARK  10 active torsions:
REMARK  status: ('A' for Active; 'I' for Inactive)
REMARK    1  A    between atoms: C_1  and  C_2
REMARK    2  A    between atoms: C_2  and  O_3
REMARK    3  A    between atoms: O_3  and  C_4
REMARK    4  A    between atoms: C_4  and  C_6
REMARK    5  A    between atoms: N_9  and  C_10
REMARK    6  A    between atoms: C_13  and  C_14
REMARK    7  A    between atoms: N_16  and  C_17
REMARK    8  A    between atoms: N_16  and  C_25
REMARK    9  A    between atoms: C_17  and  C_18
REMARK   10  A    between atoms: C_30  and  C_31
REMARK                            x       y       z     vdW  Elec       q    Type
REMARK                         _______ _______ _______ _____ _____    ______ ____
ROOT
ATOM      1  C   UNL     1       3.013   7.068  18.291  0.00  0.00    +0.000 A 
ATOM      2  C   UNL     1       2.701   8.262  17.626  0.00  0.00    +0.000 A 
ATOM      3  C   UNL     1       1.874   9.247  18.245  0.00  0.00    +0.000 A 
ATOM      4  C   UNL     1       1.374   9.073  19.548  0.00  0.00    +0.000 A 
ATOM      5  C   UNL     1       1.663   7.860  20.182  0.00  0.00    +0.000 A 
ATOM      6  C   UNL     1       2.479   6.889  19.578  0.00  0.00    +0.000 A 
ENDROOT
BRANCH   1  10
ATOM      7  C   UNL     1       5.404   4.699  16.828  0.00  0.00    +0.000 A 
ATOM      8  C   UNL     1       4.183   4.033  16.990  0.00  0.00    +0.000 A 
ATOM      9  N   UNL     1       3.248   4.804  17.533  0.00  0.00    +0.000 NA
ATOM     10  N   UNL     1       3.845   6.012  17.768  0.00  0.00    +0.000 N 
ATOM     11  C   UNL     1       5.181   5.972  17.365  0.00  0.00    +0.000 A 
ATOM     12  C   UNL     1       6.139   7.105  17.330  0.00  0.00    +0.000 C 
BRANCH   7  13
ATOM     13  C   UNL     1       6.602   4.225  16.149  0.00  0.00    +0.000 C 
ATOM     14  O   UNL     1       7.738   4.496  16.519  0.00  0.00    +0.000 OA
BRANCH  13  15
ATOM     15  O   UNL     1       6.316   3.547  14.998  0.00  0.00    +0.000 OA
BRANCH  15  17
ATOM     16  C   UNL     1       6.146   3.406  12.614  0.00  0.00    +0.000 C 
ATOM     17  C   UNL     1       6.309   4.342  13.799  0.00  0.00    +0.000 C 
ENDBRANCH  15  17
ENDBRANCH  13  15
ENDBRANCH   7  13
ENDBRANCH   1  10
BRANCH   4  18
ATOM     18  C   UNL     1       0.484  10.028  20.324  0.00  0.00    +0.000 C 
ATOM     19  O   UNL     1       0.689  10.100  21.534  0.00  0.00    +0.000 OA
ATOM     20  N   UNL     1      -0.480  10.852  19.691  0.00  0.00    +0.000 N 
BRANCH  20  21
ATOM     21  C   UNL     1      -0.905  10.693  18.323  0.00  0.00    +0.000 C 
ATOM     22  C   UNL     1      -2.240  10.073  17.998  0.00  0.00    +0.000 C 
ATOM     23  C   UNL     1      -1.992  11.512  17.684  0.00  0.00    +0.000 C 
ENDBRANCH  20  21
BRANCH  20  24
ATOM     24  C   UNL     1      -1.406  11.633  20.554  0.00  0.00    +0.000 C 
BRANCH  24  25
ATOM     25  C   UNL     1      -0.997  13.038  21.001  0.00  0.00    +0.000 A 
ATOM     26  C   UNL     1      -1.227  14.136  20.140  0.00  0.00    +0.000 A 
ATOM     27  C   UNL     1      -1.077  15.458  20.583  0.00  0.00    +0.000 A 
ATOM     28  C   UNL     1      -0.695  15.697  21.893  0.00  0.00    +0.000 A 
ATOM     29  F   UNL     1      -0.604  16.959  22.338  0.00  0.00    +0.000 F 
ATOM     30  C   UNL     1      -0.435  14.639  22.757  0.00  0.00    +0.000 A 
ATOM     31  C   UNL     1      -0.586  13.312  22.314  0.00  0.00    +0.000 A 
ENDBRANCH  24  25
ENDBRANCH  20  24
ENDBRANCH   4  18
TORSDOF 8
ENDMDL
