MODEL 1
REMARK VINA RESULT:      -7.6      0.000      0.000
REMARK  Name = 
REMARK  6 active torsions:
REMARK  status: ('A' for Active; 'I' for Inactive)
REMARK    1  A    between atoms: C_1  and  O_2
REMARK    2  A    between atoms: O_2  and  C_3
REMARK    3  A    between atoms: C_8  and  C_9
REMARK    4  A    between atoms: C_16  and  C_17
REMARK    5  A    between atoms: C_17  and  C_18
REMARK    6  A    between atoms: C_18  and  N_19
REMARK                            x       y       z     vdW  Elec       q    Type
REMARK                         _______ _______ _______ _____ _____    ______ ____
ROOT
ATOM      1  C   UNL     1       3.118   6.284  17.987  0.00  0.00    +0.000 C 
ATOM      2  O   UNL     1       4.203   6.736  17.628  0.00  0.00    +0.000 OA
ATOM      3  N   UNL     1       2.654   5.011  17.571  0.00  0.00    +0.000 N 
ATOM      4  C   UNL     1       1.302   4.509  17.833  0.00  0.00    +0.000 C 
ATOM      5  C   UNL     1       1.351   3.307  18.779  0.00  0.00    +0.000 C 
ATOM      6  C   UNL     1       2.203   2.196  18.201  0.00  0.00    +0.000 C 
ATOM      7  C   UNL     1       3.582   2.729  17.821  0.00  0.00    +0.000 C 
ATOM      8  C   UNL     1       3.514   3.975  16.900  0.00  0.00    +0.000 C 
ENDROOT
BRANCH   1  14
ATOM      9  C   UNL     1       1.201   9.293  19.427  0.00  0.00    +0.000 A 
ATOM     10  C   UNL     1       0.771   8.789  20.653  0.00  0.00    +0.000 A 
ATOM     11  C   UNL     1       1.209   7.545  21.056  0.00  0.00    +0.000 A 
ATOM     12  C   UNL     1       2.036   6.802  20.221  0.00  0.00    +0.000 A 
ATOM     13  F   UNL     1       2.595   5.736  20.782  0.00  0.00    +0.000 F 
ATOM     14  C   UNL     1       2.313   7.167  18.904  0.00  0.00    +0.000 A 
ATOM     15  C   UNL     1       1.920   8.462  18.534  0.00  0.00    +0.000 A 
ATOM     16  F   UNL     1       2.243   8.949  17.325  0.00  0.00    +0.000 F 
BRANCH   9  18
ATOM     17  C   UNL     1      -0.398  10.858  18.678  0.00  0.00    +0.000 C 
ATOM     18  O   UNL     1       0.959  10.592  19.045  0.00  0.00    +0.000 OA
ENDBRANCH   9  18
ENDBRANCH   1  14
BRANCH   8  19
ATOM     19  C   UNL     1       4.923   4.377  16.389  0.00  0.00    +0.000 C 
BRANCH  19  20
ATOM     20  C   UNL     1       6.036   4.016  17.406  0.00  0.00    +0.000 C 
BRANCH  20  21
ATOM     21  N   UNL     1       7.369   4.594  17.165  0.00  0.00    +0.000 NA
ATOM     22  C   UNL     1       8.140   4.838  18.389  0.00  0.00    +0.000 C 
ATOM     23  C   UNL     1       7.715   6.219  18.846  0.00  0.00    +0.000 C 
ATOM     24  C   UNL     1       7.612   6.977  17.538  0.00  0.00    +0.000 C 
ATOM     25  C   UNL     1       7.239   5.917  16.508  0.00  0.00    +0.000 C 
ENDBRANCH  20  21
ENDBRANCH  19  20
ENDBRANCH   8  19
TORSDOF 5
ENDMDL
MODEL 2
REMARK VINA RESULT:      -7.4      1.767      2.514
REMARK  Name = 
REMARK  6 active torsions:
REMARK  status: ('A' for Active; 'I' for Inactive)
REMARK    1  A    between atoms: C_1  and  O_2
REMARK    2  A    between atoms: O_2  and  C_3
REMARK    3  A    between atoms: C_8  and  C_9
REMARK    4  A    between atoms: C_16  and  C_17
REMARK    5  A    between atoms: C_17  and  C_18
REMARK    6  A    between atoms: C_18  and  N_19
REMARK                            x       y       z     vdW  Elec       q    Type
REMARK                         _______ _______ _______ _____ _____    ______ ____
ROOT
ATOM      1  C   UNL     1       3.452   6.134  18.048  0.00  0.00    +0.000 C 
ATOM      2  O   UNL     1       4.600   6.535  17.865  0.00  0.00    +0.000 OA
ATOM      3  N   UNL     1       2.997   4.889  17.546  0.00  0.00    +0.000 N 
ATOM      4  C   UNL     1       1.598   4.453  17.592  0.00  0.00    +0.000 C 
ATOM      5  C   UNL     1       1.445   3.242  18.516  0.00  0.00    +0.000 C 
ATOM      6  C   UNL     1       2.321   2.095  18.056  0.00  0.00    +0.000 C 
ATOM      7  C   UNL     1       3.765   2.562  17.897  0.00  0.00    +0.000 C 
ATOM      8  C   UNL     1       3.899   3.817  16.996  0.00  0.00    +0.000 C 
ENDROOT
BRANCH   1  14
ATOM      9  C   UNL     1       1.370   9.173  19.156  0.00  0.00    +0.000 A 
ATOM     10  C   UNL     1       0.854   8.729  20.372  0.00  0.00    +0.000 A 
ATOM     11  C   UNL     1       1.283   7.521  20.881  0.00  0.00    +0.000 A 
ATOM     12  C   UNL     1       2.188   6.752  20.157  0.00  0.00    +0.000 A 
ATOM     13  F   UNL     1       2.720   5.733  20.820  0.00  0.00    +0.000 F 
ATOM     14  C   UNL     1       2.561   7.048  18.846  0.00  0.00    +0.000 A 
ATOM     15  C   UNL     1       2.173   8.310  18.372  0.00  0.00    +0.000 A 
ATOM     16  F   UNL     1       2.581   8.735  17.166  0.00  0.00    +0.000 F 
BRANCH   9  18
ATOM     17  C   UNL     1      -0.244  10.828  18.683  0.00  0.00    +0.000 C 
ATOM     18  O   UNL     1       1.134  10.442  18.681  0.00  0.00    +0.000 OA
ENDBRANCH   9  18
ENDBRANCH   1  14
BRANCH   8  19
ATOM     19  C   UNL     1       5.386   4.153  16.712  0.00  0.00    +0.000 C 
BRANCH  19  20
ATOM     20  C   UNL     1       5.859   3.589  15.347  0.00  0.00    +0.000 C 
BRANCH  20  21
ATOM     21  N   UNL     1       5.690   4.464  14.174  0.00  0.00    +0.000 NA
ATOM     22  C   UNL     1       5.001   3.821  13.049  0.00  0.00    +0.000 C 
ATOM     23  C   UNL     1       6.100   3.126  12.269  0.00  0.00    +0.000 C 
ATOM     24  C   UNL     1       7.230   4.133  12.331  0.00  0.00    +0.000 C 
ATOM     25  C   UNL     1       7.015   4.871  13.647  0.00  0.00    +0.000 C 
ENDBRANCH  20  21
ENDBRANCH  19  20
ENDBRANCH   8  19
TORSDOF 5
ENDMDL
MODEL 3
REMARK VINA RESULT:      -7.2      1.345      2.281
REMARK  Name = 
REMARK  6 active torsions:
REMARK  status: ('A' for Active; 'I' for Inactive)
REMARK    1  A    between atoms: C_1  and  O_2
REMARK    2  A    between atoms: O_2  and  C_3
REMARK    3  A    between atoms: C_8  and  C_9
REMARK    4  A    between atoms: C_16  and  C_17
REMARK    5  A    between atoms: C_17  and  C_18
REMARK    6  A    between atoms: C_18  and  N_19
REMARK                            x       y       z     vdW  Elec       q    Type
REMARK                         _______ _______ _______ _____ _____    ______ ____
ROOT
ATOM      1  C   UNL     1       3.194   6.330  18.996  0.00  0.00    +0.000 C 
ATOM      2  O   UNL     1       4.380   6.624  18.852  0.00  0.00    +0.000 OA
ATOM      3  N   UNL     1       2.725   4.998  18.874  0.00  0.00    +0.000 N 
ATOM      4  C   UNL     1       1.306   4.631  18.867  0.00  0.00    +0.000 C 
ATOM      5  C   UNL     1       0.961   3.803  20.107  0.00  0.00    +0.000 C 
ATOM      6  C   UNL     1       1.812   2.550  20.177  0.00  0.00    +0.000 C 
ATOM      7  C   UNL     1       3.292   2.909  20.076  0.00  0.00    +0.000 C 
ATOM      8  C   UNL     1       3.616   3.787  18.839  0.00  0.00    +0.000 C 
ENDROOT
BRANCH   1  14
ATOM      9  C   UNL     1       0.666   8.609  20.790  0.00  0.00    +0.000 A 
ATOM     10  C   UNL     1       0.567   9.673  19.895  0.00  0.00    +0.000 A 
ATOM     11  C   UNL     1       1.206   9.586  18.676  0.00  0.00    +0.000 A 
ATOM     12  C   UNL     1       1.967   8.460  18.377  0.00  0.00    +0.000 A 
ATOM     13  F   UNL     1       2.345   8.355  17.109  0.00  0.00    +0.000 F 
ATOM     14  C   UNL     1       2.272   7.477  19.317  0.00  0.00    +0.000 A 
ATOM     15  C   UNL     1       1.561   7.544  20.525  0.00  0.00    +0.000 A 
ATOM     16  F   UNL     1       1.699   6.579  21.447  0.00  0.00    +0.000 F 
BRANCH   9  18
ATOM     17  C   UNL     1       0.308   9.462  22.960  0.00  0.00    +0.000 C 
ATOM     18  O   UNL     1      -0.091   8.544  21.936  0.00  0.00    +0.000 OA
ENDBRANCH   9  18
ENDBRANCH   1  14
BRANCH   8  19
ATOM     19  C   UNL     1       5.146   3.978  18.668  0.00  0.00    +0.000 C 
BRANCH  19  20
ATOM     20  C   UNL     1       5.548   4.163  17.182  0.00  0.00    +0.000 C 
BRANCH  20  21
ATOM     21  N   UNL     1       6.943   4.554  16.916  0.00  0.00    +0.000 NA
ATOM     22  C   UNL     1       7.779   4.625  18.119  0.00  0.00    +0.000 C 
ATOM     23  C   UNL     1       7.574   6.030  18.650  0.00  0.00    +0.000 C 
ATOM     24  C   UNL     1       7.542   6.857  17.381  0.00  0.00    +0.000 C 
ATOM     25  C   UNL     1       6.986   5.912  16.322  0.00  0.00    +0.000 C 
ENDBRANCH  20  21
ENDBRANCH  19  20
ENDBRANCH   8  19
TORSDOF 5
ENDMDL
MODEL 4
REMARK VINA RESULT:      -7.1      2.424      6.464
REMARK  Name = 
REMARK  6 active torsions:
REMARK  status: ('A' for Active; 'I' for Inactive)
REMARK    1  A    between atoms: C_1  and  O_2
REMARK    2  A    between atoms: O_2  and  C_3
REMARK    3  A    between atoms: C_8  and  C_9
REMARK    4  A    between atoms: C_16  and  C_17
REMARK    5  A    between atoms: C_17  and  C_18
REMARK    6  A    between atoms: C_18  and  N_19
REMARK                            x       y       z     vdW  Elec       q    Type
REMARK                         _______ _______ _______ _____ _____    ______ ____
ROOT
ATOM      1  C   UNL     1       3.922   5.661  18.851  0.00  0.00    +0.000 C 
ATOM      2  O   UNL     1       3.526   6.805  18.631  0.00  0.00    +0.000 OA
ATOM      3  N   UNL     1       3.268   4.796  19.762  0.00  0.00    +0.000 N 
ATOM      4  C   UNL     1       3.803   3.497  20.181  0.00  0.00    +0.000 C 
ATOM      5  C   UNL     1       2.905   2.362  19.681  0.00  0.00    +0.000 C 
ATOM      6  C   UNL     1       1.490   2.522  20.199  0.00  0.00    +0.000 C 
ATOM      7  C   UNL     1       0.957   3.913  19.866  0.00  0.00    +0.000 C 
ATOM      8  C   UNL     1       1.902   5.050  20.338  0.00  0.00    +0.000 C 
ENDROOT
BRANCH   1  14
ATOM      9  C   UNL     1       6.220   4.147  16.162  0.00  0.00    +0.000 A 
ATOM     10  C   UNL     1       7.481   4.480  16.653  0.00  0.00    +0.000 A 
ATOM     11  C   UNL     1       7.582   5.067  17.897  0.00  0.00    +0.000 A 
ATOM     12  C   UNL     1       6.428   5.350  18.620  0.00  0.00    +0.000 A 
ATOM     13  F   UNL     1       6.625   5.689  19.888  0.00  0.00    +0.000 F 
ATOM     14  C   UNL     1       5.146   5.237  18.082  0.00  0.00    +0.000 A 
ATOM     15  C   UNL     1       5.058   4.577  16.848  0.00  0.00    +0.000 A 
ATOM     16  F   UNL     1       3.860   4.316  16.303  0.00  0.00    +0.000 F 
BRANCH   9  18
ATOM     17  C   UNL     1       6.312   4.105  13.804  0.00  0.00    +0.000 C 
ATOM     18  O   UNL     1       6.054   3.396  15.022  0.00  0.00    +0.000 OA
ENDBRANCH   9  18
ENDBRANCH   1  14
BRANCH   8  19
ATOM     19  C   UNL     1       1.247   6.443  20.147  0.00  0.00    +0.000 C 
BRANCH  19  20
ATOM     20  C   UNL     1       1.243   7.269  21.459  0.00  0.00    +0.000 C 
BRANCH  20  21
ATOM     21  N   UNL     1       1.526   8.709  21.337  0.00  0.00    +0.000 NA
ATOM     22  C   UNL     1       0.946   9.521  22.413  0.00  0.00    +0.000 C 
ATOM     23  C   UNL     1      -0.458   9.843  21.940  0.00  0.00    +0.000 C 
ATOM     24  C   UNL     1      -0.252  10.106  20.463  0.00  0.00    +0.000 C 
ATOM     25  C   UNL     1       0.943   9.239  20.082  0.00  0.00    +0.000 C 
ENDBRANCH  20  21
ENDBRANCH  19  20
ENDBRANCH   8  19
TORSDOF 5
ENDMDL
MODEL 5
REMARK VINA RESULT:      -7.1      2.587      6.826
REMARK  Name = 
REMARK  6 active torsions:
REMARK  status: ('A' for Active; 'I' for Inactive)
REMARK    1  A    between atoms: C_1  and  O_2
REMARK    2  A    between atoms: O_2  and  C_3
REMARK    3  A    between atoms: C_8  and  C_9
REMARK    4  A    between atoms: C_16  and  C_17
REMARK    5  A    between atoms: C_17  and  C_18
REMARK    6  A    between atoms: C_18  and  N_19
REMARK                            x       y       z     vdW  Elec       q    Type
REMARK                         _______ _______ _______ _____ _____    ______ ____
ROOT
ATOM      1  C   UNL     1       3.877   6.110  18.075  0.00  0.00    +0.000 C 
ATOM      2  O   UNL     1       3.498   7.217  17.696  0.00  0.00    +0.000 OA
ATOM      3  N   UNL     1       3.566   5.605  19.362  0.00  0.00    +0.000 N 
ATOM      4  C   UNL     1       4.138   4.373  19.915  0.00  0.00    +0.000 C 
ATOM      5  C   UNL     1       3.049   3.314  20.101  0.00  0.00    +0.000 C 
ATOM      6  C   UNL     1       1.950   3.820  21.014  0.00  0.00    +0.000 C 
ATOM      7  C   UNL     1       1.419   5.159  20.510  0.00  0.00    +0.000 C 
ATOM      8  C   UNL     1       2.540   6.207  20.282  0.00  0.00    +0.000 C 
ENDROOT
BRANCH   1  14
ATOM      9  C   UNL     1       6.587   5.093  15.541  0.00  0.00    +0.000 A 
ATOM     10  C   UNL     1       6.203   3.789  15.231  0.00  0.00    +0.000 A 
ATOM     11  C   UNL     1       5.015   3.303  15.734  0.00  0.00    +0.000 A 
ATOM     12  C   UNL     1       4.243   4.103  16.570  0.00  0.00    +0.000 A 
ATOM     13  F   UNL     1       3.019   3.651  16.812  0.00  0.00    +0.000 F 
ATOM     14  C   UNL     1       4.688   5.322  17.080  0.00  0.00    +0.000 A 
ATOM     15  C   UNL     1       5.862   5.832  16.507  0.00  0.00    +0.000 A 
ATOM     16  F   UNL     1       6.309   7.051  16.848  0.00  0.00    +0.000 F 
BRANCH   9  18
ATOM     17  C   UNL     1       7.837   5.346  13.556  0.00  0.00    +0.000 C 
ATOM     18  O   UNL     1       7.656   5.705  14.930  0.00  0.00    +0.000 OA
ENDBRANCH   9  18
ENDBRANCH   1  14
BRANCH   8  19
ATOM     19  C   UNL     1       1.950   7.602  19.948  0.00  0.00    +0.000 C 
BRANCH  19  20
ATOM     20  C   UNL     1       1.419   8.327  21.212  0.00  0.00    +0.000 C 
BRANCH  20  21
ATOM     21  N   UNL     1       0.026   8.805  21.167  0.00  0.00    +0.000 NA
ATOM     22  C   UNL     1      -0.151  10.047  20.406  0.00  0.00    +0.000 C 
ATOM     23  C   UNL     1       0.109  11.155  21.407  0.00  0.00    +0.000 C 
ATOM     24  C   UNL     1      -0.556  10.623  22.660  0.00  0.00    +0.000 C 
ATOM     25  C   UNL     1      -0.453   9.107  22.537  0.00  0.00    +0.000 C 
ENDBRANCH  20  21
ENDBRANCH  19  20
ENDBRANCH   8  19
TORSDOF 5
ENDMDL
MODEL 6
REMARK VINA RESULT:      -7.0      2.431      6.235
REMARK  Name = 
REMARK  6 active torsions:
REMARK  status: ('A' for Active; 'I' for Inactive)
REMARK    1  A    between atoms: C_1  and  O_2
REMARK    2  A    between atoms: O_2  and  C_3
REMARK    3  A    between atoms: C_8  and  C_9
REMARK    4  A    between atoms: C_16  and  C_17
REMARK    5  A    between atoms: C_17  and  C_18
REMARK    6  A    between atoms: C_18  and  N_19
REMARK                            x       y       z     vdW  Elec       q    Type
REMARK                         _______ _______ _______ _____ _____    ______ ____
ROOT
ATOM      1  C   UNL     1       4.376   4.890  18.969  0.00  0.00    +0.000 C 
ATOM      2  O   UNL     1       4.417   5.965  19.567  0.00  0.00    +0.000 OA
ATOM      3  N   UNL     1       3.498   3.846  19.352  0.00  0.00    +0.000 N 
ATOM      4  C   UNL     1       3.538   2.496  18.781  0.00  0.00    +0.000 C 
ATOM      5  C   UNL     1       2.261   2.213  17.986  0.00  0.00    +0.000 C 
ATOM      6  C   UNL     1       1.033   2.359  18.862  0.00  0.00    +0.000 C 
ATOM      7  C   UNL     1       1.033   3.721  19.551  0.00  0.00    +0.000 C 
ATOM      8  C   UNL     1       2.353   4.012  20.313  0.00  0.00    +0.000 C 
ENDROOT
BRANCH   1  14
ATOM      9  C   UNL     1       5.753   4.379  15.414  0.00  0.00    +0.000 A 
ATOM     10  C   UNL     1       7.122   4.544  15.619  0.00  0.00    +0.000 A 
ATOM     11  C   UNL     1       7.594   4.685  16.907  0.00  0.00    +0.000 A 
ATOM     12  C   UNL     1       6.698   4.700  17.971  0.00  0.00    +0.000 A 
ATOM     13  F   UNL     1       7.249   4.601  19.174  0.00  0.00    +0.000 F 
ATOM     14  C   UNL     1       5.316   4.758  17.800  0.00  0.00    +0.000 A 
ATOM     15  C   UNL     1       4.852   4.544  16.494  0.00  0.00    +0.000 A 
ATOM     16  F   UNL     1       3.535   4.467  16.246  0.00  0.00    +0.000 F 
BRANCH   9  18
ATOM     17  C   UNL     1       6.215   3.741  13.190  0.00  0.00    +0.000 C 
ATOM     18  O   UNL     1       5.233   4.048  14.185  0.00  0.00    +0.000 OA
ENDBRANCH   9  18
ENDBRANCH   1  14
BRANCH   8  19
ATOM     19  C   UNL     1       2.248   5.316  21.146  0.00  0.00    +0.000 C 
BRANCH  19  20
ATOM     20  C   UNL     1       1.424   6.408  20.417  0.00  0.00    +0.000 C 
BRANCH  20  21
ATOM     21  N   UNL     1       1.871   7.801  20.587  0.00  0.00    +0.000 NA
ATOM     22  C   UNL     1       1.226   8.500  21.704  0.00  0.00    +0.000 C 
ATOM     23  C   UNL     1      -0.051   9.069  21.118  0.00  0.00    +0.000 C 
ATOM     24  C   UNL     1       0.398   9.534  19.748  0.00  0.00    +0.000 C 
ATOM     25  C   UNL     1       1.540   8.594  19.379  0.00  0.00    +0.000 C 
ENDBRANCH  20  21
ENDBRANCH  19  20
ENDBRANCH   8  19
TORSDOF 5
ENDMDL
MODEL 7
REMARK VINA RESULT:      -7.0      2.581      6.780
REMARK  Name = 
REMARK  6 active torsions:
REMARK  status: ('A' for Active; 'I' for Inactive)
REMARK    1  A    between atoms: C_1  and  O_2
REMARK    2  A    between atoms: O_2  and  C_3
REMARK    3  A    between atoms: C_8  and  C_9
REMARK    4  A    between atoms: C_16  and  C_17
REMARK    5  A    between atoms: C_17  and  C_18
REMARK    6  A    between atoms: C_18  and  N_19
REMARK                            x       y       z     vdW  Elec       q    Type
REMARK                         _______ _______ _______ _____ _____    ______ ____
ROOT
ATOM      1  C   UNL     1       4.021   5.998  18.824  0.00  0.00    +0.000 C 
ATOM      2  O   UNL     1       3.695   7.137  18.497  0.00  0.00    +0.000 OA
ATOM      3  N   UNL     1       3.349   5.282  19.845  0.00  0.00    +0.000 N 
ATOM      4  C   UNL     1       3.810   3.999  20.382  0.00  0.00    +0.000 C 
ATOM      5  C   UNL     1       2.817   2.886  20.038  0.00  0.00    +0.000 C 
ATOM      6  C   UNL     1       1.439   3.201  20.585  0.00  0.00    +0.000 C 
ATOM      7  C   UNL     1       0.989   4.584  20.123  0.00  0.00    +0.000 C 
ATOM      8  C   UNL     1       2.028   5.693  20.437  0.00  0.00    +0.000 C 
ENDROOT
BRANCH   1  14
ATOM      9  C   UNL     1       6.102   4.147  16.169  0.00  0.00    +0.000 A 
ATOM     10  C   UNL     1       7.397   4.336  16.649  0.00  0.00    +0.000 A 
ATOM     11  C   UNL     1       7.576   4.936  17.878  0.00  0.00    +0.000 A 
ATOM     12  C   UNL     1       6.469   5.376  18.596  0.00  0.00    +0.000 A 
ATOM     13  F   UNL     1       6.713   5.721  19.854  0.00  0.00    +0.000 F 
ATOM     14  C   UNL     1       5.180   5.408  18.064  0.00  0.00    +0.000 A 
ATOM     15  C   UNL     1       5.005   4.733  16.847  0.00  0.00    +0.000 A 
ATOM     16  F   UNL     1       3.781   4.607  16.311  0.00  0.00    +0.000 F 
BRANCH   9  18
ATOM     17  C   UNL     1       6.291   3.980  13.823  0.00  0.00    +0.000 C 
ATOM     18  O   UNL     1       5.840   3.394  15.049  0.00  0.00    +0.000 OA
ENDBRANCH   9  18
ENDBRANCH   1  14
BRANCH   8  19
ATOM     19  C   UNL     1       1.462   7.103  20.120  0.00  0.00    +0.000 C 
BRANCH  19  20
ATOM     20  C   UNL     1       1.089   7.883  21.407  0.00  0.00    +0.000 C 
BRANCH  20  21
ATOM     21  N   UNL     1      -0.218   8.563  21.414  0.00  0.00    +0.000 NA
ATOM     22  C   UNL     1      -0.303   9.694  20.484  0.00  0.00    +0.000 C 
ATOM     23  C   UNL     1       0.225  10.880  21.267  0.00  0.00    +0.000 C 
ATOM     24  C   UNL     1      -0.360  10.647  22.645  0.00  0.00    +0.000 C 
ATOM     25  C   UNL     1      -0.488   9.132  22.756  0.00  0.00    +0.000 C 
ENDBRANCH  20  21
ENDBRANCH  19  20
ENDBRANCH   8  19
TORSDOF 5
ENDMDL
MODEL 8
REMARK VINA RESULT:      -6.9      3.186      4.969
REMARK  Name = 
REMARK  6 active torsions:
REMARK  status: ('A' for Active; 'I' for Inactive)
REMARK    1  A    between atoms: C_1  and  O_2
REMARK    2  A    between atoms: O_2  and  C_3
REMARK    3  A    between atoms: C_8  and  C_9
REMARK    4  A    between atoms: C_16  and  C_17
REMARK    5  A    between atoms: C_17  and  C_18
REMARK    6  A    between atoms: C_18  and  N_19
REMARK                            x       y       z     vdW  Elec       q    Type
REMARK                         _______ _______ _______ _____ _____    ______ ____
ROOT
ATOM      1  C   UNL     1       3.961   4.025  17.482  0.00  0.00    +0.000 C 
ATOM      2  O   UNL     1       3.302   3.753  16.480  0.00  0.00    +0.000 OA
ATOM      3  N   UNL     1       5.335   4.362  17.415  0.00  0.00    +0.000 N 
ATOM      4  C   UNL     1       6.195   4.522  18.592  0.00  0.00    +0.000 C 
ATOM      5  C   UNL     1       6.654   5.977  18.726  0.00  0.00    +0.000 C 
ATOM      6  C   UNL     1       7.399   6.427  17.486  0.00  0.00    +0.000 C 
ATOM      7  C   UNL     1       6.559   6.165  16.239  0.00  0.00    +0.000 C 
ATOM      8  C   UNL     1       6.063   4.699  16.142  0.00  0.00    +0.000 C 
ENDROOT
BRANCH   1  14
ATOM      9  C   UNL     1       1.709   4.985  20.449  0.00  0.00    +0.000 A 
ATOM     10  C   UNL     1       1.792   3.843  21.244  0.00  0.00    +0.000 A 
ATOM     11  C   UNL     1       2.667   2.839  20.884  0.00  0.00    +0.000 A 
ATOM     12  C   UNL     1       3.419   2.966  19.721  0.00  0.00    +0.000 A 
ATOM     13  F   UNL     1       4.394   2.077  19.580  0.00  0.00    +0.000 F 
ATOM     14  C   UNL     1       3.211   3.980  18.788  0.00  0.00    +0.000 A 
ATOM     15  C   UNL     1       2.371   5.026  19.199  0.00  0.00    +0.000 A 
ATOM     16  F   UNL     1       2.199   6.104  18.418  0.00  0.00    +0.000 F 
BRANCH   9  18
ATOM     17  C   UNL     1       1.771   7.307  20.866  0.00  0.00    +0.000 C 
ATOM     18  O   UNL     1       1.003   6.099  20.842  0.00  0.00    +0.000 OA
ENDBRANCH   9  18
ENDBRANCH   1  14
BRANCH   8  19
ATOM     19  C   UNL     1       5.371   4.425  14.780  0.00  0.00    +0.000 C 
BRANCH  19  20
ATOM     20  C   UNL     1       6.208   3.479  13.882  0.00  0.00    +0.000 C 
BRANCH  20  21
ATOM     21  N   UNL     1       6.118   3.694  12.427  0.00  0.00    +0.000 NA
ATOM     22  C   UNL     1       5.112   2.854  11.766  0.00  0.00    +0.000 C 
ATOM     23  C   UNL     1       5.837   1.562  11.446  0.00  0.00    +0.000 C 
ATOM     24  C   UNL     1       7.202   2.054  11.009  0.00  0.00    +0.000 C 
ATOM     25  C   UNL     1       7.407   3.353  11.780  0.00  0.00    +0.000 C 
ENDBRANCH  20  21
ENDBRANCH  19  20
ENDBRANCH   8  19
TORSDOF 5
ENDMDL
MODEL 9
REMARK VINA RESULT:      -6.9      1.662      2.805
REMARK  Name = 
REMARK  6 active torsions:
REMARK  status: ('A' for Active; 'I' for Inactive)
REMARK    1  A    between atoms: C_1  and  O_2
REMARK    2  A    between atoms: O_2  and  C_3
REMARK    3  A    between atoms: C_8  and  C_9
REMARK    4  A    between atoms: C_16  and  C_17
REMARK    5  A    between atoms: C_17  and  C_18
REMARK    6  A    between atoms: C_18  and  N_19
REMARK                            x       y       z     vdW  Elec       q    Type
REMARK                         _______ _______ _______ _____ _____    ______ ____
ROOT
ATOM      1  C   UNL     1       3.255   6.239  18.745  0.00  0.00    +0.000 C 
ATOM      2  O   UNL     1       4.443   6.492  18.554  0.00  0.00    +0.000 OA
ATOM      3  N   UNL     1       2.729   4.931  18.607  0.00  0.00    +0.000 N 
ATOM      4  C   UNL     1       1.298   4.618  18.656  0.00  0.00    +0.000 C 
ATOM      5  C   UNL     1       0.978   3.766  19.887  0.00  0.00    +0.000 C 
ATOM      6  C   UNL     1       1.781   2.481  19.881  0.00  0.00    +0.000 C 
ATOM      7  C   UNL     1       3.267   2.785  19.720  0.00  0.00    +0.000 C 
ATOM      8  C   UNL     1       3.569   3.688  18.495  0.00  0.00    +0.000 C 
ENDROOT
BRANCH   1  14
ATOM      9  C   UNL     1       0.899   8.554  20.717  0.00  0.00    +0.000 A 
ATOM     10  C   UNL     1       0.805   9.650  19.862  0.00  0.00    +0.000 A 
ATOM     11  C   UNL     1       1.389   9.579  18.614  0.00  0.00    +0.000 A 
ATOM     12  C   UNL     1       2.090   8.435  18.247  0.00  0.00    +0.000 A 
ATOM     13  F   UNL     1       2.411   8.357  16.961  0.00  0.00    +0.000 F 
ATOM     14  C   UNL     1       2.395   7.410  19.142  0.00  0.00    +0.000 A 
ATOM     15  C   UNL     1       1.738   7.465  20.380  0.00  0.00    +0.000 A 
ATOM     16  F   UNL     1       1.875   6.465  21.265  0.00  0.00    +0.000 F 
BRANCH   9  18
ATOM     17  C   UNL     1       0.060   9.728  22.584  0.00  0.00    +0.000 C 
ATOM     18  O   UNL     1       0.189   8.481  21.893  0.00  0.00    +0.000 OA
ENDBRANCH   9  18
ENDBRANCH   1  14
BRANCH   8  19
ATOM     19  C   UNL     1       5.096   3.826  18.259  0.00  0.00    +0.000 C 
BRANCH  19  20
ATOM     20  C   UNL     1       5.481   3.574  16.778  0.00  0.00    +0.000 C 
BRANCH  20  21
ATOM     21  N   UNL     1       5.522   4.751  15.893  0.00  0.00    +0.000 NA
ATOM     22  C   UNL     1       5.005   4.496  14.544  0.00  0.00    +0.000 C 
ATOM     23  C   UNL     1       6.197   3.974  13.766  0.00  0.00    +0.000 C 
ATOM     24  C   UNL     1       7.327   4.845  14.278  0.00  0.00    +0.000 C 
ATOM     25  C   UNL     1       6.922   5.199  15.704  0.00  0.00    +0.000 C 
ENDBRANCH  20  21
ENDBRANCH  19  20
ENDBRANCH   8  19
TORSDOF 5
ENDMDL
