MODEL 1
REMARK VINA RESULT:      -8.8      0.000      0.000
REMARK  Name = 
REMARK  6 active torsions:
REMARK  status: ('A' for Active; 'I' for Inactive)
REMARK    1  A    between atoms: C_1  and  C_2
REMARK    2  A    between atoms: C_7  and  C_8
REMARK    3  A    between atoms: C_11  and  C_12
REMARK    4  A    between atoms: N_17  and  C_18
REMARK    5  A    between atoms: C_18  and  C_19
REMARK    6  A    between atoms: C_27  and  C_28
REMARK                            x       y       z     vdW  Elec       q    Type
REMARK                         _______ _______ _______ _____ _____    ______ ____
ROOT
ATOM      1  C   UNL     1       3.862   2.437  19.337  0.00  0.00    +0.000 C 
ATOM      2  C   UNL     1       3.259   3.779  19.653  0.00  0.00    +0.000 A 
ATOM      3  C   UNL     1       3.586   4.851  18.825  0.00  0.00    +0.000 A 
ATOM      4  C   UNL     1       2.983   6.095  19.019  0.00  0.00    +0.000 A 
ATOM      5  C   UNL     1       2.081   6.326  20.081  0.00  0.00    +0.000 A 
ATOM      6  C   UNL     1       1.780   5.262  20.937  0.00  0.00    +0.000 A 
ATOM      7  C   UNL     1       2.354   3.985  20.723  0.00  0.00    +0.000 A 
ATOM      8  C   UNL     1       1.990   2.828  21.619  0.00  0.00    +0.000 C 
ATOM      9  C   UNL     1       1.545   7.678  20.178  0.00  0.00    +0.000 A 
ATOM     10  O   UNL     1       0.854   8.138  21.251  0.00  0.00    +0.000 OA
ATOM     11  C   UNL     1       0.665   9.500  21.052  0.00  0.00    +0.000 A 
ATOM     12  C   UNL     1       1.176   9.863  19.807  0.00  0.00    +0.000 A 
ATOM     13  C   UNL     1       1.254  11.208  19.181  0.00  0.00    +0.000 C 
ATOM     14  C   UNL     1       1.721   8.681  19.258  0.00  0.00    +0.000 A 
ATOM     15  C   UNL     1       2.430   8.412  18.035  0.00  0.00    +0.000 C 
ATOM     16  O   UNL     1       2.334   9.100  17.030  0.00  0.00    +0.000 OA
ATOM     17  C   UNL     1       3.332   7.178  18.056  0.00  0.00    +0.000 C 
ATOM     18  O   UNL     1       4.318   7.117  17.337  0.00  0.00    +0.000 OA
ENDROOT
BRANCH  11  19
ATOM     19  C   UNL     1      -0.001  10.328  22.054  0.00  0.00    +0.000 C 
ATOM     20  O   UNL     1       0.403  10.348  23.223  0.00  0.00    +0.000 OA
ATOM     21  N   UNL     1      -1.128  11.069  21.692  0.00  0.00    +0.000 N 
ATOM     22  C   UNL     1      -1.792  11.915  22.688  0.00  0.00    +0.000 C 
ATOM     23  C   UNL     1      -2.243  13.257  22.072  0.00  0.00    +0.000 C 
ATOM     24  N   UNL     1      -2.998  13.154  20.797  0.00  0.00    +0.000 NA
ATOM     25  C   UNL     1      -2.251  12.280  19.866  0.00  0.00    +0.000 C 
ATOM     26  C   UNL     1      -1.893  10.905  20.458  0.00  0.00    +0.000 C 
BRANCH  24  27
ATOM     27  C   UNL     1      -4.381  12.673  20.970  0.00  0.00    +0.000 C 
BRANCH  27  28
ATOM     28  C   UNL     1      -5.246  12.878  19.747  0.00  0.00    +0.000 A 
ATOM     29  C   UNL     1      -5.386  11.861  18.792  0.00  0.00    +0.000 A 
ATOM     30  C   UNL     1      -6.111  12.088  17.622  0.00  0.00    +0.000 A 
ATOM     31  C   UNL     1      -6.717  13.324  17.406  0.00  0.00    +0.000 A 
ATOM     32  C   UNL     1      -6.620  14.327  18.369  0.00  0.00    +0.000 A 
ATOM     33  C   UNL     1      -5.892  14.104  19.536  0.00  0.00    +0.000 A 
ENDBRANCH  27  28
ENDBRANCH  24  27
ENDBRANCH  11  19
TORSDOF 3
ENDMDL
MODEL 2
REMARK VINA RESULT:      -8.8      1.451      2.078
REMARK  Name = 
REMARK  6 active torsions:
REMARK  status: ('A' for Active; 'I' for Inactive)
REMARK    1  A    between atoms: C_1  and  C_2
REMARK    2  A    between atoms: C_7  and  C_8
REMARK    3  A    between atoms: C_11  and  C_12
REMARK    4  A    between atoms: N_17  and  C_18
REMARK    5  A    between atoms: C_18  and  C_19
REMARK    6  A    between atoms: C_27  and  C_28
REMARK                            x       y       z     vdW  Elec       q    Type
REMARK                         _______ _______ _______ _____ _____    ______ ____
ROOT
ATOM      1  C   UNL     1       3.559   2.251  19.242  0.00  0.00    +0.000 C 
ATOM      2  C   UNL     1       3.014   3.611  19.589  0.00  0.00    +0.000 A 
ATOM      3  C   UNL     1       3.402   4.690  18.798  0.00  0.00    +0.000 A 
ATOM      4  C   UNL     1       2.855   5.954  19.021  0.00  0.00    +0.000 A 
ATOM      5  C   UNL     1       1.949   6.196  20.077  0.00  0.00    +0.000 A 
ATOM      6  C   UNL     1       1.585   5.123  20.897  0.00  0.00    +0.000 A 
ATOM      7  C   UNL     1       2.103   3.827  20.653  0.00  0.00    +0.000 A 
ATOM      8  C   UNL     1       1.672   2.663  21.508  0.00  0.00    +0.000 C 
ATOM      9  C   UNL     1       1.475   7.569  20.207  0.00  0.00    +0.000 A 
ATOM     10  O   UNL     1       0.789   8.028  21.284  0.00  0.00    +0.000 OA
ATOM     11  C   UNL     1       0.667   9.404  21.123  0.00  0.00    +0.000 A 
ATOM     12  C   UNL     1       1.213   9.778  19.896  0.00  0.00    +0.000 A 
ATOM     13  C   UNL     1       1.363  11.136  19.312  0.00  0.00    +0.000 C 
ATOM     14  C   UNL     1       1.711   8.589  19.319  0.00  0.00    +0.000 A 
ATOM     15  C   UNL     1       2.425   8.323  18.099  0.00  0.00    +0.000 C 
ATOM     16  O   UNL     1       2.376   9.043  17.114  0.00  0.00    +0.000 OA
ATOM     17  C   UNL     1       3.268   7.048  18.096  0.00  0.00    +0.000 C 
ATOM     18  O   UNL     1       4.261   6.961  17.388  0.00  0.00    +0.000 OA
ENDROOT
BRANCH  11  19
ATOM     19  C   UNL     1       0.025  10.232  22.140  0.00  0.00    +0.000 C 
ATOM     20  O   UNL     1       0.387  10.172  23.321  0.00  0.00    +0.000 OA
ATOM     21  N   UNL     1      -1.034  11.067  21.775  0.00  0.00    +0.000 N 
ATOM     22  C   UNL     1      -1.673  11.914  22.787  0.00  0.00    +0.000 C 
ATOM     23  C   UNL     1      -2.006  13.310  22.220  0.00  0.00    +0.000 C 
ATOM     24  N   UNL     1      -2.720  13.317  20.918  0.00  0.00    +0.000 NA
ATOM     25  C   UNL     1      -2.004  12.434  19.972  0.00  0.00    +0.000 C 
ATOM     26  C   UNL     1      -1.764  11.012  20.511  0.00  0.00    +0.000 C 
BRANCH  24  27
ATOM     27  C   UNL     1      -4.139  12.929  21.023  0.00  0.00    +0.000 C 
BRANCH  27  28
ATOM     28  C   UNL     1      -4.927  13.787  21.986  0.00  0.00    +0.000 A 
ATOM     29  C   UNL     1      -5.591  13.211  23.079  0.00  0.00    +0.000 A 
ATOM     30  C   UNL     1      -6.391  13.994  23.910  0.00  0.00    +0.000 A 
ATOM     31  C   UNL     1      -6.518  15.361  23.670  0.00  0.00    +0.000 A 
ATOM     32  C   UNL     1      -5.827  15.951  22.613  0.00  0.00    +0.000 A 
ATOM     33  C   UNL     1      -5.031  15.170  21.777  0.00  0.00    +0.000 A 
ENDBRANCH  27  28
ENDBRANCH  24  27
ENDBRANCH  11  19
TORSDOF 3
ENDMDL
MODEL 3
REMARK VINA RESULT:      -8.6      1.442      1.894
REMARK  Name = 
REMARK  6 active torsions:
REMARK  status: ('A' for Active; 'I' for Inactive)
REMARK    1  A    between atoms: C_1  and  C_2
REMARK    2  A    between atoms: C_7  and  C_8
REMARK    3  A    between atoms: C_11  and  C_12
REMARK    4  A    between atoms: N_17  and  C_18
REMARK    5  A    between atoms: C_18  and  C_19
REMARK    6  A    between atoms: C_27  and  C_28
REMARK                            x       y       z     vdW  Elec       q    Type
REMARK                         _______ _______ _______ _____ _____    ______ ____
ROOT
ATOM      1  C   UNL     1       4.245   1.781  20.333  0.00  0.00    +0.000 C 
ATOM      2  C   UNL     1       3.666   3.164  20.194  0.00  0.00    +0.000 A 
ATOM      3  C   UNL     1       4.282   4.043  19.306  0.00  0.00    +0.000 A 
ATOM      4  C   UNL     1       3.731   5.304  19.073  0.00  0.00    +0.000 A 
ATOM      5  C   UNL     1       2.582   5.751  19.762  0.00  0.00    +0.000 A 
ATOM      6  C   UNL     1       1.982   4.885  20.683  0.00  0.00    +0.000 A 
ATOM      7  C   UNL     1       2.510   3.588  20.895  0.00  0.00    +0.000 A 
ATOM      8  C   UNL     1       1.833   2.640  21.853  0.00  0.00    +0.000 C 
ATOM      9  C   UNL     1       2.129   7.098  19.437  0.00  0.00    +0.000 A 
ATOM     10  O   UNL     1       1.194   7.770  20.153  0.00  0.00    +0.000 OA
ATOM     11  C   UNL     1       1.157   9.065  19.649  0.00  0.00    +0.000 A 
ATOM     12  C   UNL     1       2.022   9.163  18.560  0.00  0.00    +0.000 A 
ATOM     13  C   UNL     1       2.361  10.353  17.737  0.00  0.00    +0.000 C 
ATOM     14  C   UNL     1       2.623   7.892  18.431  0.00  0.00    +0.000 A 
ATOM     15  C   UNL     1       3.630   7.375  17.543  0.00  0.00    +0.000 C 
ATOM     16  O   UNL     1       3.866   7.845  16.440  0.00  0.00    +0.000 OA
ATOM     17  C   UNL     1       4.407   6.166  18.063  0.00  0.00    +0.000 C 
ATOM     18  O   UNL     1       5.550   5.953  17.686  0.00  0.00    +0.000 OA
ENDROOT
BRANCH  11  19
ATOM     19  C   UNL     1       0.290  10.083  20.235  0.00  0.00    +0.000 C 
ATOM     20  O   UNL     1       0.587  10.620  21.309  0.00  0.00    +0.000 OA
ATOM     21  N   UNL     1      -0.903  10.419  19.592  0.00  0.00    +0.000 N 
ATOM     22  C   UNL     1      -1.772  11.452  20.166  0.00  0.00    +0.000 C 
ATOM     23  C   UNL     1      -2.371  12.355  19.067  0.00  0.00    +0.000 C 
ATOM     24  N   UNL     1      -2.991  11.641  17.921  0.00  0.00    +0.000 NA
ATOM     25  C   UNL     1      -2.043  10.622  17.420  0.00  0.00    +0.000 C 
ATOM     26  C   UNL     1      -1.528   9.664  18.509  0.00  0.00    +0.000 C 
BRANCH  24  27
ATOM     27  C   UNL     1      -4.293  11.029  18.246  0.00  0.00    +0.000 C 
BRANCH  27  28
ATOM     28  C   UNL     1      -5.435  12.019  18.266  0.00  0.00    +0.000 A 
ATOM     29  C   UNL     1      -6.096  12.323  19.465  0.00  0.00    +0.000 A 
ATOM     30  C   UNL     1      -7.207  13.167  19.463  0.00  0.00    +0.000 A 
ATOM     31  C   UNL     1      -7.652  13.730  18.268  0.00  0.00    +0.000 A 
ATOM     32  C   UNL     1      -6.975  13.469  17.079  0.00  0.00    +0.000 A 
ATOM     33  C   UNL     1      -5.869  12.622  17.077  0.00  0.00    +0.000 A 
ENDBRANCH  27  28
ENDBRANCH  24  27
ENDBRANCH  11  19
TORSDOF 3
ENDMDL
MODEL 4
REMARK VINA RESULT:      -8.4      0.722      1.094
REMARK  Name = 
REMARK  6 active torsions:
REMARK  status: ('A' for Active; 'I' for Inactive)
REMARK    1  A    between atoms: C_1  and  C_2
REMARK    2  A    between atoms: C_7  and  C_8
REMARK    3  A    between atoms: C_11  and  C_12
REMARK    4  A    between atoms: N_17  and  C_18
REMARK    5  A    between atoms: C_18  and  C_19
REMARK    6  A    between atoms: C_27  and  C_28
REMARK                            x       y       z     vdW  Elec       q    Type
REMARK                         _______ _______ _______ _____ _____    ______ ____
ROOT
ATOM      1  C   UNL     1       3.790   2.677  18.694  0.00  0.00    +0.000 C 
ATOM      2  C   UNL     1       3.190   3.966  19.188  0.00  0.00    +0.000 A 
ATOM      3  C   UNL     1       3.485   5.133  18.486  0.00  0.00    +0.000 A 
ATOM      4  C   UNL     1       2.882   6.339  18.847  0.00  0.00    +0.000 A 
ATOM      5  C   UNL     1       2.012   6.432  19.955  0.00  0.00    +0.000 A 
ATOM      6  C   UNL     1       1.743   5.270  20.686  0.00  0.00    +0.000 A 
ATOM      7  C   UNL     1       2.317   4.033  20.302  0.00  0.00    +0.000 A 
ATOM      8  C   UNL     1       1.987   2.773  21.062  0.00  0.00    +0.000 C 
ATOM      9  C   UNL     1       1.472   7.758  20.231  0.00  0.00    +0.000 A 
ATOM     10  O   UNL     1       0.811   8.078  21.372  0.00  0.00    +0.000 OA
ATOM     11  C   UNL     1       0.609   9.453  21.345  0.00  0.00    +0.000 A 
ATOM     12  C   UNL     1       1.079   9.967  20.138  0.00  0.00    +0.000 A 
ATOM     13  C   UNL     1       1.131  11.379  19.677  0.00  0.00    +0.000 C 
ATOM     14  C   UNL     1       1.613   8.866  19.434  0.00  0.00    +0.000 A 
ATOM     15  C   UNL     1       2.286   8.753  18.167  0.00  0.00    +0.000 C 
ATOM     16  O   UNL     1       2.155   9.556  17.256  0.00  0.00    +0.000 OA
ATOM     17  C   UNL     1       3.195   7.534  18.012  0.00  0.00    +0.000 C 
ATOM     18  O   UNL     1       4.158   7.568  17.261  0.00  0.00    +0.000 OA
ENDROOT
BRANCH  11  19
ATOM     19  C   UNL     1      -0.030  10.147  22.459  0.00  0.00    +0.000 C 
ATOM     20  O   UNL     1       0.378   9.990  23.617  0.00  0.00    +0.000 OA
ATOM     21  N   UNL     1      -1.137  10.963  22.214  0.00  0.00    +0.000 N 
ATOM     22  C   UNL     1      -1.774  11.677  23.325  0.00  0.00    +0.000 C 
ATOM     23  C   UNL     1      -2.189  13.105  22.909  0.00  0.00    +0.000 C 
ATOM     24  N   UNL     1      -2.950  13.205  21.638  0.00  0.00    +0.000 NA
ATOM     25  C   UNL     1      -2.231  12.452  20.586  0.00  0.00    +0.000 C 
ATOM     26  C   UNL     1      -1.911  10.997  20.975  0.00  0.00    +0.000 C 
BRANCH  24  27
ATOM     27  C   UNL     1      -4.346  12.742  21.750  0.00  0.00    +0.000 C 
BRANCH  27  28
ATOM     28  C   UNL     1      -5.244  13.270  20.655  0.00  0.00    +0.000 A 
ATOM     29  C   UNL     1      -5.327  14.647  20.399  0.00  0.00    +0.000 A 
ATOM     30  C   UNL     1      -6.225  15.135  19.451  0.00  0.00    +0.000 A 
ATOM     31  C   UNL     1      -7.033  14.252  18.737  0.00  0.00    +0.000 A 
ATOM     32  C   UNL     1      -6.927  12.879  18.952  0.00  0.00    +0.000 A 
ATOM     33  C   UNL     1      -6.034  12.389  19.903  0.00  0.00    +0.000 A 
ENDBRANCH  27  28
ENDBRANCH  24  27
ENDBRANCH  11  19
TORSDOF 3
ENDMDL
MODEL 5
REMARK VINA RESULT:      -8.1      1.139      1.582
REMARK  Name = 
REMARK  6 active torsions:
REMARK  status: ('A' for Active; 'I' for Inactive)
REMARK    1  A    between atoms: C_1  and  C_2
REMARK    2  A    between atoms: C_7  and  C_8
REMARK    3  A    between atoms: C_11  and  C_12
REMARK    4  A    between atoms: N_17  and  C_18
REMARK    5  A    between atoms: C_18  and  C_19
REMARK    6  A    between atoms: C_27  and  C_28
REMARK                            x       y       z     vdW  Elec       q    Type
REMARK                         _______ _______ _______ _____ _____    ______ ____
ROOT
ATOM      1  C   UNL     1       4.021   1.876  20.117  0.00  0.00    +0.000 C 
ATOM      2  C   UNL     1       3.471   3.277  20.090  0.00  0.00    +0.000 A 
ATOM      3  C   UNL     1       4.006   4.171  19.165  0.00  0.00    +0.000 A 
ATOM      4  C   UNL     1       3.470   5.452  19.037  0.00  0.00    +0.000 A 
ATOM      5  C   UNL     1       2.422   5.906  19.868  0.00  0.00    +0.000 A 
ATOM      6  C   UNL     1       1.907   5.024  20.825  0.00  0.00    +0.000 A 
ATOM      7  C   UNL     1       2.417   3.707  20.934  0.00  0.00    +0.000 A 
ATOM      8  C   UNL     1       1.827   2.744  21.933  0.00  0.00    +0.000 C 
ATOM      9  C   UNL     1       1.975   7.274  19.640  0.00  0.00    +0.000 A 
ATOM     10  O   UNL     1       1.148   7.945  20.481  0.00  0.00    +0.000 OA
ATOM     11  C   UNL     1       1.093   9.257  20.025  0.00  0.00    +0.000 A 
ATOM     12  C   UNL     1       1.829   9.371  18.847  0.00  0.00    +0.000 A 
ATOM     13  C   UNL     1       2.106  10.579  18.027  0.00  0.00    +0.000 C 
ATOM     14  C   UNL     1       2.372   8.089  18.609  0.00  0.00    +0.000 A 
ATOM     15  C   UNL     1       3.255   7.578  17.595  0.00  0.00    +0.000 C 
ATOM     16  O   UNL     1       3.376   8.079  16.487  0.00  0.00    +0.000 OA
ATOM     17  C   UNL     1       4.050   6.332  17.982  0.00  0.00    +0.000 C 
ATOM     18  O   UNL     1       5.135   6.102  17.469  0.00  0.00    +0.000 OA
ENDROOT
BRANCH  11  19
ATOM     19  C   UNL     1       0.330  10.277  20.740  0.00  0.00    +0.000 C 
ATOM     20  O   UNL     1       0.714  10.696  21.839  0.00  0.00    +0.000 OA
ATOM     21  N   UNL     1      -0.865  10.748  20.192  0.00  0.00    +0.000 N 
ATOM     22  C   UNL     1      -1.629  11.784  20.895  0.00  0.00    +0.000 C 
ATOM     23  C   UNL     1      -2.212  12.818  19.908  0.00  0.00    +0.000 C 
ATOM     24  N   UNL     1      -2.934  12.251  18.741  0.00  0.00    +0.000 NA
ATOM     25  C   UNL     1      -2.087  11.218  18.106  0.00  0.00    +0.000 C 
ATOM     26  C   UNL     1      -1.592  10.135  19.083  0.00  0.00    +0.000 C 
BRANCH  24  27
ATOM     27  C   UNL     1      -4.260  11.703  19.081  0.00  0.00    +0.000 C 
BRANCH  27  28
ATOM     28  C   UNL     1      -5.256  12.758  19.505  0.00  0.00    +0.000 A 
ATOM     29  C   UNL     1      -6.009  13.457  18.550  0.00  0.00    +0.000 A 
ATOM     30  C   UNL     1      -6.858  14.492  18.941  0.00  0.00    +0.000 A 
ATOM     31  C   UNL     1      -6.978  14.824  20.289  0.00  0.00    +0.000 A 
ATOM     32  C   UNL     1      -6.268  14.106  21.250  0.00  0.00    +0.000 A 
ATOM     33  C   UNL     1      -5.415  13.075  20.862  0.00  0.00    +0.000 A 
ENDBRANCH  27  28
ENDBRANCH  24  27
ENDBRANCH  11  19
TORSDOF 3
ENDMDL
MODEL 6
REMARK VINA RESULT:      -8.0      1.109      1.704
REMARK  Name = 
REMARK  6 active torsions:
REMARK  status: ('A' for Active; 'I' for Inactive)
REMARK    1  A    between atoms: C_1  and  C_2
REMARK    2  A    between atoms: C_7  and  C_8
REMARK    3  A    between atoms: C_11  and  C_12
REMARK    4  A    between atoms: N_17  and  C_18
REMARK    5  A    between atoms: C_18  and  C_19
REMARK    6  A    between atoms: C_27  and  C_28
REMARK                            x       y       z     vdW  Elec       q    Type
REMARK                         _______ _______ _______ _____ _____    ______ ____
ROOT
ATOM      1  C   UNL     1       3.547   1.943  19.348  0.00  0.00    +0.000 C 
ATOM      2  C   UNL     1       3.032   3.317  19.685  0.00  0.00    +0.000 A 
ATOM      3  C   UNL     1       3.427   4.379  18.874  0.00  0.00    +0.000 A 
ATOM      4  C   UNL     1       2.905   5.655  19.088  0.00  0.00    +0.000 A 
ATOM      5  C   UNL     1       2.019   5.927  20.153  0.00  0.00    +0.000 A 
ATOM      6  C   UNL     1       1.649   4.871  20.993  0.00  0.00    +0.000 A 
ATOM      7  C   UNL     1       2.141   3.563  20.758  0.00  0.00    +0.000 A 
ATOM      8  C   UNL     1       1.702   2.418  21.636  0.00  0.00    +0.000 C 
ATOM      9  C   UNL     1       1.571   7.309  20.272  0.00  0.00    +0.000 A 
ATOM     10  O   UNL     1       0.909   7.795  21.353  0.00  0.00    +0.000 OA
ATOM     11  C   UNL     1       0.808   9.169  21.175  0.00  0.00    +0.000 A 
ATOM     12  C   UNL     1       1.343   9.518  19.935  0.00  0.00    +0.000 A 
ATOM     13  C   UNL     1       1.508  10.865  19.331  0.00  0.00    +0.000 C 
ATOM     14  C   UNL     1       1.811   8.313  19.367  0.00  0.00    +0.000 A 
ATOM     15  C   UNL     1       2.503   8.018  18.141  0.00  0.00    +0.000 C 
ATOM     16  O   UNL     1       2.451   8.727  17.147  0.00  0.00    +0.000 OA
ATOM     17  C   UNL     1       3.323   6.729  18.142  0.00  0.00    +0.000 C 
ATOM     18  O   UNL     1       4.304   6.615  17.421  0.00  0.00    +0.000 OA
ENDROOT
BRANCH  11  19
ATOM     19  C   UNL     1       0.197  10.022  22.190  0.00  0.00    +0.000 C 
ATOM     20  O   UNL     1       0.514   9.911  23.381  0.00  0.00    +0.000 OA
ATOM     21  N   UNL     1      -0.784  10.941  21.812  0.00  0.00    +0.000 N 
ATOM     22  C   UNL     1      -1.392  11.813  22.823  0.00  0.00    +0.000 C 
ATOM     23  C   UNL     1      -1.602  13.241  22.278  0.00  0.00    +0.000 C 
ATOM     24  N   UNL     1      -2.270  13.330  20.954  0.00  0.00    +0.000 NA
ATOM     25  C   UNL     1      -1.589  12.415  20.011  0.00  0.00    +0.000 C 
ATOM     26  C   UNL     1      -1.475  10.968  20.524  0.00  0.00    +0.000 C 
BRANCH  24  27
ATOM     27  C   UNL     1      -3.716  13.046  21.005  0.00  0.00    +0.000 C 
BRANCH  27  28
ATOM     28  C   UNL     1      -4.575  14.286  20.903  0.00  0.00    +0.000 A 
ATOM     29  C   UNL     1      -4.299  15.414  21.689  0.00  0.00    +0.000 A 
ATOM     30  C   UNL     1      -5.149  16.520  21.659  0.00  0.00    +0.000 A 
ATOM     31  C   UNL     1      -6.268  16.516  20.828  0.00  0.00    +0.000 A 
ATOM     32  C   UNL     1      -6.526  15.418  20.010  0.00  0.00    +0.000 A 
ATOM     33  C   UNL     1      -5.682  14.310  20.043  0.00  0.00    +0.000 A 
ENDBRANCH  27  28
ENDBRANCH  24  27
ENDBRANCH  11  19
TORSDOF 3
ENDMDL
MODEL 7
REMARK VINA RESULT:      -7.6      3.870      6.742
REMARK  Name = 
REMARK  6 active torsions:
REMARK  status: ('A' for Active; 'I' for Inactive)
REMARK    1  A    between atoms: C_1  and  C_2
REMARK    2  A    between atoms: C_7  and  C_8
REMARK    3  A    between atoms: C_11  and  C_12
REMARK    4  A    between atoms: N_17  and  C_18
REMARK    5  A    between atoms: C_18  and  C_19
REMARK    6  A    between atoms: C_27  and  C_28
REMARK                            x       y       z     vdW  Elec       q    Type
REMARK                         _______ _______ _______ _____ _____    ______ ____
ROOT
ATOM      1  C   UNL     1       4.827   4.171  17.408  0.00  0.00    +0.000 C 
ATOM      2  C   UNL     1       4.045   5.416  17.729  0.00  0.00    +0.000 A 
ATOM      3  C   UNL     1       3.202   5.390  18.838  0.00  0.00    +0.000 A 
ATOM      4  C   UNL     1       2.525   6.545  19.231  0.00  0.00    +0.000 A 
ATOM      5  C   UNL     1       2.620   7.748  18.498  0.00  0.00    +0.000 A 
ATOM      6  C   UNL     1       3.436   7.768  17.362  0.00  0.00    +0.000 A 
ATOM      7  C   UNL     1       4.159   6.613  16.978  0.00  0.00    +0.000 A 
ATOM      8  C   UNL     1       5.076   6.652  15.781  0.00  0.00    +0.000 C 
ATOM      9  C   UNL     1       1.842   8.869  19.010  0.00  0.00    +0.000 A 
ATOM     10  O   UNL     1       1.634  10.018  18.319  0.00  0.00    +0.000 OA
ATOM     11  C   UNL     1       0.715  10.763  19.049  0.00  0.00    +0.000 A 
ATOM     12  C   UNL     1       0.419  10.099  20.239  0.00  0.00    +0.000 A 
ATOM     13  C   UNL     1      -0.542  10.474  21.308  0.00  0.00    +0.000 C 
ATOM     14  C   UNL     1       1.161   8.898  20.202  0.00  0.00    +0.000 A 
ATOM     15  C   UNL     1       1.243   7.775  21.098  0.00  0.00    +0.000 C 
ATOM     16  O   UNL     1       0.985   7.840  22.290  0.00  0.00    +0.000 OA
ATOM     17  C   UNL     1       1.691   6.459  20.464  0.00  0.00    +0.000 C 
ATOM     18  O   UNL     1       1.337   5.389  20.937  0.00  0.00    +0.000 OA
ENDROOT
BRANCH  11  19
ATOM     19  C   UNL     1       0.219  12.046  18.559  0.00  0.00    +0.000 C 
ATOM     20  O   UNL     1      -0.930  12.147  18.111  0.00  0.00    +0.000 OA
ATOM     21  N   UNL     1       1.068  13.155  18.561  0.00  0.00    +0.000 N 
ATOM     22  C   UNL     1       0.572  14.450  18.085  0.00  0.00    +0.000 C 
ATOM     23  C   UNL     1       1.092  15.607  18.966  0.00  0.00    +0.000 C 
ATOM     24  N   UNL     1       2.553  15.603  19.230  0.00  0.00    +0.000 NA
ATOM     25  C   UNL     1       2.953  14.257  19.697  0.00  0.00    +0.000 C 
ATOM     26  C   UNL     1       2.515  13.118  18.759  0.00  0.00    +0.000 C 
BRANCH  24  27
ATOM     27  C   UNL     1       3.361  16.013  18.067  0.00  0.00    +0.000 C 
BRANCH  27  28
ATOM     28  C   UNL     1       4.848  16.025  18.342  0.00  0.00    +0.000 A 
ATOM     29  C   UNL     1       5.677  15.014  17.836  0.00  0.00    +0.000 A 
ATOM     30  C   UNL     1       7.031  14.979  18.169  0.00  0.00    +0.000 A 
ATOM     31  C   UNL     1       7.571  15.965  18.993  0.00  0.00    +0.000 A 
ATOM     32  C   UNL     1       6.765  16.999  19.465  0.00  0.00    +0.000 A 
ATOM     33  C   UNL     1       5.411  17.033  19.138  0.00  0.00    +0.000 A 
ENDBRANCH  27  28
ENDBRANCH  24  27
ENDBRANCH  11  19
TORSDOF 3
ENDMDL
MODEL 8
REMARK VINA RESULT:      -7.6      2.161      3.502
REMARK  Name = 
REMARK  6 active torsions:
REMARK  status: ('A' for Active; 'I' for Inactive)
REMARK    1  A    between atoms: C_1  and  C_2
REMARK    2  A    between atoms: C_7  and  C_8
REMARK    3  A    between atoms: C_11  and  C_12
REMARK    4  A    between atoms: N_17  and  C_18
REMARK    5  A    between atoms: C_18  and  C_19
REMARK    6  A    between atoms: C_27  and  C_28
REMARK                            x       y       z     vdW  Elec       q    Type
REMARK                         _______ _______ _______ _____ _____    ______ ____
ROOT
ATOM      1  C   UNL     1       5.702   3.635  15.589  0.00  0.00    +0.000 C 
ATOM      2  C   UNL     1       4.891   4.656  16.342  0.00  0.00    +0.000 A 
ATOM      3  C   UNL     1       4.099   4.210  17.398  0.00  0.00    +0.000 A 
ATOM      4  C   UNL     1       3.400   5.126  18.184  0.00  0.00    +0.000 A 
ATOM      5  C   UNL     1       3.420   6.510  17.908  0.00  0.00    +0.000 A 
ATOM      6  C   UNL     1       4.183   6.959  16.825  0.00  0.00    +0.000 A 
ATOM      7  C   UNL     1       4.930   6.041  16.046  0.00  0.00    +0.000 A 
ATOM      8  C   UNL     1       5.791   6.533  14.910  0.00  0.00    +0.000 C 
ATOM      9  C   UNL     1       2.625   7.349  18.798  0.00  0.00    +0.000 A 
ATOM     10  O   UNL     1       2.346   8.654  18.551  0.00  0.00    +0.000 OA
ATOM     11  C   UNL     1       1.435   9.058  19.520  0.00  0.00    +0.000 A 
ATOM     12  C   UNL     1       1.216   8.012  20.416  0.00  0.00    +0.000 A 
ATOM     13  C   UNL     1       0.290   7.951  21.576  0.00  0.00    +0.000 C 
ATOM     14  C   UNL     1       1.997   6.934  19.945  0.00  0.00    +0.000 A 
ATOM     15  C   UNL     1       2.158   5.578  20.397  0.00  0.00    +0.000 C 
ATOM     16  O   UNL     1       1.951   5.218  21.546  0.00  0.00    +0.000 OA
ATOM     17  C   UNL     1       2.625   4.582  19.336  0.00  0.00    +0.000 C 
ATOM     18  O   UNL     1       2.330   3.399  19.421  0.00  0.00    +0.000 OA
ENDROOT
BRANCH  11  19
ATOM     19  C   UNL     1       0.872  10.405  19.516  0.00  0.00    +0.000 C 
ATOM     20  O   UNL     1       1.555  11.374  19.871  0.00  0.00    +0.000 OA
ATOM     21  N   UNL     1      -0.462  10.589  19.146  0.00  0.00    +0.000 N 
ATOM     22  C   UNL     1      -1.030  11.940  19.124  0.00  0.00    +0.000 C 
ATOM     23  C   UNL     1      -1.959  12.137  17.907  0.00  0.00    +0.000 C 
ATOM     24  N   UNL     1      -2.974  11.074  17.697  0.00  0.00    +0.000 NA
ATOM     25  C   UNL     1      -2.305   9.755  17.742  0.00  0.00    +0.000 C 
ATOM     26  C   UNL     1      -1.460   9.531  19.010  0.00  0.00    +0.000 C 
BRANCH  24  27
ATOM     27  C   UNL     1      -4.088  11.127  18.662  0.00  0.00    +0.000 C 
BRANCH  27  28
ATOM     28  C   UNL     1      -5.104  12.202  18.349  0.00  0.00    +0.000 A 
ATOM     29  C   UNL     1      -5.626  12.337  17.055  0.00  0.00    +0.000 A 
ATOM     30  C   UNL     1      -6.493  13.387  16.750  0.00  0.00    +0.000 A 
ATOM     31  C   UNL     1      -6.859  14.298  17.739  0.00  0.00    +0.000 A 
ATOM     32  C   UNL     1      -6.380  14.147  19.039  0.00  0.00    +0.000 A 
ATOM     33  C   UNL     1      -5.511  13.102  19.345  0.00  0.00    +0.000 A 
ENDBRANCH  27  28
ENDBRANCH  24  27
ENDBRANCH  11  19
TORSDOF 3
ENDMDL
MODEL 9
REMARK VINA RESULT:      -7.5      3.666      9.502
REMARK  Name = 
REMARK  6 active torsions:
REMARK  status: ('A' for Active; 'I' for Inactive)
REMARK    1  A    between atoms: C_1  and  C_2
REMARK    2  A    between atoms: C_7  and  C_8
REMARK    3  A    between atoms: C_11  and  C_12
REMARK    4  A    between atoms: N_17  and  C_18
REMARK    5  A    between atoms: C_18  and  C_19
REMARK    6  A    between atoms: C_27  and  C_28
REMARK                            x       y       z     vdW  Elec       q    Type
REMARK                         _______ _______ _______ _____ _____    ______ ____
ROOT
ATOM      1  C   UNL     1       3.582  17.503  20.465  0.00  0.00    +0.000 C 
ATOM      2  C   UNL     1       3.037  16.100  20.434  0.00  0.00    +0.000 A 
ATOM      3  C   UNL     1       1.825  15.886  19.782  0.00  0.00    +0.000 A 
ATOM      4  C   UNL     1       1.322  14.591  19.646  0.00  0.00    +0.000 A 
ATOM      5  C   UNL     1       1.981  13.475  20.207  0.00  0.00    +0.000 A 
ATOM      6  C   UNL     1       3.179  13.691  20.895  0.00  0.00    +0.000 A 
ATOM      7  C   UNL     1       3.719  14.996  21.003  0.00  0.00    +0.000 A 
ATOM      8  C   UNL     1       5.036  15.219  21.703  0.00  0.00    +0.000 C 
ATOM      9  C   UNL     1       1.331  12.186  20.008  0.00  0.00    +0.000 A 
ATOM     10  O   UNL     1       1.693  11.052  20.660  0.00  0.00    +0.000 OA
ATOM     11  C   UNL     1       0.745  10.087  20.341  0.00  0.00    +0.000 A 
ATOM     12  C   UNL     1      -0.162  10.613  19.422  0.00  0.00    +0.000 A 
ATOM     13  C   UNL     1      -1.372   9.982  18.835  0.00  0.00    +0.000 C 
ATOM     14  C   UNL     1       0.239  11.950  19.210  0.00  0.00    +0.000 A 
ATOM     15  C   UNL     1      -0.315  13.020  18.423  0.00  0.00    +0.000 C 
ATOM     16  O   UNL     1      -1.027  12.844  17.446  0.00  0.00    +0.000 OA
ATOM     17  C   UNL     1       0.052  14.431  18.881  0.00  0.00    +0.000 C 
ATOM     18  O   UNL     1      -0.696  15.371  18.658  0.00  0.00    +0.000 OA
ENDROOT
BRANCH  11  19
ATOM     19  C   UNL     1       0.800   8.750  20.925  0.00  0.00    +0.000 C 
ATOM     20  O   UNL     1       0.199   8.496  21.976  0.00  0.00    +0.000 OA
ATOM     21  N   UNL     1       1.572   7.764  20.307  0.00  0.00    +0.000 N 
ATOM     22  C   UNL     1       1.619   6.414  20.877  0.00  0.00    +0.000 C 
ATOM     23  C   UNL     1       1.594   5.337  19.772  0.00  0.00    +0.000 C 
ATOM     24  N   UNL     1       2.561   5.536  18.662  0.00  0.00    +0.000 NA
ATOM     25  C   UNL     1       2.440   6.923  18.162  0.00  0.00    +0.000 C 
ATOM     26  C   UNL     1       2.567   7.993  19.261  0.00  0.00    +0.000 C 
BRANCH  24  27
ATOM     27  C   UNL     1       3.956   5.237  19.039  0.00  0.00    +0.000 C 
BRANCH  27  28
ATOM     28  C   UNL     1       4.892   5.150  17.855  0.00  0.00    +0.000 A 
ATOM     29  C   UNL     1       4.740   4.140  16.895  0.00  0.00    +0.000 A 
ATOM     30  C   UNL     1       5.661   4.010  15.856  0.00  0.00    +0.000 A 
ATOM     31  C   UNL     1       6.730   4.900  15.756  0.00  0.00    +0.000 A 
ATOM     32  C   UNL     1       6.865   5.934  16.680  0.00  0.00    +0.000 A 
ATOM     33  C   UNL     1       5.949   6.063  17.722  0.00  0.00    +0.000 A 
ENDBRANCH  27  28
ENDBRANCH  24  27
ENDBRANCH  11  19
TORSDOF 3
ENDMDL
