MODEL 1
REMARK VINA RESULT:      -8.1      0.000      0.000
REMARK  Name = 
REMARK  8 active torsions:
REMARK  status: ('A' for Active; 'I' for Inactive)
REMARK    1  A    between atoms: C_1  and  O_2
REMARK    2  A    between atoms: O_2  and  C_3
REMARK    3  A    between atoms: C_3  and  C_4
REMARK    4  A    between atoms: C_4  and  C_5
REMARK    5  A    between atoms: N_7  and  C_8
REMARK    6  A    between atoms: C_12  and  C_13
REMARK    7  A    between atoms: C_17  and  N_18
REMARK    8  A    between atoms: N_18  and  C_19
REMARK                            x       y       z     vdW  Elec       q    Type
REMARK                         _______ _______ _______ _____ _____    ______ ____
ROOT
ATOM      1  C   UNL     1       3.645   4.429  18.494  0.00  0.00    +0.000 A 
ATOM      2  C   UNL     1       2.605   3.544  18.218  0.00  0.00    +0.000 A 
ATOM      3  N   UNL     1       1.387   3.618  18.803  0.00  0.00    +0.000 NA
ATOM      4  C   UNL     1       1.245   4.629  19.691  0.00  0.00    +0.000 A 
ATOM      5  C   UNL     1       2.277   5.499  20.043  0.00  0.00    +0.000 A 
ATOM      6  N   UNL     1       3.486   5.395  19.435  0.00  0.00    +0.000 NA
ENDROOT
BRANCH   1  11
ATOM      7  C   UNL     1       6.291   4.020  15.780  0.00  0.00    +0.000 A 
ATOM      8  C   UNL     1       7.399   4.373  16.543  0.00  0.00    +0.000 A 
ATOM      9  N   UNL     1       7.345   4.736  17.845  0.00  0.00    +0.000 NA
ATOM     10  C   UNL     1       6.126   4.734  18.423  0.00  0.00    +0.000 A 
ATOM     11  C   UNL     1       4.930   4.425  17.774  0.00  0.00    +0.000 A 
ATOM     12  C   UNL     1       5.040   4.063  16.416  0.00  0.00    +0.000 A 
BRANCH   7  15
ATOM     13  C   UNL     1       6.945   4.400  13.410  0.00  0.00    +0.000 C 
ATOM     14  O   UNL     1       7.615   5.416  13.572  0.00  0.00    +0.000 OA
ATOM     15  N   UNL     1       6.350   3.654  14.415  0.00  0.00    +0.000 N 
ATOM     16  H   UNL     1       5.998   2.737  14.172  0.00  0.00    +0.000 HD
BRANCH  13  17
ATOM     17  C   UNL     1       6.692   3.870  12.019  0.00  0.00    +0.000 C 
BRANCH  17  18
ATOM     18  C   UNL     1       5.363   3.139  11.969  0.00  0.00    +0.000 C 
BRANCH  18  20
ATOM     19  C   UNL     1       6.879   1.599  11.031  0.00  0.00    +0.000 C 
ATOM     20  O   UNL     1       5.602   1.774  11.634  0.00  0.00    +0.000 OA
ENDBRANCH  18  20
ENDBRANCH  17  18
ENDBRANCH  13  17
ENDBRANCH   7  15
ENDBRANCH   1  11
BRANCH   5  21
ATOM     21  N   UNL     1       2.037   6.546  20.964  0.00  0.00    +0.000 N 
ATOM     22  H   UNL     1       2.854   6.716  21.543  0.00  0.00    +0.000 HD
BRANCH  21  23
ATOM     23  C   UNL     1       1.462   7.797  20.627  0.00  0.00    +0.000 A 
ATOM     24  C   UNL     1       1.662   8.393  19.373  0.00  0.00    +0.000 A 
ATOM     25  C   UNL     1       1.162   9.669  19.095  0.00  0.00    +0.000 A 
ATOM     26  C   UNL     1       0.465  10.366  20.075  0.00  0.00    +0.000 A 
ATOM     27  C   UNL     1       0.280   9.791  21.331  0.00  0.00    +0.000 A 
ATOM     28 CL   UNL     1      -0.569  10.665  22.547  0.00  0.00    +0.000 Cl
ATOM     29  C   UNL     1       0.786   8.522  21.614  0.00  0.00    +0.000 A 
ENDBRANCH  21  23
ENDBRANCH   5  21
TORSDOF 7
ENDMDL
MODEL 2
REMARK VINA RESULT:      -8.0      0.968      1.161
REMARK  Name = 
REMARK  8 active torsions:
REMARK  status: ('A' for Active; 'I' for Inactive)
REMARK    1  A    between atoms: C_1  and  O_2
REMARK    2  A    between atoms: O_2  and  C_3
REMARK    3  A    between atoms: C_3  and  C_4
REMARK    4  A    between atoms: C_4  and  C_5
REMARK    5  A    between atoms: N_7  and  C_8
REMARK    6  A    between atoms: C_12  and  C_13
REMARK    7  A    between atoms: C_17  and  N_18
REMARK    8  A    between atoms: N_18  and  C_19
REMARK                            x       y       z     vdW  Elec       q    Type
REMARK                         _______ _______ _______ _____ _____    ______ ____
ROOT
ATOM      1  C   UNL     1       3.765   4.549  18.971  0.00  0.00    +0.000 A 
ATOM      2  C   UNL     1       2.869   3.484  19.044  0.00  0.00    +0.000 A 
ATOM      3  N   UNL     1       1.668   3.560  19.664  0.00  0.00    +0.000 NA
ATOM      4  C   UNL     1       1.392   4.763  20.218  0.00  0.00    +0.000 A 
ATOM      5  C   UNL     1       2.285   5.835  20.223  0.00  0.00    +0.000 A 
ATOM      6  N   UNL     1       3.480   5.723  19.592  0.00  0.00    +0.000 NA
ENDROOT
BRANCH   1  11
ATOM      7  C   UNL     1       6.291   4.002  16.169  0.00  0.00    +0.000 A 
ATOM      8  C   UNL     1       7.431   4.388  16.865  0.00  0.00    +0.000 A 
ATOM      9  N   UNL     1       7.434   4.814  18.149  0.00  0.00    +0.000 NA
ATOM     10  C   UNL     1       6.240   4.844  18.779  0.00  0.00    +0.000 A 
ATOM     11  C   UNL     1       5.017   4.506  18.198  0.00  0.00    +0.000 A 
ATOM     12  C   UNL     1       5.069   4.079  16.856  0.00  0.00    +0.000 A 
BRANCH   7  15
ATOM     13  C   UNL     1       6.738   4.313  13.741  0.00  0.00    +0.000 C 
ATOM     14  O   UNL     1       7.312   5.396  13.804  0.00  0.00    +0.000 OA
ATOM     15  N   UNL     1       6.291   3.570  14.822  0.00  0.00    +0.000 N 
ATOM     16  H   UNL     1       6.016   2.611  14.649  0.00  0.00    +0.000 HD
BRANCH  13  17
ATOM     17  C   UNL     1       6.442   3.687  12.399  0.00  0.00    +0.000 C 
BRANCH  17  18
ATOM     18  C   UNL     1       4.997   3.226  12.341  0.00  0.00    +0.000 C 
BRANCH  18  20
ATOM     19  C   UNL     1       3.388   3.114  10.624  0.00  0.00    +0.000 C 
ATOM     20  O   UNL     1       4.330   3.938  11.300  0.00  0.00    +0.000 OA
ENDBRANCH  18  20
ENDBRANCH  17  18
ENDBRANCH  13  17
ENDBRANCH   7  15
ENDBRANCH   1  11
BRANCH   5  21
ATOM     21  N   UNL     1       1.907   7.068  20.806  0.00  0.00    +0.000 N 
ATOM     22  H   UNL     1       2.593   7.372  21.491  0.00  0.00    +0.000 HD
BRANCH  21  23
ATOM     23  C   UNL     1       1.473   8.203  20.076  0.00  0.00    +0.000 A 
ATOM     24  C   UNL     1       1.920   8.464  18.772  0.00  0.00    +0.000 A 
ATOM     25  C   UNL     1       1.550   9.636  18.106  0.00  0.00    +0.000 A 
ATOM     26  C   UNL     1       0.737  10.565  18.744  0.00  0.00    +0.000 A 
ATOM     27  C   UNL     1       0.306  10.325  20.047  0.00  0.00    +0.000 A 
ATOM     28 CL   UNL     1      -0.688  11.487  20.840  0.00  0.00    +0.000 Cl
ATOM     29  C   UNL     1       0.680   9.160  20.718  0.00  0.00    +0.000 A 
ENDBRANCH  21  23
ENDBRANCH   5  21
TORSDOF 7
ENDMDL
MODEL 3
REMARK VINA RESULT:      -7.8      3.155      4.786
REMARK  Name = 
REMARK  8 active torsions:
REMARK  status: ('A' for Active; 'I' for Inactive)
REMARK    1  A    between atoms: C_1  and  O_2
REMARK    2  A    between atoms: O_2  and  C_3
REMARK    3  A    between atoms: C_3  and  C_4
REMARK    4  A    between atoms: C_4  and  C_5
REMARK    5  A    between atoms: N_7  and  C_8
REMARK    6  A    between atoms: C_12  and  C_13
REMARK    7  A    between atoms: C_17  and  N_18
REMARK    8  A    between atoms: N_18  and  C_19
REMARK                            x       y       z     vdW  Elec       q    Type
REMARK                         _______ _______ _______ _____ _____    ______ ____
ROOT
ATOM      1  C   UNL     1       3.471   4.860  18.561  0.00  0.00    +0.000 A 
ATOM      2  C   UNL     1       2.567   3.822  18.345  0.00  0.00    +0.000 A 
ATOM      3  N   UNL     1       1.410   3.685  19.035  0.00  0.00    +0.000 NA
ATOM      4  C   UNL     1       1.188   4.642  19.965  0.00  0.00    +0.000 A 
ATOM      5  C   UNL     1       2.094   5.662  20.256  0.00  0.00    +0.000 A 
ATOM      6  N   UNL     1       3.243   5.769  19.544  0.00  0.00    +0.000 NA
ENDROOT
BRANCH   1  11
ATOM      7  C   UNL     1       6.500   6.479  16.907  0.00  0.00    +0.000 A 
ATOM      8  C   UNL     1       6.854   5.417  16.082  0.00  0.00    +0.000 A 
ATOM      9  N   UNL     1       6.197   4.235  16.035  0.00  0.00    +0.000 NA
ATOM     10  C   UNL     1       5.123   4.108  16.842  0.00  0.00    +0.000 A 
ATOM     11  C   UNL     1       4.669   5.080  17.734  0.00  0.00    +0.000 A 
ATOM     12  C   UNL     1       5.394   6.289  17.751  0.00  0.00    +0.000 A 
BRANCH   7  15
ATOM     13  C   UNL     1       8.069   8.092  17.970  0.00  0.00    +0.000 C 
ATOM     14  O   UNL     1       8.459   7.379  18.890  0.00  0.00    +0.000 OA
ATOM     15  N   UNL     1       7.198   7.708  16.962  0.00  0.00    +0.000 N 
ATOM     16  H   UNL     1       7.112   8.319  16.160  0.00  0.00    +0.000 HD
BRANCH  13  17
ATOM     17  C   UNL     1       8.521   9.530  17.878  0.00  0.00    +0.000 C 
BRANCH  17  18
ATOM     18  C   UNL     1       9.121   9.977  19.198  0.00  0.00    +0.000 C 
BRANCH  18  20
ATOM     19  C   UNL     1      10.353  11.413  17.793  0.00  0.00    +0.000 C 
ATOM     20  O   UNL     1       9.668  11.285  19.034  0.00  0.00    +0.000 OA
ENDBRANCH  18  20
ENDBRANCH  17  18
ENDBRANCH  13  17
ENDBRANCH   7  15
ENDBRANCH   1  11
BRANCH   5  21
ATOM     21  N   UNL     1       1.771   6.638  21.229  0.00  0.00    +0.000 N 
ATOM     22  H   UNL     1       2.541   6.772  21.878  0.00  0.00    +0.000 HD
BRANCH  21  23
ATOM     23  C   UNL     1       1.206   7.905  20.940  0.00  0.00    +0.000 A 
ATOM     24  C   UNL     1       1.440   8.564  19.724  0.00  0.00    +0.000 A 
ATOM     25  C   UNL     1       0.947   9.852  19.497  0.00  0.00    +0.000 A 
ATOM     26  C   UNL     1       0.224  10.500  20.492  0.00  0.00    +0.000 A 
ATOM     27  C   UNL     1       0.005   9.862  21.712  0.00  0.00    +0.000 A 
ATOM     28 CL   UNL     1      -0.877  10.674  22.948  0.00  0.00    +0.000 Cl
ATOM     29  C   UNL     1       0.504   8.580  21.945  0.00  0.00    +0.000 A 
ENDBRANCH  21  23
ENDBRANCH   5  21
TORSDOF 7
ENDMDL
MODEL 4
REMARK VINA RESULT:      -7.7      6.308     10.688
REMARK  Name = 
REMARK  8 active torsions:
REMARK  status: ('A' for Active; 'I' for Inactive)
REMARK    1  A    between atoms: C_1  and  O_2
REMARK    2  A    between atoms: O_2  and  C_3
REMARK    3  A    between atoms: C_3  and  C_4
REMARK    4  A    between atoms: C_4  and  C_5
REMARK    5  A    between atoms: N_7  and  C_8
REMARK    6  A    between atoms: C_12  and  C_13
REMARK    7  A    between atoms: C_17  and  N_18
REMARK    8  A    between atoms: N_18  and  C_19
REMARK                            x       y       z     vdW  Elec       q    Type
REMARK                         _______ _______ _______ _____ _____    ______ ____
ROOT
ATOM      1  C   UNL     1       1.105   9.344  19.875  0.00  0.00    +0.000 A 
ATOM      2  C   UNL     1       1.089   9.945  18.617  0.00  0.00    +0.000 A 
ATOM      3  N   UNL     1       1.697   9.416  17.530  0.00  0.00    +0.000 NA
ATOM      4  C   UNL     1       2.333   8.243  17.751  0.00  0.00    +0.000 A 
ATOM      5  C   UNL     1       2.428   7.638  19.005  0.00  0.00    +0.000 A 
ATOM      6  N   UNL     1       1.805   8.197  20.073  0.00  0.00    +0.000 NA
ENDROOT
BRANCH   1  11
ATOM      7  C   UNL     1      -1.303  11.349  22.045  0.00  0.00    +0.000 A 
ATOM      8  C   UNL     1      -0.958  10.795  23.272  0.00  0.00    +0.000 A 
ATOM      9  N   UNL     1      -0.025   9.829  23.438  0.00  0.00    +0.000 NA
ATOM     10  C   UNL     1       0.608   9.402  22.324  0.00  0.00    +0.000 A 
ATOM     11  C   UNL     1       0.347   9.853  21.030  0.00  0.00    +0.000 A 
ATOM     12  C   UNL     1      -0.640  10.852  20.911  0.00  0.00    +0.000 A 
BRANCH   7  15
ATOM     13  C   UNL     1      -3.388  12.540  22.697  0.00  0.00    +0.000 C 
ATOM     14  O   UNL     1      -3.600  11.958  23.757  0.00  0.00    +0.000 OA
ATOM     15  N   UNL     1      -2.289  12.349  21.875  0.00  0.00    +0.000 N 
ATOM     16  H   UNL     1      -2.131  13.027  21.139  0.00  0.00    +0.000 HD
BRANCH  13  17
ATOM     17  C   UNL     1      -4.380  13.552  22.173  0.00  0.00    +0.000 C 
BRANCH  17  18
ATOM     18  C   UNL     1      -5.722  12.890  21.919  0.00  0.00    +0.000 C 
BRANCH  18  20
ATOM     19  C   UNL     1      -5.408  12.354  19.646  0.00  0.00    +0.000 C 
ATOM     20  O   UNL     1      -5.544  11.843  20.967  0.00  0.00    +0.000 OA
ENDBRANCH  18  20
ENDBRANCH  17  18
ENDBRANCH  13  17
ENDBRANCH   7  15
ENDBRANCH   1  11
BRANCH   5  21
ATOM     21  N   UNL     1       3.093   6.397  19.143  0.00  0.00    +0.000 N 
ATOM     22  H   UNL     1       3.761   6.426  19.908  0.00  0.00    +0.000 HD
BRANCH  21  23
ATOM     23  C   UNL     1       2.446   5.136  19.165  0.00  0.00    +0.000 A 
ATOM     24  C   UNL     1       1.905   4.559  18.006  0.00  0.00    +0.000 A 
ATOM     25  C   UNL     1       1.192   3.358  18.067  0.00  0.00    +0.000 A 
ATOM     26  C   UNL     1       1.003   2.729  19.292  0.00  0.00    +0.000 A 
ATOM     27  C   UNL     1       1.517   3.307  20.451  0.00  0.00    +0.000 A 
ATOM     28 CL   UNL     1       1.266   2.532  21.969  0.00  0.00    +0.000 Cl
ATOM     29  C   UNL     1       2.222   4.509  20.395  0.00  0.00    +0.000 A 
ENDBRANCH  21  23
ENDBRANCH   5  21
TORSDOF 7
ENDMDL
MODEL 5
REMARK VINA RESULT:      -7.7      3.303      5.080
REMARK  Name = 
REMARK  8 active torsions:
REMARK  status: ('A' for Active; 'I' for Inactive)
REMARK    1  A    between atoms: C_1  and  O_2
REMARK    2  A    between atoms: O_2  and  C_3
REMARK    3  A    between atoms: C_3  and  C_4
REMARK    4  A    between atoms: C_4  and  C_5
REMARK    5  A    between atoms: N_7  and  C_8
REMARK    6  A    between atoms: C_12  and  C_13
REMARK    7  A    between atoms: C_17  and  N_18
REMARK    8  A    between atoms: N_18  and  C_19
REMARK                            x       y       z     vdW  Elec       q    Type
REMARK                         _______ _______ _______ _____ _____    ______ ____
ROOT
ATOM      1  C   UNL     1       3.539   4.567  18.614  0.00  0.00    +0.000 A 
ATOM      2  C   UNL     1       2.752   3.422  18.496  0.00  0.00    +0.000 A 
ATOM      3  N   UNL     1       1.638   3.204  19.232  0.00  0.00    +0.000 NA
ATOM      4  C   UNL     1       1.335   4.190  20.107  0.00  0.00    +0.000 A 
ATOM      5  C   UNL     1       2.128   5.322  20.302  0.00  0.00    +0.000 A 
ATOM      6  N   UNL     1       3.238   5.508  19.545  0.00  0.00    +0.000 NA
ENDROOT
BRANCH   1  11
ATOM      7  C   UNL     1       6.417   6.357  16.869  0.00  0.00    +0.000 A 
ATOM      8  C   UNL     1       6.759   5.344  15.981  0.00  0.00    +0.000 A 
ATOM      9  N   UNL     1       6.140   4.142  15.920  0.00  0.00    +0.000 NA
ATOM     10  C   UNL     1       5.117   3.944  16.777  0.00  0.00    +0.000 A 
ATOM     11  C   UNL     1       4.681   4.862  17.733  0.00  0.00    +0.000 A 
ATOM     12  C   UNL     1       5.366   6.095  17.762  0.00  0.00    +0.000 A 
BRANCH   7  15
ATOM     13  C   UNL     1       7.969   7.989  17.926  0.00  0.00    +0.000 C 
ATOM     14  O   UNL     1       8.417   7.261  18.808  0.00  0.00    +0.000 OA
ATOM     15  N   UNL     1       7.075   7.608  16.939  0.00  0.00    +0.000 N 
ATOM     16  H   UNL     1       6.940   8.240  16.160  0.00  0.00    +0.000 HD
BRANCH  13  17
ATOM     17  C   UNL     1       8.371   9.443  17.865  0.00  0.00    +0.000 C 
BRANCH  17  18
ATOM     18  C   UNL     1       9.099   9.842  19.135  0.00  0.00    +0.000 C 
BRANCH  18  20
ATOM     19  C   UNL     1      10.052  11.804  20.026  0.00  0.00    +0.000 C 
ATOM     20  O   UNL     1       9.892  10.997  18.866  0.00  0.00    +0.000 OA
ENDBRANCH  18  20
ENDBRANCH  17  18
ENDBRANCH  13  17
ENDBRANCH   7  15
ENDBRANCH   1  11
BRANCH   5  21
ATOM     21  N   UNL     1       1.724   6.318  21.223  0.00  0.00    +0.000 N 
ATOM     22  H   UNL     1       2.349   6.348  22.023  0.00  0.00    +0.000 HD
BRANCH  21  23
ATOM     23  C   UNL     1       1.389   7.650  20.870  0.00  0.00    +0.000 A 
ATOM     24  C   UNL     1       0.575   8.452  21.684  0.00  0.00    +0.000 A 
ATOM     25  C   UNL     1       0.183   9.729  21.273  0.00  0.00    +0.000 A 
ATOM     26  C   UNL     1       0.591  10.212  20.035  0.00  0.00    +0.000 A 
ATOM     27  C   UNL     1       1.381   9.413  19.210  0.00  0.00    +0.000 A 
ATOM     28 CL   UNL     1       1.872  10.009  17.670  0.00  0.00    +0.000 Cl
ATOM     29  C   UNL     1       1.767   8.135  19.614  0.00  0.00    +0.000 A 
ENDBRANCH  21  23
ENDBRANCH   5  21
TORSDOF 7
ENDMDL
MODEL 6
REMARK VINA RESULT:      -7.6      5.854     10.217
REMARK  Name = 
REMARK  8 active torsions:
REMARK  status: ('A' for Active; 'I' for Inactive)
REMARK    1  A    between atoms: C_1  and  O_2
REMARK    2  A    between atoms: O_2  and  C_3
REMARK    3  A    between atoms: C_3  and  C_4
REMARK    4  A    between atoms: C_4  and  C_5
REMARK    5  A    between atoms: N_7  and  C_8
REMARK    6  A    between atoms: C_12  and  C_13
REMARK    7  A    between atoms: C_17  and  N_18
REMARK    8  A    between atoms: N_18  and  C_19
REMARK                            x       y       z     vdW  Elec       q    Type
REMARK                         _______ _______ _______ _____ _____    ______ ____
ROOT
ATOM      1  C   UNL     1       1.141   9.373  19.048  0.00  0.00    +0.000 A 
ATOM      2  C   UNL     1       1.750   9.499  17.800  0.00  0.00    +0.000 A 
ATOM      3  N   UNL     1       2.650   8.612  17.316  0.00  0.00    +0.000 NA
ATOM      4  C   UNL     1       2.925   7.576  18.141  0.00  0.00    +0.000 A 
ATOM      5  C   UNL     1       2.386   7.443  19.422  0.00  0.00    +0.000 A 
ATOM      6  N   UNL     1       1.486   8.352  19.874  0.00  0.00    +0.000 NA
ENDROOT
BRANCH   1  11
ATOM      7  C   UNL     1      -1.948  11.602  19.181  0.00  0.00    +0.000 A 
ATOM      8  C   UNL     1      -1.827  12.015  20.503  0.00  0.00    +0.000 A 
ATOM      9  N   UNL     1      -0.838  11.618  21.338  0.00  0.00    +0.000 NA
ATOM     10  C   UNL     1       0.086  10.779  20.826  0.00  0.00    +0.000 A 
ATOM     11  C   UNL     1       0.076  10.269  19.527  0.00  0.00    +0.000 A 
ATOM     12  C   UNL     1      -0.980  10.705  18.701  0.00  0.00    +0.000 A 
BRANCH   7  15
ATOM     13  C   UNL     1      -3.950  11.171  17.766  0.00  0.00    +0.000 C 
ATOM     14  O   UNL     1      -4.113   9.988  18.047  0.00  0.00    +0.000 OA
ATOM     15  N   UNL     1      -2.991  12.008  18.315  0.00  0.00    +0.000 N 
ATOM     16  H   UNL     1      -3.087  13.003  18.150  0.00  0.00    +0.000 HD
BRANCH  13  17
ATOM     17  C   UNL     1      -4.821  11.833  16.726  0.00  0.00    +0.000 C 
BRANCH  17  18
ATOM     18  C   UNL     1      -6.054  12.432  17.377  0.00  0.00    +0.000 C 
BRANCH  18  20
ATOM     19  C   UNL     1      -6.545  13.927  19.130  0.00  0.00    +0.000 C 
ATOM     20  O   UNL     1      -5.717  12.855  18.697  0.00  0.00    +0.000 OA
ENDBRANCH  18  20
ENDBRANCH  17  18
ENDBRANCH  13  17
ENDBRANCH   7  15
ENDBRANCH   1  11
BRANCH   5  21
ATOM     21  N   UNL     1       2.709   6.315  20.212  0.00  0.00    +0.000 N 
ATOM     22  H   UNL     1       2.556   6.505  21.198  0.00  0.00    +0.000 HD
BRANCH  21  23
ATOM     23  C   UNL     1       2.274   4.993  19.941  0.00  0.00    +0.000 A 
ATOM     24  C   UNL     1       1.159   4.431  20.581  0.00  0.00    +0.000 A 
ATOM     25  C   UNL     1       0.804   3.096  20.366  0.00  0.00    +0.000 A 
ATOM     26  C   UNL     1       1.568   2.307  19.515  0.00  0.00    +0.000 A 
ATOM     27  C   UNL     1       2.689   2.850  18.891  0.00  0.00    +0.000 A 
ATOM     28 CL   UNL     1       3.643   1.863  17.851  0.00  0.00    +0.000 Cl
ATOM     29  C   UNL     1       3.053   4.179  19.111  0.00  0.00    +0.000 A 
ENDBRANCH  21  23
ENDBRANCH   5  21
TORSDOF 7
ENDMDL
MODEL 7
REMARK VINA RESULT:      -7.6      4.602      7.331
REMARK  Name = 
REMARK  8 active torsions:
REMARK  status: ('A' for Active; 'I' for Inactive)
REMARK    1  A    between atoms: C_1  and  O_2
REMARK    2  A    between atoms: O_2  and  C_3
REMARK    3  A    between atoms: C_3  and  C_4
REMARK    4  A    between atoms: C_4  and  C_5
REMARK    5  A    between atoms: N_7  and  C_8
REMARK    6  A    between atoms: C_12  and  C_13
REMARK    7  A    between atoms: C_17  and  N_18
REMARK    8  A    between atoms: N_18  and  C_19
REMARK                            x       y       z     vdW  Elec       q    Type
REMARK                         _______ _______ _______ _____ _____    ______ ____
ROOT
ATOM      1  C   UNL     1       0.499   9.708  21.204  0.00  0.00    +0.000 A 
ATOM      2  C   UNL     1       0.420   9.560  22.587  0.00  0.00    +0.000 A 
ATOM      3  N   UNL     1      -0.307  10.376  23.385  0.00  0.00    +0.000 NA
ATOM      4  C   UNL     1      -0.965  11.364  22.735  0.00  0.00    +0.000 A 
ATOM      5  C   UNL     1      -0.866  11.586  21.361  0.00  0.00    +0.000 A 
ATOM      6  N   UNL     1      -0.127  10.747  20.593  0.00  0.00    +0.000 NA
ENDROOT
BRANCH   1  11
ATOM      7  C   UNL     1       2.304   6.614  19.898  0.00  0.00    +0.000 A 
ATOM      8  C   UNL     1       2.556   7.072  18.610  0.00  0.00    +0.000 A 
ATOM      9  N   UNL     1       2.179   8.286  18.144  0.00  0.00    +0.000 NA
ATOM     10  C   UNL     1       1.529   9.091  19.011  0.00  0.00    +0.000 A 
ATOM     11  C   UNL     1       1.191   8.753  20.322  0.00  0.00    +0.000 A 
ATOM     12  C   UNL     1       1.599   7.475  20.754  0.00  0.00    +0.000 A 
BRANCH   7  15
ATOM     13  C   UNL     1       1.823   4.298  20.670  0.00  0.00    +0.000 C 
ATOM     14  O   UNL     1       0.617   4.282  20.438  0.00  0.00    +0.000 OA
ATOM     15  N   UNL     1       2.688   5.340  20.377  0.00  0.00    +0.000 N 
ATOM     16  H   UNL     1       3.682   5.153  20.433  0.00  0.00    +0.000 HD
BRANCH  13  17
ATOM     17  C   UNL     1       2.483   3.121  21.347  0.00  0.00    +0.000 C 
BRANCH  17  18
ATOM     18  C   UNL     1       3.581   2.555  20.466  0.00  0.00    +0.000 C 
BRANCH  18  20
ATOM     19  C   UNL     1       3.546   1.575  18.324  0.00  0.00    +0.000 C 
ATOM     20  O   UNL     1       3.201   2.716  19.100  0.00  0.00    +0.000 OA
ENDBRANCH  18  20
ENDBRANCH  17  18
ENDBRANCH  13  17
ENDBRANCH   7  15
ENDBRANCH   1  11
BRANCH   5  21
ATOM     21  N   UNL     1      -1.607  12.629  20.757  0.00  0.00    +0.000 N 
ATOM     22  H   UNL     1      -1.044  13.127  20.074  0.00  0.00    +0.000 HD
BRANCH  21  23
ATOM     23  C   UNL     1      -2.917  12.485  20.235  0.00  0.00    +0.000 A 
ATOM     24  C   UNL     1      -4.059  12.711  21.020  0.00  0.00    +0.000 A 
ATOM     25  C   UNL     1      -5.339  12.475  20.510  0.00  0.00    +0.000 A 
ATOM     26  C   UNL     1      -5.489  11.998  19.213  0.00  0.00    +0.000 A 
ATOM     27  C   UNL     1      -4.360  11.750  18.435  0.00  0.00    +0.000 A 
ATOM     28 CL   UNL     1      -4.551  11.144  16.834  0.00  0.00    +0.000 Cl
ATOM     29  C   UNL     1      -3.081  11.976  18.943  0.00  0.00    +0.000 A 
ENDBRANCH  21  23
ENDBRANCH   5  21
TORSDOF 7
ENDMDL
MODEL 8
REMARK VINA RESULT:      -7.5      6.028     10.578
REMARK  Name = 
REMARK  8 active torsions:
REMARK  status: ('A' for Active; 'I' for Inactive)
REMARK    1  A    between atoms: C_1  and  O_2
REMARK    2  A    between atoms: O_2  and  C_3
REMARK    3  A    between atoms: C_3  and  C_4
REMARK    4  A    between atoms: C_4  and  C_5
REMARK    5  A    between atoms: N_7  and  C_8
REMARK    6  A    between atoms: C_12  and  C_13
REMARK    7  A    between atoms: C_17  and  N_18
REMARK    8  A    between atoms: N_18  and  C_19
REMARK                            x       y       z     vdW  Elec       q    Type
REMARK                         _______ _______ _______ _____ _____    ______ ____
ROOT
ATOM      1  C   UNL     1       1.289   9.167  19.842  0.00  0.00    +0.000 A 
ATOM      2  C   UNL     1       1.280   9.841  18.622  0.00  0.00    +0.000 A 
ATOM      3  N   UNL     1       1.862   9.361  17.500  0.00  0.00    +0.000 NA
ATOM      4  C   UNL     1       2.465   8.158  17.644  0.00  0.00    +0.000 A 
ATOM      5  C   UNL     1       2.551   7.477  18.859  0.00  0.00    +0.000 A 
ATOM      6  N   UNL     1       1.955   7.989  19.964  0.00  0.00    +0.000 NA
ENDROOT
BRANCH   1  11
ATOM      7  C   UNL     1      -1.169  10.982  22.122  0.00  0.00    +0.000 A 
ATOM      8  C   UNL     1      -0.694  10.496  23.335  0.00  0.00    +0.000 A 
ATOM      9  N   UNL     1       0.339   9.631  23.459  0.00  0.00    +0.000 NA
ATOM     10  C   UNL     1       0.940   9.239  22.317  0.00  0.00    +0.000 A 
ATOM     11  C   UNL     1       0.557   9.629  21.033  0.00  0.00    +0.000 A 
ATOM     12  C   UNL     1      -0.531  10.523  20.958  0.00  0.00    +0.000 A 
BRANCH   7  15
ATOM     13  C   UNL     1      -2.154  13.242  21.785  0.00  0.00    +0.000 C 
ATOM     14  O   UNL     1      -1.116  13.854  21.551  0.00  0.00    +0.000 OA
ATOM     15  N   UNL     1      -2.258  11.876  21.995  0.00  0.00    +0.000 N 
ATOM     16  H   UNL     1      -3.184  11.468  21.979  0.00  0.00    +0.000 HD
BRANCH  13  17
ATOM     17  C   UNL     1      -3.466  13.981  21.885  0.00  0.00    +0.000 C 
BRANCH  17  18
ATOM     18  C   UNL     1      -4.470  13.166  22.680  0.00  0.00    +0.000 C 
BRANCH  18  20
ATOM     19  C   UNL     1      -6.453  12.692  21.500  0.00  0.00    +0.000 C 
ATOM     20  O   UNL     1      -5.130  12.262  21.797  0.00  0.00    +0.000 OA
ENDBRANCH  18  20
ENDBRANCH  17  18
ENDBRANCH  13  17
ENDBRANCH   7  15
ENDBRANCH   1  11
BRANCH   5  21
ATOM     21  N   UNL     1       3.180   6.211  18.917  0.00  0.00    +0.000 N 
ATOM     22  H   UNL     1       3.943   6.214  19.587  0.00  0.00    +0.000 HD
BRANCH  21  23
ATOM     23  C   UNL     1       2.492   4.976  19.031  0.00  0.00    +0.000 A 
ATOM     24  C   UNL     1       1.840   4.385  17.939  0.00  0.00    +0.000 A 
ATOM     25  C   UNL     1       1.091   3.215  18.096  0.00  0.00    +0.000 A 
ATOM     26  C   UNL     1       0.978   2.631  19.352  0.00  0.00    +0.000 A 
ATOM     27  C   UNL     1       1.604   3.223  20.447  0.00  0.00    +0.000 A 
ATOM     28 CL   UNL     1       1.448   2.506  22.004  0.00  0.00    +0.000 Cl
ATOM     29  C   UNL     1       2.345   4.396  20.296  0.00  0.00    +0.000 A 
ENDBRANCH  21  23
ENDBRANCH   5  21
TORSDOF 7
ENDMDL
MODEL 9
REMARK VINA RESULT:      -7.5      4.587      9.204
REMARK  Name = 
REMARK  8 active torsions:
REMARK  status: ('A' for Active; 'I' for Inactive)
REMARK    1  A    between atoms: C_1  and  O_2
REMARK    2  A    between atoms: O_2  and  C_3
REMARK    3  A    between atoms: C_3  and  C_4
REMARK    4  A    between atoms: C_4  and  C_5
REMARK    5  A    between atoms: N_7  and  C_8
REMARK    6  A    between atoms: C_12  and  C_13
REMARK    7  A    between atoms: C_17  and  N_18
REMARK    8  A    between atoms: N_18  and  C_19
REMARK                            x       y       z     vdW  Elec       q    Type
REMARK                         _______ _______ _______ _____ _____    ______ ____
ROOT
ATOM      1  C   UNL     1       2.455   5.649  19.725  0.00  0.00    +0.000 A 
ATOM      2  C   UNL     1       2.087   4.893  20.837  0.00  0.00    +0.000 A 
ATOM      3  N   UNL     1       2.545   3.642  21.074  0.00  0.00    +0.000 NA
ATOM      4  C   UNL     1       3.402   3.166  20.141  0.00  0.00    +0.000 A 
ATOM      5  C   UNL     1       3.749   3.863  18.982  0.00  0.00    +0.000 A 
ATOM      6  N   UNL     1       3.270   5.115  18.778  0.00  0.00    +0.000 NA
ENDROOT
BRANCH   1  11
ATOM      7  C   UNL     1       0.802   9.055  20.167  0.00  0.00    +0.000 A 
ATOM      8  C   UNL     1       1.295   9.655  19.013  0.00  0.00    +0.000 A 
ATOM      9  N   UNL     1       2.117   9.046  18.128  0.00  0.00    +0.000 NA
ATOM     10  C   UNL     1       2.455   7.767  18.398  0.00  0.00    +0.000 A 
ATOM     11  C   UNL     1       2.053   7.051  19.526  0.00  0.00    +0.000 A 
ATOM     12  C   UNL     1       1.205   7.734  20.421  0.00  0.00    +0.000 A 
BRANCH   7  15
ATOM     13  C   UNL     1       0.224   9.872  22.445  0.00  0.00    +0.000 C 
ATOM     14  O   UNL     1       1.285   9.607  23.002  0.00  0.00    +0.000 OA
ATOM     15  N   UNL     1      -0.047   9.700  21.097  0.00  0.00    +0.000 N 
ATOM     16  H   UNL     1      -0.881  10.139  20.727  0.00  0.00    +0.000 HD
BRANCH  13  17
ATOM     17  C   UNL     1      -0.937  10.419  23.241  0.00  0.00    +0.000 C 
BRANCH  17  18
ATOM     18  C   UNL     1      -1.309  11.804  22.744  0.00  0.00    +0.000 C 
BRANCH  18  20
ATOM     19  C   UNL     1      -0.379  13.417  21.301  0.00  0.00    +0.000 C 
ATOM     20  O   UNL     1      -0.121  12.481  22.340  0.00  0.00    +0.000 OA
ENDBRANCH  18  20
ENDBRANCH  17  18
ENDBRANCH  13  17
ENDBRANCH   7  15
ENDBRANCH   1  11
BRANCH   5  21
ATOM     21  N   UNL     1       4.671   3.301  18.068  0.00  0.00    +0.000 N 
ATOM     22  H   UNL     1       4.260   2.514  17.575  0.00  0.00    +0.000 HD
BRANCH  21  23
ATOM     23  C   UNL     1       5.447   4.049  17.147  0.00  0.00    +0.000 A 
ATOM     24  C   UNL     1       5.672   3.608  15.834  0.00  0.00    +0.000 A 
ATOM     25  C   UNL     1       6.515   4.316  14.973  0.00  0.00    +0.000 A 
ATOM     26  C   UNL     1       7.151   5.467  15.421  0.00  0.00    +0.000 A 
ATOM     27  C   UNL     1       6.951   5.900  16.730  0.00  0.00    +0.000 A 
ATOM     28 CL   UNL     1       7.755   7.318  17.287  0.00  0.00    +0.000 Cl
ATOM     29  C   UNL     1       6.118   5.191  17.596  0.00  0.00    +0.000 A 
ENDBRANCH  21  23
ENDBRANCH   5  21
TORSDOF 7
ENDMDL
