MODEL 1
REMARK VINA RESULT:      -8.8      0.000      0.000
REMARK  Name = 
REMARK  5 active torsions:
REMARK  status: ('A' for Active; 'I' for Inactive)
REMARK    1  A    between atoms: C_2  and  C_18
REMARK    2  A    between atoms: N_3  and  C_4
REMARK    3  A    between atoms: N_8  and  C_9
REMARK    4  A    between atoms: C_9  and  C_10
REMARK    5  A    between atoms: C_24  and  C_25
REMARK                            x       y       z     vdW  Elec       q    Type
REMARK                         _______ _______ _______ _____ _____    ______ ____
ROOT
ATOM      1  O   UNL     1       2.157   9.776  17.443  0.00  0.00    +0.000 OA
ATOM      2  C   UNL     1       1.853   9.475  18.595  0.00  0.00    +0.000 C 
ATOM      3  N   UNL     1       1.336  10.373  19.499  0.00  0.00    +0.000 N 
ATOM      4  H   UNL     1       1.298  10.156  20.489  0.00  0.00    +0.000 HD
ENDROOT
BRANCH   2   5
ATOM      5  C   UNL     1       2.013   8.065  19.047  0.00  0.00    +0.000 A 
ATOM      6  C   UNL     1       1.289   7.625  20.162  0.00  0.00    +0.000 A 
ATOM      7  C   UNL     1       1.480   6.347  20.704  0.00  0.00    +0.000 A 
ATOM      8  C   UNL     1       2.453   5.543  20.105  0.00  0.00    +0.000 A 
ATOM      9  N   UNL     1       2.903   4.286  20.406  0.00  0.00    +0.000 N 
ATOM     10  N   UNL     1       3.877   3.841  19.598  0.00  0.00    +0.000 NA
ATOM     11  C   UNL     1       4.105   4.859  18.752  0.00  0.00    +0.000 A 
ATOM     12  C   UNL     1       3.207   5.946  19.007  0.00  0.00    +0.000 A 
ATOM     13  C   UNL     1       2.962   7.219  18.448  0.00  0.00    +0.000 A 
ATOM     14  H   UNL     1       2.589   3.681  21.156  0.00  0.00    +0.000 HD
BRANCH  11  15
ATOM     15  C   UNL     1       5.156   4.772  17.735  0.00  0.00    +0.000 A 
ATOM     16  C   UNL     1       6.501   4.857  18.097  0.00  0.00    +0.000 A 
ATOM     17  C   UNL     1       7.461   4.743  17.108  0.00  0.00    +0.000 A 
ATOM     18  N   UNL     1       7.177   4.549  15.801  0.00  0.00    +0.000 NA
ATOM     19  C   UNL     1       5.873   4.497  15.469  0.00  0.00    +0.000 A 
ATOM     20  C   UNL     1       4.840   4.612  16.383  0.00  0.00    +0.000 A 
ENDBRANCH  11  15
ENDBRANCH   2   5
BRANCH   3  21
ATOM     21  C   UNL     1       1.045  11.762  19.135  0.00  0.00    +0.000 C 
ATOM     22  C   UNL     1       1.267  12.717  20.311  0.00  0.00    +0.000 C 
ATOM     23  C   UNL     1       0.199  12.543  21.390  0.00  0.00    +0.000 C 
ATOM     24  C   UNL     1      -1.227  12.500  20.829  0.00  0.00    +0.000 C 
ATOM     25  N   UNL     1      -1.378  11.561  19.698  0.00  0.00    +0.000 NA
ATOM     26  C   UNL     1      -0.408  11.895  18.633  0.00  0.00    +0.000 C 
BRANCH  25  27
ATOM     27  C   UNL     1      -2.754  11.620  19.147  0.00  0.00    +0.000 C 
BRANCH  27  28
ATOM     28  C   UNL     1      -2.859  11.035  17.759  0.00  0.00    +0.000 A 
ATOM     29  C   UNL     1      -1.955  10.053  17.327  0.00  0.00    +0.000 A 
ATOM     30  C   UNL     1      -2.102   9.456  16.073  0.00  0.00    +0.000 A 
ATOM     31  C   UNL     1      -3.151   9.837  15.236  0.00  0.00    +0.000 A 
ATOM     32  C   UNL     1      -4.032  10.838  15.639  0.00  0.00    +0.000 A 
ATOM     33  C   UNL     1      -3.875  11.434  16.887  0.00  0.00    +0.000 A 
ATOM     34  F   UNL     1      -4.734  12.398  17.253  0.00  0.00    +0.000 F 
ENDBRANCH  27  28
ENDBRANCH  25  27
ENDBRANCH   3  21
TORSDOF 5
ENDMDL
MODEL 2
REMARK VINA RESULT:      -8.8      1.108      1.294
REMARK  Name = 
REMARK  5 active torsions:
REMARK  status: ('A' for Active; 'I' for Inactive)
REMARK    1  A    between atoms: C_2  and  C_18
REMARK    2  A    between atoms: N_3  and  C_4
REMARK    3  A    between atoms: N_8  and  C_9
REMARK    4  A    between atoms: C_9  and  C_10
REMARK    5  A    between atoms: C_24  and  C_25
REMARK                            x       y       z     vdW  Elec       q    Type
REMARK                         _______ _______ _______ _____ _____    ______ ____
ROOT
ATOM      1  O   UNL     1       1.241  10.593  18.000  0.00  0.00    +0.000 OA
ATOM      2  C   UNL     1       1.119  10.276  19.182  0.00  0.00    +0.000 C 
ATOM      3  N   UNL     1       0.720  11.154  20.162  0.00  0.00    +0.000 N 
ATOM      4  H   UNL     1       0.835  10.930  21.144  0.00  0.00    +0.000 HD
ENDROOT
BRANCH   2   5
ATOM      5  C   UNL     1       1.380   8.868  19.590  0.00  0.00    +0.000 A 
ATOM      6  C   UNL     1       0.942   8.436  20.848  0.00  0.00    +0.000 A 
ATOM      7  C   UNL     1       1.254   7.160  21.336  0.00  0.00    +0.000 A 
ATOM      8  C   UNL     1       2.054   6.350  20.525  0.00  0.00    +0.000 A 
ATOM      9  N   UNL     1       2.560   5.092  20.717  0.00  0.00    +0.000 N 
ATOM     10  N   UNL     1       3.311   4.640  19.702  0.00  0.00    +0.000 NA
ATOM     11  C   UNL     1       3.333   5.653  18.820  0.00  0.00    +0.000 A 
ATOM     12  C   UNL     1       2.524   6.744  19.278  0.00  0.00    +0.000 A 
ATOM     13  C   UNL     1       2.156   8.016  18.786  0.00  0.00    +0.000 A 
ATOM     14  H   UNL     1       2.433   4.492  21.524  0.00  0.00    +0.000 HD
BRANCH  11  15
ATOM     15  C   UNL     1       4.109   5.557  17.582  0.00  0.00    +0.000 A 
ATOM     16  C   UNL     1       4.409   4.312  17.029  0.00  0.00    +0.000 A 
ATOM     17  C   UNL     1       5.123   4.268  15.844  0.00  0.00    +0.000 A 
ATOM     18  N   UNL     1       5.548   5.365  15.181  0.00  0.00    +0.000 NA
ATOM     19  C   UNL     1       5.272   6.557  15.746  0.00  0.00    +0.000 A 
ATOM     20  C   UNL     1       4.576   6.703  16.933  0.00  0.00    +0.000 A 
ENDBRANCH  11  15
ENDBRANCH   2   5
BRANCH   3  21
ATOM     21  C   UNL     1       0.344  12.538  19.860  0.00  0.00    +0.000 C 
ATOM     22  C   UNL     1       0.244  13.390  21.128  0.00  0.00    +0.000 C 
ATOM     23  C   UNL     1      -0.972  13.010  21.970  0.00  0.00    +0.000 C 
ATOM     24  C   UNL     1      -2.262  12.884  21.150  0.00  0.00    +0.000 C 
ATOM     25  N   UNL     1      -2.103  12.051  19.941  0.00  0.00    +0.000 NA
ATOM     26  C   UNL     1      -1.002  12.578  19.106  0.00  0.00    +0.000 C 
BRANCH  25  27
ATOM     27  C   UNL     1      -3.356  12.030  19.148  0.00  0.00    +0.000 C 
BRANCH  27  28
ATOM     28  C   UNL     1      -3.219  11.273  17.849  0.00  0.00    +0.000 A 
ATOM     29  C   UNL     1      -2.237  10.282  17.699  0.00  0.00    +0.000 A 
ATOM     30  C   UNL     1      -2.165   9.528  16.525  0.00  0.00    +0.000 A 
ATOM     31  C   UNL     1      -3.069   9.757  15.489  0.00  0.00    +0.000 A 
ATOM     32  C   UNL     1      -4.025  10.764  15.612  0.00  0.00    +0.000 A 
ATOM     33  C   UNL     1      -4.087  11.517  16.781  0.00  0.00    +0.000 A 
ATOM     34  F   UNL     1      -5.013  12.483  16.876  0.00  0.00    +0.000 F 
ENDBRANCH  27  28
ENDBRANCH  25  27
ENDBRANCH   3  21
TORSDOF 5
ENDMDL
MODEL 3
REMARK VINA RESULT:      -8.6      2.784      3.938
REMARK  Name = 
REMARK  5 active torsions:
REMARK  status: ('A' for Active; 'I' for Inactive)
REMARK    1  A    between atoms: C_2  and  C_18
REMARK    2  A    between atoms: N_3  and  C_4
REMARK    3  A    between atoms: N_8  and  C_9
REMARK    4  A    between atoms: C_9  and  C_10
REMARK    5  A    between atoms: C_24  and  C_25
REMARK                            x       y       z     vdW  Elec       q    Type
REMARK                         _______ _______ _______ _____ _____    ______ ____
ROOT
ATOM      1  O   UNL     1      -0.396  10.973  18.323  0.00  0.00    +0.000 OA
ATOM      2  C   UNL     1       0.699  10.770  18.845  0.00  0.00    +0.000 C 
ATOM      3  N   UNL     1       1.678  11.730  18.945  0.00  0.00    +0.000 N 
ATOM      4  H   UNL     1       2.632  11.482  19.179  0.00  0.00    +0.000 HD
ENDROOT
BRANCH   2   5
ATOM      5  C   UNL     1       0.989   9.433  19.435  0.00  0.00    +0.000 A 
ATOM      6  C   UNL     1       0.555   9.160  20.737  0.00  0.00    +0.000 A 
ATOM      7  C   UNL     1       0.892   7.966  21.389  0.00  0.00    +0.000 A 
ATOM      8  C   UNL     1       1.715   7.076  20.694  0.00  0.00    +0.000 A 
ATOM      9  N   UNL     1       2.247   5.866  21.050  0.00  0.00    +0.000 N 
ATOM     10  N   UNL     1       3.014   5.302  20.105  0.00  0.00    +0.000 NA
ATOM     11  C   UNL     1       3.018   6.191  19.098  0.00  0.00    +0.000 A 
ATOM     12  C   UNL     1       2.182   7.314  19.406  0.00  0.00    +0.000 A 
ATOM     13  C   UNL     1       1.789   8.502  18.752  0.00  0.00    +0.000 A 
ATOM     14  H   UNL     1       2.130   5.374  21.928  0.00  0.00    +0.000 HD
BRANCH  11  15
ATOM     15  C   UNL     1       3.803   5.952  17.885  0.00  0.00    +0.000 A 
ATOM     16  C   UNL     1       4.411   7.013  17.214  0.00  0.00    +0.000 A 
ATOM     17  C   UNL     1       5.166   6.739  16.087  0.00  0.00    +0.000 A 
ATOM     18  N   UNL     1       5.356   5.497  15.592  0.00  0.00    +0.000 NA
ATOM     19  C   UNL     1       4.739   4.489  16.238  0.00  0.00    +0.000 A 
ATOM     20  C   UNL     1       3.954   4.663  17.366  0.00  0.00    +0.000 A 
ENDBRANCH  11  15
ENDBRANCH   2   5
BRANCH   3  21
ATOM     21  C   UNL     1       1.467  13.106  18.487  0.00  0.00    +0.000 C 
ATOM     22  C   UNL     1       2.788  13.865  18.337  0.00  0.00    +0.000 C 
ATOM     23  C   UNL     1       3.418  14.177  19.693  0.00  0.00    +0.000 C 
ATOM     24  C   UNL     1       2.425  14.766  20.701  0.00  0.00    +0.000 C 
ATOM     25  N   UNL     1       1.171  13.991  20.802  0.00  0.00    +0.000 NA
ATOM     26  C   UNL     1       0.548  13.864  19.467  0.00  0.00    +0.000 C 
BRANCH  25  27
ATOM     27  C   UNL     1       0.219  14.649  21.730  0.00  0.00    +0.000 C 
BRANCH  27  28
ATOM     28  C   UNL     1      -0.849  13.713  22.242  0.00  0.00    +0.000 A 
ATOM     29  C   UNL     1      -0.571  12.352  22.440  0.00  0.00    +0.000 A 
ATOM     30  C   UNL     1      -1.536  11.504  22.989  0.00  0.00    +0.000 A 
ATOM     31  C   UNL     1      -2.789  12.005  23.342  0.00  0.00    +0.000 A 
ATOM     32  C   UNL     1      -3.088  13.347  23.114  0.00  0.00    +0.000 A 
ATOM     33  C   UNL     1      -2.125  14.185  22.560  0.00  0.00    +0.000 A 
ATOM     34  F   UNL     1      -2.437  15.472  22.347  0.00  0.00    +0.000 F 
ENDBRANCH  27  28
ENDBRANCH  25  27
ENDBRANCH   3  21
TORSDOF 5
ENDMDL
MODEL 4
REMARK VINA RESULT:      -8.5      1.138      1.454
REMARK  Name = 
REMARK  5 active torsions:
REMARK  status: ('A' for Active; 'I' for Inactive)
REMARK    1  A    between atoms: C_2  and  C_18
REMARK    2  A    between atoms: N_3  and  C_4
REMARK    3  A    between atoms: N_8  and  C_9
REMARK    4  A    between atoms: C_9  and  C_10
REMARK    5  A    between atoms: C_24  and  C_25
REMARK                            x       y       z     vdW  Elec       q    Type
REMARK                         _______ _______ _______ _____ _____    ______ ____
ROOT
ATOM      1  O   UNL     1       2.116  10.321  17.500  0.00  0.00    +0.000 OA
ATOM      2  C   UNL     1       1.698   9.966  18.601  0.00  0.00    +0.000 C 
ATOM      3  N   UNL     1       1.031  10.805  19.462  0.00  0.00    +0.000 N 
ATOM      4  H   UNL     1       0.891  10.555  20.434  0.00  0.00    +0.000 HD
ENDROOT
BRANCH   2   5
ATOM      5  C   UNL     1       1.884   8.552  19.031  0.00  0.00    +0.000 A 
ATOM      6  C   UNL     1       1.386   8.153  20.277  0.00  0.00    +0.000 A 
ATOM      7  C   UNL     1       1.626   6.870  20.787  0.00  0.00    +0.000 A 
ATOM      8  C   UNL     1       2.417   6.018  20.012  0.00  0.00    +0.000 A 
ATOM      9  N   UNL     1       2.861   4.742  20.233  0.00  0.00    +0.000 N 
ATOM     10  N   UNL     1       3.626   4.247  19.249  0.00  0.00    +0.000 NA
ATOM     11  C   UNL     1       3.721   5.248  18.358  0.00  0.00    +0.000 A 
ATOM     12  C   UNL     1       2.945   6.378  18.778  0.00  0.00    +0.000 A 
ATOM     13  C   UNL     1       2.649   7.659  18.262  0.00  0.00    +0.000 A 
ATOM     14  H   UNL     1       2.681   4.157  21.041  0.00  0.00    +0.000 HD
BRANCH  11  15
ATOM     15  C   UNL     1       4.534   5.106  17.149  0.00  0.00    +0.000 A 
ATOM     16  C   UNL     1       4.955   3.846  16.723  0.00  0.00    +0.000 A 
ATOM     17  C   UNL     1       5.700   3.754  15.560  0.00  0.00    +0.000 A 
ATOM     18  N   UNL     1       6.044   4.818  14.801  0.00  0.00    +0.000 NA
ATOM     19  C   UNL     1       5.651   6.027  15.244  0.00  0.00    +0.000 A 
ATOM     20  C   UNL     1       4.915   6.223  16.400  0.00  0.00    +0.000 A 
ENDBRANCH  11  15
ENDBRANCH   2   5
BRANCH   3  21
ATOM     21  C   UNL     1       0.707  12.189  19.103  0.00  0.00    +0.000 C 
ATOM     22  C   UNL     1       0.886  13.141  20.288  0.00  0.00    +0.000 C 
ATOM     23  C   UNL     1      -0.190  12.931  21.351  0.00  0.00    +0.000 C 
ATOM     24  C   UNL     1      -1.607  12.852  20.771  0.00  0.00    +0.000 C 
ATOM     25  N   UNL     1      -1.717  11.918  19.632  0.00  0.00    +0.000 NA
ATOM     26  C   UNL     1      -0.742  12.285  18.582  0.00  0.00    +0.000 C 
BRANCH  25  27
ATOM     27  C   UNL     1      -3.087  11.943  19.063  0.00  0.00    +0.000 C 
BRANCH  27  28
ATOM     28  C   UNL     1      -3.200  11.179  17.765  0.00  0.00    +0.000 A 
ATOM     29  C   UNL     1      -3.937  11.700  16.691  0.00  0.00    +0.000 A 
ATOM     30  C   UNL     1      -3.973  11.031  15.465  0.00  0.00    +0.000 A 
ATOM     31  C   UNL     1      -3.277   9.833  15.301  0.00  0.00    +0.000 A 
ATOM     32  C   UNL     1      -2.573   9.287  16.373  0.00  0.00    +0.000 A 
ATOM     33  C   UNL     1      -2.547   9.955  17.594  0.00  0.00    +0.000 A 
ATOM     34  F   UNL     1      -1.865   9.410  18.612  0.00  0.00    +0.000 F 
ENDBRANCH  27  28
ENDBRANCH  25  27
ENDBRANCH   3  21
TORSDOF 5
ENDMDL
MODEL 5
REMARK VINA RESULT:      -8.4      1.994      2.728
REMARK  Name = 
REMARK  5 active torsions:
REMARK  status: ('A' for Active; 'I' for Inactive)
REMARK    1  A    between atoms: C_2  and  C_18
REMARK    2  A    between atoms: N_3  and  C_4
REMARK    3  A    between atoms: N_8  and  C_9
REMARK    4  A    between atoms: C_9  and  C_10
REMARK    5  A    between atoms: C_24  and  C_25
REMARK                            x       y       z     vdW  Elec       q    Type
REMARK                         _______ _______ _______ _____ _____    ______ ____
ROOT
ATOM      1  O   UNL     1       1.888  10.920  18.001  0.00  0.00    +0.000 OA
ATOM      2  C   UNL     1       1.035  10.259  18.590  0.00  0.00    +0.000 C 
ATOM      3  N   UNL     1      -0.265  10.677  18.752  0.00  0.00    +0.000 N 
ATOM      4  H   UNL     1      -0.882  10.224  19.417  0.00  0.00    +0.000 HD
ENDROOT
BRANCH   2   5
ATOM      5  C   UNL     1       1.396   8.921  19.135  0.00  0.00    +0.000 A 
ATOM      6  C   UNL     1       1.041   8.609  20.453  0.00  0.00    +0.000 A 
ATOM      7  C   UNL     1       1.449   7.414  21.061  0.00  0.00    +0.000 A 
ATOM      8  C   UNL     1       2.259   6.563  20.304  0.00  0.00    +0.000 A 
ATOM      9  N   UNL     1       2.846   5.364  20.605  0.00  0.00    +0.000 N 
ATOM     10  N   UNL     1       3.577   4.842  19.609  0.00  0.00    +0.000 NA
ATOM     11  C   UNL     1       3.500   5.750  18.622  0.00  0.00    +0.000 A 
ATOM     12  C   UNL     1       2.649   6.840  18.999  0.00  0.00    +0.000 A 
ATOM     13  C   UNL     1       2.185   8.028  18.391  0.00  0.00    +0.000 A 
ATOM     14  H   UNL     1       2.791   4.852  21.478  0.00  0.00    +0.000 HD
BRANCH  11  15
ATOM     15  C   UNL     1       4.225   5.559  17.365  0.00  0.00    +0.000 A 
ATOM     16  C   UNL     1       4.701   6.657  16.648  0.00  0.00    +0.000 A 
ATOM     17  C   UNL     1       5.404   6.430  15.478  0.00  0.00    +0.000 A 
ATOM     18  N   UNL     1       5.665   5.201  14.982  0.00  0.00    +0.000 NA
ATOM     19  C   UNL     1       5.173   4.155  15.675  0.00  0.00    +0.000 A 
ATOM     20  C   UNL     1       4.449   4.280  16.848  0.00  0.00    +0.000 A 
ENDBRANCH  11  15
ENDBRANCH   2   5
BRANCH   3  21
ATOM     21  C   UNL     1      -0.757  11.931  18.174  0.00  0.00    +0.000 C 
ATOM     22  C   UNL     1      -0.975  13.004  19.244  0.00  0.00    +0.000 C 
ATOM     23  C   UNL     1      -2.178  12.683  20.129  0.00  0.00    +0.000 C 
ATOM     24  C   UNL     1      -3.423  12.274  19.333  0.00  0.00    +0.000 C 
ATOM     25  N   UNL     1      -3.149  11.236  18.318  0.00  0.00    +0.000 NA
ATOM     26  C   UNL     1      -2.075  11.691  17.410  0.00  0.00    +0.000 C 
BRANCH  25  27
ATOM     27  C   UNL     1      -4.369  10.938  17.529  0.00  0.00    +0.000 C 
BRANCH  27  28
ATOM     28  C   UNL     1      -5.629  11.473  18.166  0.00  0.00    +0.000 A 
ATOM     29  C   UNL     1      -6.194  10.834  19.279  0.00  0.00    +0.000 A 
ATOM     30  C   UNL     1      -7.313  11.377  19.915  0.00  0.00    +0.000 A 
ATOM     31  C   UNL     1      -7.881  12.561  19.444  0.00  0.00    +0.000 A 
ATOM     32  C   UNL     1      -7.350  13.184  18.316  0.00  0.00    +0.000 A 
ATOM     33  C   UNL     1      -6.240  12.634  17.682  0.00  0.00    +0.000 A 
ATOM     34  F   UNL     1      -5.748  13.249  16.596  0.00  0.00    +0.000 F 
ENDBRANCH  27  28
ENDBRANCH  25  27
ENDBRANCH   3  21
TORSDOF 5
ENDMDL
MODEL 6
REMARK VINA RESULT:      -8.3      2.719      3.694
REMARK  Name = 
REMARK  5 active torsions:
REMARK  status: ('A' for Active; 'I' for Inactive)
REMARK    1  A    between atoms: C_2  and  C_18
REMARK    2  A    between atoms: N_3  and  C_4
REMARK    3  A    between atoms: N_8  and  C_9
REMARK    4  A    between atoms: C_9  and  C_10
REMARK    5  A    between atoms: C_24  and  C_25
REMARK                            x       y       z     vdW  Elec       q    Type
REMARK                         _______ _______ _______ _____ _____    ______ ____
ROOT
ATOM      1  O   UNL     1       2.141  10.320  17.240  0.00  0.00    +0.000 OA
ATOM      2  C   UNL     1       1.791  10.293  18.419  0.00  0.00    +0.000 C 
ATOM      3  N   UNL     1       1.418  11.414  19.122  0.00  0.00    +0.000 N 
ATOM      4  H   UNL     1       1.345  11.396  20.133  0.00  0.00    +0.000 HD
ENDROOT
BRANCH   2   5
ATOM      5  C   UNL     1       1.728   8.985  19.130  0.00  0.00    +0.000 A 
ATOM      6  C   UNL     1       0.997   8.898  20.321  0.00  0.00    +0.000 A 
ATOM      7  C   UNL     1       0.991   7.731  21.096  0.00  0.00    +0.000 A 
ATOM      8  C   UNL     1       1.780   6.668  20.646  0.00  0.00    +0.000 A 
ATOM      9  N   UNL     1       2.020   5.429  21.175  0.00  0.00    +0.000 N 
ATOM     10  N   UNL     1       2.860   4.674  20.452  0.00  0.00    +0.000 NA
ATOM     11  C   UNL     1       3.217   5.458  19.422  0.00  0.00    +0.000 A 
ATOM     12  C   UNL     1       2.534   6.717  19.479  0.00  0.00    +0.000 A 
ATOM     13  C   UNL     1       2.485   7.887  18.690  0.00  0.00    +0.000 A 
ATOM     14  H   UNL     1       1.645   5.041  22.033  0.00  0.00    +0.000 HD
BRANCH  11  15
ATOM     15  C   UNL     1       4.184   4.997  18.423  0.00  0.00    +0.000 A 
ATOM     16  C   UNL     1       3.760   4.269  17.311  0.00  0.00    +0.000 A 
ATOM     17  C   UNL     1       4.704   3.875  16.378  0.00  0.00    +0.000 A 
ATOM     18  N   UNL     1       6.021   4.156  16.475  0.00  0.00    +0.000 NA
ATOM     19  C   UNL     1       6.414   4.836  17.570  0.00  0.00    +0.000 A 
ATOM     20  C   UNL     1       5.549   5.263  18.563  0.00  0.00    +0.000 A 
ENDBRANCH  11  15
ENDBRANCH   2   5
BRANCH   3  21
ATOM     21  C   UNL     1       1.348  12.737  18.497  0.00  0.00    +0.000 C 
ATOM     22  C   UNL     1       2.663  13.506  18.645  0.00  0.00    +0.000 C 
ATOM     23  C   UNL     1       2.897  13.956  20.085  0.00  0.00    +0.000 C 
ATOM     24  C   UNL     1       1.667  14.614  20.722  0.00  0.00    +0.000 C 
ATOM     25  N   UNL     1       0.430  13.825  20.546  0.00  0.00    +0.000 NA
ATOM     26  C   UNL     1       0.198  13.563  19.110  0.00  0.00    +0.000 C 
BRANCH  25  27
ATOM     27  C   UNL     1      -0.738  14.545  21.111  0.00  0.00    +0.000 C 
BRANCH  27  28
ATOM     28  C   UNL     1      -1.613  13.666  21.971  0.00  0.00    +0.000 A 
ATOM     29  C   UNL     1      -1.189  12.383  22.346  0.00  0.00    +0.000 A 
ATOM     30  C   UNL     1      -1.965  11.604  23.207  0.00  0.00    +0.000 A 
ATOM     31  C   UNL     1      -3.173  12.096  23.700  0.00  0.00    +0.000 A 
ATOM     32  C   UNL     1      -3.622  13.354  23.304  0.00  0.00    +0.000 A 
ATOM     33  C   UNL     1      -2.848  14.123  22.439  0.00  0.00    +0.000 A 
ATOM     34  F   UNL     1      -3.302  15.330  22.070  0.00  0.00    +0.000 F 
ENDBRANCH  27  28
ENDBRANCH  25  27
ENDBRANCH   3  21
TORSDOF 5
ENDMDL
MODEL 7
REMARK VINA RESULT:      -8.3      3.274      5.175
REMARK  Name = 
REMARK  5 active torsions:
REMARK  status: ('A' for Active; 'I' for Inactive)
REMARK    1  A    between atoms: C_2  and  C_18
REMARK    2  A    between atoms: N_3  and  C_4
REMARK    3  A    between atoms: N_8  and  C_9
REMARK    4  A    between atoms: C_9  and  C_10
REMARK    5  A    between atoms: C_24  and  C_25
REMARK                            x       y       z     vdW  Elec       q    Type
REMARK                         _______ _______ _______ _____ _____    ______ ____
ROOT
ATOM      1  O   UNL     1      -0.013   8.993  21.722  0.00  0.00    +0.000 OA
ATOM      2  C   UNL     1       0.527   9.612  20.807  0.00  0.00    +0.000 C 
ATOM      3  N   UNL     1       0.378  10.966  20.620  0.00  0.00    +0.000 N 
ATOM      4  H   UNL     1       0.650  11.407  19.750  0.00  0.00    +0.000 HD
ENDROOT
BRANCH   2   5
ATOM      5  C   UNL     1       1.418   8.885  19.860  0.00  0.00    +0.000 A 
ATOM      6  C   UNL     1       1.733   9.482  18.634  0.00  0.00    +0.000 A 
ATOM      7  C   UNL     1       2.472   8.804  17.655  0.00  0.00    +0.000 A 
ATOM      8  C   UNL     1       2.848   7.489  17.943  0.00  0.00    +0.000 A 
ATOM      9  N   UNL     1       3.528   6.558  17.205  0.00  0.00    +0.000 N 
ATOM     10  N   UNL     1       3.691   5.378  17.821  0.00  0.00    +0.000 NA
ATOM     11  C   UNL     1       3.061   5.523  18.999  0.00  0.00    +0.000 A 
ATOM     12  C   UNL     1       2.542   6.852  19.140  0.00  0.00    +0.000 A 
ATOM     13  C   UNL     1       1.839   7.572  20.130  0.00  0.00    +0.000 A 
ATOM     14  H   UNL     1       3.903   6.666  16.269  0.00  0.00    +0.000 HD
BRANCH  11  15
ATOM     15  C   UNL     1       2.973   4.411  19.947  0.00  0.00    +0.000 A 
ATOM     16  C   UNL     1       3.907   3.375  19.913  0.00  0.00    +0.000 A 
ATOM     17  C   UNL     1       3.802   2.357  20.844  0.00  0.00    +0.000 A 
ATOM     18  N   UNL     1       2.845   2.304  21.797  0.00  0.00    +0.000 NA
ATOM     19  C   UNL     1       1.938   3.299  21.796  0.00  0.00    +0.000 A 
ATOM     20  C   UNL     1       1.951   4.354  20.900  0.00  0.00    +0.000 A 
ENDBRANCH  11  15
ENDBRANCH   2   5
BRANCH   3  21
ATOM     21  C   UNL     1      -0.396  11.798  21.546  0.00  0.00    +0.000 C 
ATOM     22  C   UNL     1      -1.848  11.957  21.090  0.00  0.00    +0.000 C 
ATOM     23  C   UNL     1      -1.958  12.845  19.852  0.00  0.00    +0.000 C 
ATOM     24  C   UNL     1      -1.150  14.143  19.964  0.00  0.00    +0.000 C 
ATOM     25  N   UNL     1       0.243  13.924  20.407  0.00  0.00    +0.000 NA
ATOM     26  C   UNL     1       0.254  13.190  21.690  0.00  0.00    +0.000 C 
BRANCH  25  27
ATOM     27  C   UNL     1       0.951  15.218  20.574  0.00  0.00    +0.000 C 
BRANCH  27  28
ATOM     28  C   UNL     1       1.716  15.633  19.341  0.00  0.00    +0.000 A 
ATOM     29  C   UNL     1       1.359  16.791  18.634  0.00  0.00    +0.000 A 
ATOM     30  C   UNL     1       2.119  17.217  17.541  0.00  0.00    +0.000 A 
ATOM     31  C   UNL     1       3.239  16.489  17.141  0.00  0.00    +0.000 A 
ATOM     32  C   UNL     1       3.581  15.316  17.813  0.00  0.00    +0.000 A 
ATOM     33  C   UNL     1       2.816  14.893  18.896  0.00  0.00    +0.000 A 
ATOM     34  F   UNL     1       3.162  13.761  19.525  0.00  0.00    +0.000 F 
ENDBRANCH  27  28
ENDBRANCH  25  27
ENDBRANCH   3  21
TORSDOF 5
ENDMDL
MODEL 8
REMARK VINA RESULT:      -8.3      5.629      8.511
REMARK  Name = 
REMARK  5 active torsions:
REMARK  status: ('A' for Active; 'I' for Inactive)
REMARK    1  A    between atoms: C_2  and  C_18
REMARK    2  A    between atoms: N_3  and  C_4
REMARK    3  A    between atoms: N_8  and  C_9
REMARK    4  A    between atoms: C_9  and  C_10
REMARK    5  A    between atoms: C_24  and  C_25
REMARK                            x       y       z     vdW  Elec       q    Type
REMARK                         _______ _______ _______ _____ _____    ______ ____
ROOT
ATOM      1  O   UNL     1      -5.911  10.427  18.312  0.00  0.00    +0.000 OA
ATOM      2  C   UNL     1      -5.171  11.370  18.038  0.00  0.00    +0.000 C 
ATOM      3  N   UNL     1      -5.618  12.662  17.884  0.00  0.00    +0.000 N 
ATOM      4  H   UNL     1      -5.036  13.369  17.452  0.00  0.00    +0.000 HD
ENDROOT
BRANCH   2   5
ATOM      5  C   UNL     1      -3.708  11.131  17.892  0.00  0.00    +0.000 A 
ATOM      6  C   UNL     1      -3.274   9.993  17.202  0.00  0.00    +0.000 A 
ATOM      7  C   UNL     1      -1.917   9.652  17.127  0.00  0.00    +0.000 A 
ATOM      8  C   UNL     1      -1.018  10.480  17.805  0.00  0.00    +0.000 A 
ATOM      9  N   UNL     1       0.340  10.409  17.960  0.00  0.00    +0.000 N 
ATOM     10  N   UNL     1       0.862  11.395  18.705  0.00  0.00    +0.000 NA
ATOM     11  C   UNL     1      -0.197  12.126  19.088  0.00  0.00    +0.000 A 
ATOM     12  C   UNL     1      -1.406  11.610  18.516  0.00  0.00    +0.000 A 
ATOM     13  C   UNL     1      -2.774  11.960  18.537  0.00  0.00    +0.000 A 
ATOM     14  H   UNL     1       0.969   9.707  17.586  0.00  0.00    +0.000 HD
BRANCH  11  15
ATOM     15  C   UNL     1      -0.035  13.281  19.973  0.00  0.00    +0.000 A 
ATOM     16  C   UNL     1       0.538  13.130  21.236  0.00  0.00    +0.000 A 
ATOM     17  C   UNL     1       0.696  14.253  22.030  0.00  0.00    +0.000 A 
ATOM     18  N   UNL     1       0.332  15.498  21.655  0.00  0.00    +0.000 NA
ATOM     19  C   UNL     1      -0.244  15.618  20.443  0.00  0.00    +0.000 A 
ATOM     20  C   UNL     1      -0.457  14.555  19.582  0.00  0.00    +0.000 A 
ENDBRANCH  11  15
ENDBRANCH   2   5
BRANCH   3  21
ATOM     21  C   UNL     1      -7.021  13.029  18.100  0.00  0.00    +0.000 C 
ATOM     22  C   UNL     1      -7.340  14.413  17.529  0.00  0.00    +0.000 C 
ATOM     23  C   UNL     1      -6.691  15.527  18.348  0.00  0.00    +0.000 C 
ATOM     24  C   UNL     1      -6.899  15.368  19.858  0.00  0.00    +0.000 C 
ATOM     25  N   UNL     1      -6.574  14.013  20.350  0.00  0.00    +0.000 NA
ATOM     26  C   UNL     1      -7.358  13.004  19.605  0.00  0.00    +0.000 C 
BRANCH  25  27
ATOM     27  C   UNL     1      -6.868  13.895  21.799  0.00  0.00    +0.000 C 
BRANCH  27  28
ATOM     28  C   UNL     1      -5.731  13.286  22.584  0.00  0.00    +0.000 A 
ATOM     29  C   UNL     1      -4.495  13.031  21.970  0.00  0.00    +0.000 A 
ATOM     30  C   UNL     1      -3.420  12.544  22.718  0.00  0.00    +0.000 A 
ATOM     31  C   UNL     1      -3.569  12.301  24.083  0.00  0.00    +0.000 A 
ATOM     32  C   UNL     1      -4.803  12.515  24.695  0.00  0.00    +0.000 A 
ATOM     33  C   UNL     1      -5.873  12.994  23.943  0.00  0.00    +0.000 A 
ATOM     34  F   UNL     1      -7.051  13.189  24.552  0.00  0.00    +0.000 F 
ENDBRANCH  27  28
ENDBRANCH  25  27
ENDBRANCH   3  21
TORSDOF 5
ENDMDL
MODEL 9
REMARK VINA RESULT:      -8.2      2.338      3.600
REMARK  Name = 
REMARK  5 active torsions:
REMARK  status: ('A' for Active; 'I' for Inactive)
REMARK    1  A    between atoms: C_2  and  C_18
REMARK    2  A    between atoms: N_3  and  C_4
REMARK    3  A    between atoms: N_8  and  C_9
REMARK    4  A    between atoms: C_9  and  C_10
REMARK    5  A    between atoms: C_24  and  C_25
REMARK                            x       y       z     vdW  Elec       q    Type
REMARK                         _______ _______ _______ _____ _____    ______ ____
ROOT
ATOM      1  O   UNL     1       2.213  10.240  17.468  0.00  0.00    +0.000 OA
ATOM      2  C   UNL     1       1.680  10.088  18.565  0.00  0.00    +0.000 C 
ATOM      3  N   UNL     1       1.028  11.096  19.235  0.00  0.00    +0.000 N 
ATOM      4  H   UNL     1       0.792  11.005  20.217  0.00  0.00    +0.000 HD
ENDROOT
BRANCH   2   5
ATOM      5  C   UNL     1       1.702   8.743  19.206  0.00  0.00    +0.000 A 
ATOM      6  C   UNL     1       0.985   8.548  20.392  0.00  0.00    +0.000 A 
ATOM      7  C   UNL     1       1.055   7.342  21.103  0.00  0.00    +0.000 A 
ATOM      8  C   UNL     1       1.905   6.356  20.594  0.00  0.00    +0.000 A 
ATOM      9  N   UNL     1       2.224   5.107  21.056  0.00  0.00    +0.000 N 
ATOM     10  N   UNL     1       3.105   4.445  20.291  0.00  0.00    +0.000 NA
ATOM     11  C   UNL     1       3.408   5.304  19.304  0.00  0.00    +0.000 A 
ATOM     12  C   UNL     1       2.649   6.514  19.430  0.00  0.00    +0.000 A 
ATOM     13  C   UNL     1       2.523   7.719  18.705  0.00  0.00    +0.000 A 
ATOM     14  H   UNL     1       1.879   4.651  21.893  0.00  0.00    +0.000 HD
BRANCH  11  15
ATOM     15  C   UNL     1       4.395   4.958  18.280  0.00  0.00    +0.000 A 
ATOM     16  C   UNL     1       5.761   5.040  18.556  0.00  0.00    +0.000 A 
ATOM     17  C   UNL     1       6.659   4.678  17.568  0.00  0.00    +0.000 A 
ATOM     18  N   UNL     1       6.295   4.241  16.342  0.00  0.00    +0.000 NA
ATOM     19  C   UNL     1       4.973   4.194  16.087  0.00  0.00    +0.000 A 
ATOM     20  C   UNL     1       3.998   4.547  17.004  0.00  0.00    +0.000 A 
ENDBRANCH  11  15
ENDBRANCH   2   5
BRANCH   3  21
ATOM     21  C   UNL     1       0.861  12.432  18.657  0.00  0.00    +0.000 C 
ATOM     22  C   UNL     1       1.799  13.454  19.303  0.00  0.00    +0.000 C 
ATOM     23  C   UNL     1       1.382  13.780  20.736  0.00  0.00    +0.000 C 
ATOM     24  C   UNL     1      -0.117  14.071  20.878  0.00  0.00    +0.000 C 
ATOM     25  N   UNL     1      -0.971  13.051  20.235  0.00  0.00    +0.000 NA
ATOM     26  C   UNL     1      -0.599  12.906  18.811  0.00  0.00    +0.000 C 
BRANCH  25  27
ATOM     27  C   UNL     1      -2.403  13.425  20.335  0.00  0.00    +0.000 C 
BRANCH  27  28
ATOM     28  C   UNL     1      -2.900  13.477  21.760  0.00  0.00    +0.000 A 
ATOM     29  C   UNL     1      -2.965  12.311  22.537  0.00  0.00    +0.000 A 
ATOM     30  C   UNL     1      -3.349  12.375  23.879  0.00  0.00    +0.000 A 
ATOM     31  C   UNL     1      -3.675  13.602  24.456  0.00  0.00    +0.000 A 
ATOM     32  C   UNL     1      -3.651  14.761  23.683  0.00  0.00    +0.000 A 
ATOM     33  C   UNL     1      -3.275  14.690  22.345  0.00  0.00    +0.000 A 
ATOM     34  F   UNL     1      -3.261  15.818  21.619  0.00  0.00    +0.000 F 
ENDBRANCH  27  28
ENDBRANCH  25  27
ENDBRANCH   3  21
TORSDOF 5
ENDMDL
