MODEL 1
REMARK VINA RESULT:      -7.4      0.000      0.000
REMARK  Name = 
REMARK  11 active torsions:
REMARK  status: ('A' for Active; 'I' for Inactive)
REMARK    1  A    between atoms: C_1  and  C_2
REMARK    2  A    between atoms: C_2  and  C_3
REMARK    3  A    between atoms: C_2  and  C_4
REMARK    4  A    between atoms: C_2  and  O_5
REMARK    5  A    between atoms: O_5  and  C_6
REMARK    6  A    between atoms: C_11  and  C_12
REMARK    7  A    between atoms: C_11  and  N_15
REMARK    8  A    between atoms: C_12  and  C_13
REMARK    9  A    between atoms: C_17  and  C_18
REMARK   10  A    between atoms: N_22  and  C_23
REMARK   11  A    between atoms: C_26  and  C_27
REMARK                            x       y       z     vdW  Elec       q    Type
REMARK                         _______ _______ _______ _____ _____    ______ ____
ROOT
ATOM      1  N   UNL     1      -1.044  11.370  18.899  0.00  0.00    +0.000 N 
ATOM      2  C   UNL     1      -1.332  10.882  17.654  0.00  0.00    +0.000 A 
ATOM      3  C   UNL     1      -2.662  11.176  17.404  0.00  0.00    +0.000 A 
ATOM      4  C   UNL     1      -3.091  11.867  18.568  0.00  0.00    +0.000 A 
ATOM      5  N   UNL     1      -4.357  12.319  18.757  0.00  0.00    +0.000 N 
ATOM      6  N   UNL     1      -2.094  11.988  19.454  0.00  0.00    +0.000 NA
ATOM      7  H   UNL     1      -4.972  12.383  17.945  0.00  0.00    +0.000 HD
ENDROOT
BRANCH   1  13
ATOM      8  C   UNL     1       2.383   7.721  19.033  0.00  0.00    +0.000 C 
ATOM      9  O   UNL     1       3.338   7.793  18.268  0.00  0.00    +0.000 OA
ATOM     10  N   UNL     1       1.384   8.680  19.042  0.00  0.00    +0.000 N 
ATOM     11  C   UNL     1       1.415   9.717  18.029  0.00  0.00    +0.000 C 
ATOM     12  C   UNL     1       1.436  11.091  18.685  0.00  0.00    +0.000 C 
ATOM     13  C   UNL     1       0.233  11.299  19.650  0.00  0.00    +0.000 C 
ATOM     14  C   UNL     1       0.222  10.101  20.660  0.00  0.00    +0.000 C 
ATOM     15  C   UNL     1       0.270   8.729  19.977  0.00  0.00    +0.000 C 
BRANCH   8  16
ATOM     16  O   UNL     1       2.201   6.721  19.938  0.00  0.00    +0.000 OA
BRANCH  16  18
ATOM     17  C   UNL     1       3.760   4.833  19.690  0.00  0.00    +0.000 C 
ATOM     18  C   UNL     1       2.326   5.342  19.482  0.00  0.00    +0.000 C 
ATOM     19  C   UNL     1       1.850   5.182  18.029  0.00  0.00    +0.000 C 
ATOM     20  C   UNL     1       1.396   4.497  20.370  0.00  0.00    +0.000 C 
ENDBRANCH  16  18
ENDBRANCH   8  16
BRANCH  13  21
ATOM     21  C   UNL     1       0.442  12.617  20.470  0.00  0.00    +0.000 C 
BRANCH  21  22
ATOM     22  C   UNL     1      -0.167  12.465  21.854  0.00  0.00    +0.000 C 
ATOM     23  N   UNL     1      -0.672  12.339  23.003  0.00  0.00    +0.000 NA
ENDBRANCH  21  22
ENDBRANCH  13  21
ENDBRANCH   1  13
BRANCH   5  24
ATOM     24  C   UNL     1      -5.032  12.468  19.988  0.00  0.00    +0.000 A 
ATOM     25  C   UNL     1      -6.258  11.825  20.202  0.00  0.00    +0.000 A 
ATOM     26  C   UNL     1      -6.986  12.039  21.384  0.00  0.00    +0.000 A 
ATOM     27  C   UNL     1      -6.488  12.896  22.371  0.00  0.00    +0.000 A 
ATOM     28  C   UNL     1      -5.269  13.529  22.163  0.00  0.00    +0.000 A 
ATOM     29  F   UNL     1      -4.757  14.352  23.092  0.00  0.00    +0.000 F 
ATOM     30  C   UNL     1      -4.554  13.327  20.989  0.00  0.00    +0.000 A 
BRANCH  27  31
ATOM     31  C   UNL     1      -7.222  13.126  23.572  0.00  0.00    +0.000 C 
ATOM     32  N   UNL     1      -7.837  13.317  24.536  0.00  0.00    +0.000 NA
ENDBRANCH  27  31
ENDBRANCH   5  24
BRANCH   3  33
ATOM     33  C   UNL     1      -3.429  10.837  16.223  0.00  0.00    +0.000 C 
ATOM     34  N   UNL     1      -2.738  10.193  15.234  0.00  0.00    +0.000 N 
ATOM     35  O   UNL     1      -4.630  11.060  16.115  0.00  0.00    +0.000 OA
ATOM     36  H   UNL     1      -1.818   9.807  15.388  0.00  0.00    +0.000 HD
ATOM     37  H   UNL     1      -3.262   9.872  14.431  0.00  0.00    +0.000 HD
ENDBRANCH   3  33
TORSDOF 8
ENDMDL
MODEL 2
REMARK VINA RESULT:      -7.0      4.342      9.052
REMARK  Name = 
REMARK  11 active torsions:
REMARK  status: ('A' for Active; 'I' for Inactive)
REMARK    1  A    between atoms: C_1  and  C_2
REMARK    2  A    between atoms: C_2  and  C_3
REMARK    3  A    between atoms: C_2  and  C_4
REMARK    4  A    between atoms: C_2  and  O_5
REMARK    5  A    between atoms: O_5  and  C_6
REMARK    6  A    between atoms: C_11  and  C_12
REMARK    7  A    between atoms: C_11  and  N_15
REMARK    8  A    between atoms: C_12  and  C_13
REMARK    9  A    between atoms: C_17  and  C_18
REMARK   10  A    between atoms: N_22  and  C_23
REMARK   11  A    between atoms: C_26  and  C_27
REMARK                            x       y       z     vdW  Elec       q    Type
REMARK                         _______ _______ _______ _____ _____    ______ ____
ROOT
ATOM      1  N   UNL     1       0.352  10.838  19.825  0.00  0.00    +0.000 N 
ATOM      2  C   UNL     1      -0.073  11.027  21.111  0.00  0.00    +0.000 A 
ATOM      3  C   UNL     1       0.365   9.938  21.845  0.00  0.00    +0.000 A 
ATOM      4  C   UNL     1       1.069   9.143  20.903  0.00  0.00    +0.000 A 
ATOM      5  N   UNL     1       1.647   7.951  21.199  0.00  0.00    +0.000 N 
ATOM      6  N   UNL     1       1.064   9.712  19.690  0.00  0.00    +0.000 NA
ATOM      7  H   UNL     1       1.794   7.718  22.182  0.00  0.00    +0.000 HD
ENDROOT
BRANCH   1  13
ATOM      8  C   UNL     1       2.374  15.272  18.677  0.00  0.00    +0.000 C 
ATOM      9  O   UNL     1       3.370  15.289  17.963  0.00  0.00    +0.000 OA
ATOM     10  N   UNL     1       1.769  14.086  19.055  0.00  0.00    +0.000 N 
ATOM     11  C   UNL     1       2.416  12.837  18.697  0.00  0.00    +0.000 C 
ATOM     12  C   UNL     1       1.466  11.967  17.887  0.00  0.00    +0.000 C 
ATOM     13  C   UNL     1       0.130  11.699  18.638  0.00  0.00    +0.000 C 
ATOM     14  C   UNL     1      -0.465  13.087  19.059  0.00  0.00    +0.000 C 
ATOM     15  C   UNL     1       0.533  13.973  19.815  0.00  0.00    +0.000 C 
BRANCH   8  16
ATOM     16  O   UNL     1       1.764  16.387  19.164  0.00  0.00    +0.000 OA
BRANCH  16  18
ATOM     17  C   UNL     1      -0.280  16.763  17.846  0.00  0.00    +0.000 C 
ATOM     18  C   UNL     1       1.112  17.290  18.223  0.00  0.00    +0.000 C 
ATOM     19  C   UNL     1       1.995  17.554  16.992  0.00  0.00    +0.000 C 
ATOM     20  C   UNL     1       0.923  18.630  18.954  0.00  0.00    +0.000 C 
ENDBRANCH  16  18
ENDBRANCH   8  16
BRANCH  13  21
ATOM     21  C   UNL     1      -0.889  11.014  17.667  0.00  0.00    +0.000 C 
BRANCH  21  22
ATOM     22  C   UNL     1      -2.310  11.305  18.122  0.00  0.00    +0.000 C 
ATOM     23  N   UNL     1      -3.489  11.546  18.499  0.00  0.00    +0.000 NA
ENDBRANCH  21  22
ENDBRANCH  13  21
ENDBRANCH   1  13
BRANCH   5  24
ATOM     24  C   UNL     1       1.837   6.858  20.326  0.00  0.00    +0.000 A 
ATOM     25  C   UNL     1       1.346   5.591  20.667  0.00  0.00    +0.000 A 
ATOM     26  C   UNL     1       1.609   4.475  19.855  0.00  0.00    +0.000 A 
ATOM     27  C   UNL     1       2.362   4.619  18.685  0.00  0.00    +0.000 A 
ATOM     28  C   UNL     1       2.843   5.876  18.342  0.00  0.00    +0.000 A 
ATOM     29  F   UNL     1       3.562   6.053  17.223  0.00  0.00    +0.000 F 
ATOM     30  C   UNL     1       2.593   6.979  19.152  0.00  0.00    +0.000 A 
BRANCH  27  31
ATOM     31  C   UNL     1       2.640   3.492  17.856  0.00  0.00    +0.000 C 
ATOM     32  N   UNL     1       2.859   2.562  17.199  0.00  0.00    +0.000 NA
ENDBRANCH  27  31
ENDBRANCH   5  24
BRANCH   3  33
ATOM     33  C   UNL     1       0.136   9.678  23.252  0.00  0.00    +0.000 C 
ATOM     34  N   UNL     1      -1.163   9.777  23.668  0.00  0.00    +0.000 N 
ATOM     35  O   UNL     1       1.025   9.343  24.027  0.00  0.00    +0.000 OA
ATOM     36  H   UNL     1      -1.932   9.832  23.015  0.00  0.00    +0.000 HD
ATOM     37  H   UNL     1      -1.368   9.524  24.625  0.00  0.00    +0.000 HD
ENDBRANCH   3  33
TORSDOF 8
ENDMDL
MODEL 3
REMARK VINA RESULT:      -7.0      2.773      5.102
REMARK  Name = 
REMARK  11 active torsions:
REMARK  status: ('A' for Active; 'I' for Inactive)
REMARK    1  A    between atoms: C_1  and  C_2
REMARK    2  A    between atoms: C_2  and  C_3
REMARK    3  A    between atoms: C_2  and  C_4
REMARK    4  A    between atoms: C_2  and  O_5
REMARK    5  A    between atoms: O_5  and  C_6
REMARK    6  A    between atoms: C_11  and  C_12
REMARK    7  A    between atoms: C_11  and  N_15
REMARK    8  A    between atoms: C_12  and  C_13
REMARK    9  A    between atoms: C_17  and  C_18
REMARK   10  A    between atoms: N_22  and  C_23
REMARK   11  A    between atoms: C_26  and  C_27
REMARK                            x       y       z     vdW  Elec       q    Type
REMARK                         _______ _______ _______ _____ _____    ______ ____
ROOT
ATOM      1  N   UNL     1      -1.091  11.128  19.073  0.00  0.00    +0.000 N 
ATOM      2  C   UNL     1      -1.369  10.714  17.799  0.00  0.00    +0.000 A 
ATOM      3  C   UNL     1      -2.661  11.123  17.516  0.00  0.00    +0.000 A 
ATOM      4  C   UNL     1      -3.079  11.799  18.692  0.00  0.00    +0.000 A 
ATOM      5  N   UNL     1      -4.312  12.342  18.856  0.00  0.00    +0.000 N 
ATOM      6  N   UNL     1      -2.109  11.806  19.617  0.00  0.00    +0.000 NA
ATOM      7  H   UNL     1      -4.889  12.487  18.026  0.00  0.00    +0.000 HD
ENDROOT
BRANCH   1  13
ATOM      8  C   UNL     1       1.945  14.515  21.167  0.00  0.00    +0.000 C 
ATOM      9  O   UNL     1       1.760  14.813  22.342  0.00  0.00    +0.000 OA
ATOM     10  N   UNL     1       1.136  13.602  20.512  0.00  0.00    +0.000 N 
ATOM     11  C   UNL     1      -0.032  13.093  21.206  0.00  0.00    +0.000 C 
ATOM     12  C   UNL     1       0.019  11.573  21.273  0.00  0.00    +0.000 C 
ATOM     13  C   UNL     1       0.147  10.927  19.864  0.00  0.00    +0.000 C 
ATOM     14  C   UNL     1       1.379  11.584  19.150  0.00  0.00    +0.000 C 
ATOM     15  C   UNL     1       1.338  13.117  19.155  0.00  0.00    +0.000 C 
BRANCH   8  16
ATOM     16  O   UNL     1       2.939  15.031  20.395  0.00  0.00    +0.000 OA
BRANCH  16  18
ATOM     17  C   UNL     1       3.185  16.463  18.409  0.00  0.00    +0.000 C 
ATOM     18  C   UNL     1       2.794  16.392  19.893  0.00  0.00    +0.000 C 
ATOM     19  C   UNL     1       3.575  17.398  20.755  0.00  0.00    +0.000 C 
ATOM     20  C   UNL     1       1.302  16.747  20.002  0.00  0.00    +0.000 C 
ENDBRANCH  16  18
ENDBRANCH   8  16
BRANCH  13  21
ATOM     21  C   UNL     1       0.440   9.396  20.014  0.00  0.00    +0.000 C 
BRANCH  21  22
ATOM     22  C   UNL     1       0.978   9.108  21.405  0.00  0.00    +0.000 C 
ATOM     23  N   UNL     1       1.425   8.868  22.560  0.00  0.00    +0.000 NA
ENDBRANCH  21  22
ENDBRANCH  13  21
ENDBRANCH   1  13
BRANCH   5  24
ATOM     24  C   UNL     1      -5.019  12.497  20.068  0.00  0.00    +0.000 A 
ATOM     25  C   UNL     1      -6.239  11.834  20.261  0.00  0.00    +0.000 A 
ATOM     26  C   UNL     1      -6.999  12.052  21.422  0.00  0.00    +0.000 A 
ATOM     27  C   UNL     1      -6.541  12.931  22.408  0.00  0.00    +0.000 A 
ATOM     28  C   UNL     1      -5.328  13.583  22.221  0.00  0.00    +0.000 A 
ATOM     29  F   UNL     1      -4.854  14.428  23.150  0.00  0.00    +0.000 F 
ATOM     30  C   UNL     1      -4.581  13.377  21.067  0.00  0.00    +0.000 A 
BRANCH  27  31
ATOM     31  C   UNL     1      -7.308  13.164  23.588  0.00  0.00    +0.000 C 
ATOM     32  N   UNL     1      -7.913  13.358  24.558  0.00  0.00    +0.000 NA
ENDBRANCH  27  31
ENDBRANCH   5  24
BRANCH   3  33
ATOM     33  C   UNL     1      -3.407  10.892  16.295  0.00  0.00    +0.000 C 
ATOM     34  N   UNL     1      -2.726  10.252  15.297  0.00  0.00    +0.000 N 
ATOM     35  O   UNL     1      -4.587  11.198  16.161  0.00  0.00    +0.000 OA
ATOM     36  H   UNL     1      -1.838   9.800  15.461  0.00  0.00    +0.000 HD
ATOM     37  H   UNL     1      -3.241  10.006  14.463  0.00  0.00    +0.000 HD
ENDBRANCH   3  33
TORSDOF 8
ENDMDL
MODEL 4
REMARK VINA RESULT:      -7.0      4.416      9.017
REMARK  Name = 
REMARK  11 active torsions:
REMARK  status: ('A' for Active; 'I' for Inactive)
REMARK    1  A    between atoms: C_1  and  C_2
REMARK    2  A    between atoms: C_2  and  C_3
REMARK    3  A    between atoms: C_2  and  C_4
REMARK    4  A    between atoms: C_2  and  O_5
REMARK    5  A    between atoms: O_5  and  C_6
REMARK    6  A    between atoms: C_11  and  C_12
REMARK    7  A    between atoms: C_11  and  N_15
REMARK    8  A    between atoms: C_12  and  C_13
REMARK    9  A    between atoms: C_17  and  C_18
REMARK   10  A    between atoms: N_22  and  C_23
REMARK   11  A    between atoms: C_26  and  C_27
REMARK                            x       y       z     vdW  Elec       q    Type
REMARK                         _______ _______ _______ _____ _____    ______ ____
ROOT
ATOM      1  N   UNL     1       0.429  10.539  19.710  0.00  0.00    +0.000 N 
ATOM      2  C   UNL     1       0.012  10.805  20.985  0.00  0.00    +0.000 A 
ATOM      3  C   UNL     1       0.457   9.763  21.780  0.00  0.00    +0.000 A 
ATOM      4  C   UNL     1       1.157   8.913  20.883  0.00  0.00    +0.000 A 
ATOM      5  N   UNL     1       1.738   7.742  21.247  0.00  0.00    +0.000 N 
ATOM      6  N   UNL     1       1.143   9.408  19.638  0.00  0.00    +0.000 NA
ATOM      7  H   UNL     1       1.893   7.570  22.241  0.00  0.00    +0.000 HD
ENDROOT
BRANCH   1  13
ATOM      8  C   UNL     1       1.950  15.165  18.543  0.00  0.00    +0.000 C 
ATOM      9  O   UNL     1       2.992  15.291  17.910  0.00  0.00    +0.000 OA
ATOM     10  N   UNL     1       1.474  13.921  18.921  0.00  0.00    +0.000 N 
ATOM     11  C   UNL     1       2.305  12.759  18.667  0.00  0.00    +0.000 C 
ATOM     12  C   UNL     1       1.546  11.746  17.820  0.00  0.00    +0.000 C 
ATOM     13  C   UNL     1       0.198  11.327  18.475  0.00  0.00    +0.000 C 
ATOM     14  C   UNL     1      -0.604  12.636  18.790  0.00  0.00    +0.000 C 
ATOM     15  C   UNL     1       0.204  13.669  19.585  0.00  0.00    +0.000 C 
BRANCH   8  16
ATOM     16  O   UNL     1       1.163  16.203  18.934  0.00  0.00    +0.000 OA
BRANCH  16  18
ATOM     17  C   UNL     1       3.017  16.660  20.485  0.00  0.00    +0.000 C 
ATOM     18  C   UNL     1       1.565  16.980  20.100  0.00  0.00    +0.000 C 
ATOM     19  C   UNL     1       0.590  16.785  21.273  0.00  0.00    +0.000 C 
ATOM     20  C   UNL     1       1.505  18.461  19.689  0.00  0.00    +0.000 C 
ENDBRANCH  16  18
ENDBRANCH   8  16
BRANCH  13  21
ATOM     21  C   UNL     1      -0.640  10.484  17.455  0.00  0.00    +0.000 C 
BRANCH  21  22
ATOM     22  C   UNL     1      -2.120  10.607  17.777  0.00  0.00    +0.000 C 
ATOM     23  N   UNL     1      -3.348  10.709  18.045  0.00  0.00    +0.000 NA
ENDBRANCH  21  22
ENDBRANCH  13  21
ENDBRANCH   1  13
BRANCH   5  24
ATOM     24  C   UNL     1       1.925   6.599  20.440  0.00  0.00    +0.000 A 
ATOM     25  C   UNL     1       2.660   6.690  19.250  0.00  0.00    +0.000 A 
ATOM     26  C   UNL     1       2.774   5.585  18.390  0.00  0.00    +0.000 A 
ATOM     27  C   UNL     1       2.161   4.372  18.718  0.00  0.00    +0.000 A 
ATOM     28  C   UNL     1       1.438   4.279  19.901  0.00  0.00    +0.000 A 
ATOM     29  F   UNL     1       0.843   3.128  20.252  0.00  0.00    +0.000 F 
ATOM     30  C   UNL     1       1.315   5.375  20.747  0.00  0.00    +0.000 A 
BRANCH  27  31
ATOM     31  C   UNL     1       2.266   3.246  17.849  0.00  0.00    +0.000 C 
ATOM     32  N   UNL     1       2.373   2.332  17.143  0.00  0.00    +0.000 NA
ENDBRANCH  27  31
ENDBRANCH   5  24
BRANCH   3  33
ATOM     33  C   UNL     1       0.238   9.588  23.202  0.00  0.00    +0.000 C 
ATOM     34  N   UNL     1      -1.063   9.675  23.615  0.00  0.00    +0.000 N 
ATOM     35  O   UNL     1       1.138   9.331  23.994  0.00  0.00    +0.000 OA
ATOM     36  H   UNL     1      -1.833   9.665  22.962  0.00  0.00    +0.000 HD
ATOM     37  H   UNL     1      -1.259   9.478  24.587  0.00  0.00    +0.000 HD
ENDBRANCH   3  33
TORSDOF 8
ENDMDL
MODEL 5
REMARK VINA RESULT:      -7.0      4.472      9.125
REMARK  Name = 
REMARK  11 active torsions:
REMARK  status: ('A' for Active; 'I' for Inactive)
REMARK    1  A    between atoms: C_1  and  C_2
REMARK    2  A    between atoms: C_2  and  C_3
REMARK    3  A    between atoms: C_2  and  C_4
REMARK    4  A    between atoms: C_2  and  O_5
REMARK    5  A    between atoms: O_5  and  C_6
REMARK    6  A    between atoms: C_11  and  C_12
REMARK    7  A    between atoms: C_11  and  N_15
REMARK    8  A    between atoms: C_12  and  C_13
REMARK    9  A    between atoms: C_17  and  C_18
REMARK   10  A    between atoms: N_22  and  C_23
REMARK   11  A    between atoms: C_26  and  C_27
REMARK                            x       y       z     vdW  Elec       q    Type
REMARK                         _______ _______ _______ _____ _____    ______ ____
ROOT
ATOM      1  N   UNL     1       0.417  10.523  19.705  0.00  0.00    +0.000 N 
ATOM      2  C   UNL     1       0.055  10.789  20.997  0.00  0.00    +0.000 A 
ATOM      3  C   UNL     1       0.517   9.738  21.770  0.00  0.00    +0.000 A 
ATOM      4  C   UNL     1       1.168   8.883  20.843  0.00  0.00    +0.000 A 
ATOM      5  N   UNL     1       1.748   7.702  21.178  0.00  0.00    +0.000 N 
ATOM      6  N   UNL     1       1.112   9.383  19.601  0.00  0.00    +0.000 NA
ATOM      7  H   UNL     1       1.940   7.523  22.165  0.00  0.00    +0.000 HD
ENDROOT
BRANCH   1  13
ATOM      8  C   UNL     1       1.502  15.310  18.712  0.00  0.00    +0.000 C 
ATOM      9  O   UNL     1       2.546  15.558  18.120  0.00  0.00    +0.000 OA
ATOM     10  N   UNL     1       1.142  14.014  19.041  0.00  0.00    +0.000 N 
ATOM     11  C   UNL     1       2.093  12.948  18.787  0.00  0.00    +0.000 C 
ATOM     12  C   UNL     1       1.467  11.890  17.888  0.00  0.00    +0.000 C 
ATOM     13  C   UNL     1       0.148  11.320  18.484  0.00  0.00    +0.000 C 
ATOM     14  C   UNL     1      -0.792  12.533  18.804  0.00  0.00    +0.000 C 
ATOM     15  C   UNL     1      -0.117  13.618  19.653  0.00  0.00    +0.000 C 
BRANCH   8  16
ATOM     16  O   UNL     1       0.602  16.253  19.102  0.00  0.00    +0.000 OA
BRANCH  16  18
ATOM     17  C   UNL     1       1.409  18.483  19.756  0.00  0.00    +0.000 C 
ATOM     18  C   UNL     1       0.935  17.104  20.237  0.00  0.00    +0.000 C 
ATOM     19  C   UNL     1       1.951  16.427  21.172  0.00  0.00    +0.000 C 
ATOM     20  C   UNL     1      -0.365  17.308  21.035  0.00  0.00    +0.000 C 
ENDBRANCH  16  18
ENDBRANCH   8  16
BRANCH  13  21
ATOM     21  C   UNL     1      -0.567  10.428  17.414  0.00  0.00    +0.000 C 
BRANCH  21  22
ATOM     22  C   UNL     1      -2.055  10.353  17.716  0.00  0.00    +0.000 C 
ATOM     23  N   UNL     1      -3.289  10.290  17.967  0.00  0.00    +0.000 NA
ENDBRANCH  21  22
ENDBRANCH  13  21
ENDBRANCH   1  13
BRANCH   5  24
ATOM     24  C   UNL     1       1.887   6.560  20.360  0.00  0.00    +0.000 A 
ATOM     25  C   UNL     1       1.347   5.333  20.767  0.00  0.00    +0.000 A 
ATOM     26  C   UNL     1       1.559   4.168  20.010  0.00  0.00    +0.000 A 
ATOM     27  C   UNL     1       2.307   4.223  18.830  0.00  0.00    +0.000 A 
ATOM     28  C   UNL     1       2.837   5.440  18.422  0.00  0.00    +0.000 A 
ATOM     29  F   UNL     1       3.554   5.531  17.291  0.00  0.00    +0.000 F 
ATOM     30  C   UNL     1       2.638   6.591  19.177  0.00  0.00    +0.000 A 
BRANCH  27  31
ATOM     31  C   UNL     1       2.533   3.045  18.057  0.00  0.00    +0.000 C 
ATOM     32  N   UNL     1       2.713   2.100  17.411  0.00  0.00    +0.000 NA
ENDBRANCH  27  31
ENDBRANCH   5  24
BRANCH   3  33
ATOM     33  C   UNL     1       0.352   9.559  23.198  0.00  0.00    +0.000 C 
ATOM     34  N   UNL     1      -0.935   9.619  23.658  0.00  0.00    +0.000 N 
ATOM     35  O   UNL     1       1.285   9.321  23.958  0.00  0.00    +0.000 OA
ATOM     36  H   UNL     1      -1.728   9.592  23.032  0.00  0.00    +0.000 HD
ATOM     37  H   UNL     1      -1.092   9.419  24.636  0.00  0.00    +0.000 HD
ENDBRANCH   3  33
TORSDOF 8
ENDMDL
MODEL 6
REMARK VINA RESULT:      -6.9      4.359      9.040
REMARK  Name = 
REMARK  11 active torsions:
REMARK  status: ('A' for Active; 'I' for Inactive)
REMARK    1  A    between atoms: C_1  and  C_2
REMARK    2  A    between atoms: C_2  and  C_3
REMARK    3  A    between atoms: C_2  and  C_4
REMARK    4  A    between atoms: C_2  and  O_5
REMARK    5  A    between atoms: O_5  and  C_6
REMARK    6  A    between atoms: C_11  and  C_12
REMARK    7  A    between atoms: C_11  and  N_15
REMARK    8  A    between atoms: C_12  and  C_13
REMARK    9  A    between atoms: C_17  and  C_18
REMARK   10  A    between atoms: N_22  and  C_23
REMARK   11  A    between atoms: C_26  and  C_27
REMARK                            x       y       z     vdW  Elec       q    Type
REMARK                         _______ _______ _______ _____ _____    ______ ____
ROOT
ATOM      1  N   UNL     1       0.373  10.768  19.782  0.00  0.00    +0.000 N 
ATOM      2  C   UNL     1      -0.060  10.937  21.069  0.00  0.00    +0.000 A 
ATOM      3  C   UNL     1       0.394   9.847  21.792  0.00  0.00    +0.000 A 
ATOM      4  C   UNL     1       1.114   9.073  20.844  0.00  0.00    +0.000 A 
ATOM      5  N   UNL     1       1.710   7.888  21.130  0.00  0.00    +0.000 N 
ATOM      6  N   UNL     1       1.103   9.655  19.637  0.00  0.00    +0.000 NA
ATOM      7  H   UNL     1       1.859   7.648  22.111  0.00  0.00    +0.000 HD
ENDROOT
BRANCH   1  13
ATOM      8  C   UNL     1       2.355  15.228  18.668  0.00  0.00    +0.000 C 
ATOM      9  O   UNL     1       3.349  15.260  17.951  0.00  0.00    +0.000 OA
ATOM     10  N   UNL     1       1.761  14.034  19.037  0.00  0.00    +0.000 N 
ATOM     11  C   UNL     1       2.417  12.794  18.666  0.00  0.00    +0.000 C 
ATOM     12  C   UNL     1       1.471  11.923  17.850  0.00  0.00    +0.000 C 
ATOM     13  C   UNL     1       0.140  11.638  18.604  0.00  0.00    +0.000 C 
ATOM     14  C   UNL     1      -0.465  13.017  19.039  0.00  0.00    +0.000 C 
ATOM     15  C   UNL     1       0.529  13.904  19.800  0.00  0.00    +0.000 C 
BRANCH   8  16
ATOM     16  O   UNL     1       1.738  16.334  19.167  0.00  0.00    +0.000 OA
BRANCH  16  18
ATOM     17  C   UNL     1      -0.285  16.847  17.864  0.00  0.00    +0.000 C 
ATOM     18  C   UNL     1       1.142  17.279  18.231  0.00  0.00    +0.000 C 
ATOM     19  C   UNL     1       2.031  17.484  16.992  0.00  0.00    +0.000 C 
ATOM     20  C   UNL     1       1.049  18.629  18.963  0.00  0.00    +0.000 C 
ENDBRANCH  16  18
ENDBRANCH   8  16
BRANCH  13  21
ATOM     21  C   UNL     1      -0.877  10.953  17.629  0.00  0.00    +0.000 C 
BRANCH  21  22
ATOM     22  C   UNL     1      -2.299  11.238  18.085  0.00  0.00    +0.000 C 
ATOM     23  N   UNL     1      -3.479  11.474  18.463  0.00  0.00    +0.000 NA
ENDBRANCH  21  22
ENDBRANCH  13  21
ENDBRANCH   1  13
BRANCH   5  24
ATOM     24  C   UNL     1       1.921   6.808  20.246  0.00  0.00    +0.000 A 
ATOM     25  C   UNL     1       2.531   7.024  19.003  0.00  0.00    +0.000 A 
ATOM     26  C   UNL     1       2.662   5.978  18.075  0.00  0.00    +0.000 A 
ATOM     27  C   UNL     1       2.191   4.699  18.385  0.00  0.00    +0.000 A 
ATOM     28  C   UNL     1       1.592   4.481  19.620  0.00  0.00    +0.000 A 
ATOM     29  F   UNL     1       1.135   3.265  19.955  0.00  0.00    +0.000 F 
ATOM     30  C   UNL     1       1.451   5.519  20.535  0.00  0.00    +0.000 A 
BRANCH  27  31
ATOM     31  C   UNL     1       2.313   3.631  17.448  0.00  0.00    +0.000 C 
ATOM     32  N   UNL     1       2.414   2.748  16.702  0.00  0.00    +0.000 NA
ENDBRANCH  27  31
ENDBRANCH   5  24
BRANCH   3  33
ATOM     33  C   UNL     1       0.165   9.568  23.196  0.00  0.00    +0.000 C 
ATOM     34  N   UNL     1      -1.108   9.191  23.524  0.00  0.00    +0.000 N 
ATOM     35  O   UNL     1       1.051   9.615  24.043  0.00  0.00    +0.000 OA
ATOM     36  H   UNL     1      -1.787   8.935  22.823  0.00  0.00    +0.000 HD
ATOM     37  H   UNL     1      -1.280   8.913  24.480  0.00  0.00    +0.000 HD
ENDBRANCH   3  33
TORSDOF 8
ENDMDL
MODEL 7
REMARK VINA RESULT:      -6.9      2.845      5.095
REMARK  Name = 
REMARK  11 active torsions:
REMARK  status: ('A' for Active; 'I' for Inactive)
REMARK    1  A    between atoms: C_1  and  C_2
REMARK    2  A    between atoms: C_2  and  C_3
REMARK    3  A    between atoms: C_2  and  C_4
REMARK    4  A    between atoms: C_2  and  O_5
REMARK    5  A    between atoms: O_5  and  C_6
REMARK    6  A    between atoms: C_11  and  C_12
REMARK    7  A    between atoms: C_11  and  N_15
REMARK    8  A    between atoms: C_12  and  C_13
REMARK    9  A    between atoms: C_17  and  C_18
REMARK   10  A    between atoms: N_22  and  C_23
REMARK   11  A    between atoms: C_26  and  C_27
REMARK                            x       y       z     vdW  Elec       q    Type
REMARK                         _______ _______ _______ _____ _____    ______ ____
ROOT
ATOM      1  N   UNL     1      -0.999  11.106  19.126  0.00  0.00    +0.000 N 
ATOM      2  C   UNL     1      -1.256  10.700  17.846  0.00  0.00    +0.000 A 
ATOM      3  C   UNL     1      -2.545  11.107  17.545  0.00  0.00    +0.000 A 
ATOM      4  C   UNL     1      -2.983  11.774  18.719  0.00  0.00    +0.000 A 
ATOM      5  N   UNL     1      -4.220  12.313  18.867  0.00  0.00    +0.000 N 
ATOM      6  N   UNL     1      -2.028  11.777  19.659  0.00  0.00    +0.000 NA
ATOM      7  H   UNL     1      -4.784  12.462  18.029  0.00  0.00    +0.000 HD
ENDROOT
BRANCH   1  13
ATOM      8  C   UNL     1       2.095  14.490  21.138  0.00  0.00    +0.000 C 
ATOM      9  O   UNL     1       1.907  14.830  22.300  0.00  0.00    +0.000 OA
ATOM     10  N   UNL     1       1.271  13.575  20.505  0.00  0.00    +0.000 N 
ATOM     11  C   UNL     1       0.086  13.115  21.204  0.00  0.00    +0.000 C 
ATOM     12  C   UNL     1       0.102  11.597  21.322  0.00  0.00    +0.000 C 
ATOM     13  C   UNL     1       0.227  10.903  19.935  0.00  0.00    +0.000 C 
ATOM     14  C   UNL     1       1.480  11.507  19.212  0.00  0.00    +0.000 C 
ATOM     15  C   UNL     1       1.475  13.041  19.167  0.00  0.00    +0.000 C 
BRANCH   8  16
ATOM     16  O   UNL     1       3.109  14.957  20.359  0.00  0.00    +0.000 OA
BRANCH  16  18
ATOM     17  C   UNL     1       1.531  16.796  19.930  0.00  0.00    +0.000 C 
ATOM     18  C   UNL     1       2.960  16.267  19.738  0.00  0.00    +0.000 C 
ATOM     19  C   UNL     1       3.385  16.244  18.260  0.00  0.00    +0.000 C 
ATOM     20  C   UNL     1       3.915  17.219  20.479  0.00  0.00    +0.000 C 
ENDBRANCH  16  18
ENDBRANCH   8  16
BRANCH  13  21
ATOM     21  C   UNL     1       0.482   9.371  20.138  0.00  0.00    +0.000 C 
BRANCH  21  22
ATOM     22  C   UNL     1      -0.222   8.893  21.397  0.00  0.00    +0.000 C 
ATOM     23  N   UNL     1      -0.807   8.496  22.442  0.00  0.00    +0.000 NA
ENDBRANCH  21  22
ENDBRANCH  13  21
ENDBRANCH   1  13
BRANCH   5  24
ATOM     24  C   UNL     1      -4.947  12.457  20.069  0.00  0.00    +0.000 A 
ATOM     25  C   UNL     1      -6.206  11.859  20.206  0.00  0.00    +0.000 A 
ATOM     26  C   UNL     1      -6.981  12.072  21.358  0.00  0.00    +0.000 A 
ATOM     27  C   UNL     1      -6.498  12.880  22.392  0.00  0.00    +0.000 A 
ATOM     28  C   UNL     1      -5.246  13.467  22.260  0.00  0.00    +0.000 A 
ATOM     29  F   UNL     1      -4.747  14.243  23.235  0.00  0.00    +0.000 F 
ATOM     30  C   UNL     1      -4.483  13.267  21.115  0.00  0.00    +0.000 A 
BRANCH  27  31
ATOM     31  C   UNL     1      -7.279  13.107  23.564  0.00  0.00    +0.000 C 
ATOM     32  N   UNL     1      -7.915  13.313  24.511  0.00  0.00    +0.000 NA
ENDBRANCH  27  31
ENDBRANCH   5  24
BRANCH   3  33
ATOM     33  C   UNL     1      -3.271  10.883  16.311  0.00  0.00    +0.000 C 
ATOM     34  N   UNL     1      -4.616  11.127  16.364  0.00  0.00    +0.000 N 
ATOM     35  O   UNL     1      -2.729  10.543  15.265  0.00  0.00    +0.000 OA
ATOM     36  H   UNL     1      -5.041  11.613  17.140  0.00  0.00    +0.000 HD
ATOM     37  H   UNL     1      -5.137  11.058  15.501  0.00  0.00    +0.000 HD
ENDBRANCH   3  33
TORSDOF 8
ENDMDL
MODEL 8
REMARK VINA RESULT:      -6.9      1.773      2.285
REMARK  Name = 
REMARK  11 active torsions:
REMARK  status: ('A' for Active; 'I' for Inactive)
REMARK    1  A    between atoms: C_1  and  C_2
REMARK    2  A    between atoms: C_2  and  C_3
REMARK    3  A    between atoms: C_2  and  C_4
REMARK    4  A    between atoms: C_2  and  O_5
REMARK    5  A    between atoms: O_5  and  C_6
REMARK    6  A    between atoms: C_11  and  C_12
REMARK    7  A    between atoms: C_11  and  N_15
REMARK    8  A    between atoms: C_12  and  C_13
REMARK    9  A    between atoms: C_17  and  C_18
REMARK   10  A    between atoms: N_22  and  C_23
REMARK   11  A    between atoms: C_26  and  C_27
REMARK                            x       y       z     vdW  Elec       q    Type
REMARK                         _______ _______ _______ _____ _____    ______ ____
ROOT
ATOM      1  N   UNL     1      -0.456  11.267  19.197  0.00  0.00    +0.000 N 
ATOM      2  C   UNL     1      -1.185  10.452  18.376  0.00  0.00    +0.000 A 
ATOM      3  C   UNL     1      -2.476  10.951  18.356  0.00  0.00    +0.000 A 
ATOM      4  C   UNL     1      -2.422  12.094  19.196  0.00  0.00    +0.000 A 
ATOM      5  N   UNL     1      -3.493  12.877  19.482  0.00  0.00    +0.000 N 
ATOM      6  N   UNL     1      -1.186  12.278  19.683  0.00  0.00    +0.000 NA
ATOM      7  H   UNL     1      -4.321  12.794  18.891  0.00  0.00    +0.000 HD
ENDROOT
BRANCH   1  13
ATOM      8  C   UNL     1       2.680   7.386  18.777  0.00  0.00    +0.000 C 
ATOM      9  O   UNL     1       3.388   7.317  17.778  0.00  0.00    +0.000 OA
ATOM     10  N   UNL     1       1.774   8.417  18.956  0.00  0.00    +0.000 N 
ATOM     11  C   UNL     1       1.576   9.358  17.870  0.00  0.00    +0.000 C 
ATOM     12  C   UNL     1       1.849  10.777  18.349  0.00  0.00    +0.000 C 
ATOM     13  C   UNL     1       0.974  11.161  19.576  0.00  0.00    +0.000 C 
ATOM     14  C   UNL     1       1.182  10.059  20.671  0.00  0.00    +0.000 C 
ATOM     15  C   UNL     1       0.967   8.633  20.148  0.00  0.00    +0.000 C 
BRANCH   8  16
ATOM     16  O   UNL     1       2.705   6.484  19.795  0.00  0.00    +0.000 OA
BRANCH  16  18
ATOM     17  C   UNL     1       4.023   4.444  19.399  0.00  0.00    +0.000 C 
ATOM     18  C   UNL     1       2.620   5.066  19.470  0.00  0.00    +0.000 C 
ATOM     19  C   UNL     1       1.807   4.829  18.187  0.00  0.00    +0.000 C 
ATOM     20  C   UNL     1       1.866   4.390  20.628  0.00  0.00    +0.000 C 
ENDBRANCH  16  18
ENDBRANCH   8  16
BRANCH  13  21
ATOM     21  C   UNL     1       1.470  12.524  20.167  0.00  0.00    +0.000 C 
BRANCH  21  22
ATOM     22  C   UNL     1       2.275  13.277  19.121  0.00  0.00    +0.000 C 
ATOM     23  N   UNL     1       2.944  13.902  18.253  0.00  0.00    +0.000 NA
ENDBRANCH  21  22
ENDBRANCH  13  21
ENDBRANCH   1  13
BRANCH   5  24
ATOM     24  C   UNL     1      -3.715  13.616  20.664  0.00  0.00    +0.000 A 
ATOM     25  C   UNL     1      -3.597  15.012  20.653  0.00  0.00    +0.000 A 
ATOM     26  C   UNL     1      -3.722  15.753  21.841  0.00  0.00    +0.000 A 
ATOM     27  C   UNL     1      -3.976  15.103  23.052  0.00  0.00    +0.000 A 
ATOM     28  C   UNL     1      -4.101  13.719  23.062  0.00  0.00    +0.000 A 
ATOM     29  F   UNL     1      -4.353  13.062  24.205  0.00  0.00    +0.000 F 
ATOM     30  C   UNL     1      -3.966  12.984  21.890  0.00  0.00    +0.000 A 
BRANCH  27  31
ATOM     31  C   UNL     1      -4.099  15.845  24.264  0.00  0.00    +0.000 C 
ATOM     32  N   UNL     1      -4.177  16.453  25.248  0.00  0.00    +0.000 NA
ENDBRANCH  27  31
ENDBRANCH   5  24
BRANCH   3  33
ATOM     33  C   UNL     1      -3.617  10.409  17.645  0.00  0.00    +0.000 C 
ATOM     34  N   UNL     1      -3.339   9.823  16.441  0.00  0.00    +0.000 N 
ATOM     35  O   UNL     1      -4.757  10.421  18.096  0.00  0.00    +0.000 OA
ATOM     36  H   UNL     1      -2.394   9.607  16.156  0.00  0.00    +0.000 HD
ATOM     37  H   UNL     1      -4.099   9.366  15.957  0.00  0.00    +0.000 HD
ENDBRANCH   3  33
TORSDOF 8
ENDMDL
MODEL 9
REMARK VINA RESULT:      -6.9      1.231      1.812
REMARK  Name = 
REMARK  11 active torsions:
REMARK  status: ('A' for Active; 'I' for Inactive)
REMARK    1  A    between atoms: C_1  and  C_2
REMARK    2  A    between atoms: C_2  and  C_3
REMARK    3  A    between atoms: C_2  and  C_4
REMARK    4  A    between atoms: C_2  and  O_5
REMARK    5  A    between atoms: O_5  and  C_6
REMARK    6  A    between atoms: C_11  and  C_12
REMARK    7  A    between atoms: C_11  and  N_15
REMARK    8  A    between atoms: C_12  and  C_13
REMARK    9  A    between atoms: C_17  and  C_18
REMARK   10  A    between atoms: N_22  and  C_23
REMARK   11  A    between atoms: C_26  and  C_27
REMARK                            x       y       z     vdW  Elec       q    Type
REMARK                         _______ _______ _______ _____ _____    ______ ____
ROOT
ATOM      1  N   UNL     1      -0.729  11.190  18.711  0.00  0.00    +0.000 N 
ATOM      2  C   UNL     1      -0.969  10.694  17.459  0.00  0.00    +0.000 A 
ATOM      3  C   UNL     1      -2.275  11.022  17.139  0.00  0.00    +0.000 A 
ATOM      4  C   UNL     1      -2.743  11.740  18.272  0.00  0.00    +0.000 A 
ATOM      5  N   UNL     1      -4.003  12.229  18.392  0.00  0.00    +0.000 N 
ATOM      6  N   UNL     1      -1.787  11.845  19.205  0.00  0.00    +0.000 NA
ATOM      7  H   UNL     1      -4.574  12.300  17.549  0.00  0.00    +0.000 HD
ENDROOT
BRANCH   1  13
ATOM      8  C   UNL     1       2.559   7.433  19.091  0.00  0.00    +0.000 C 
ATOM      9  O   UNL     1       3.552   7.456  18.372  0.00  0.00    +0.000 OA
ATOM     10  N   UNL     1       1.594   8.424  19.030  0.00  0.00    +0.000 N 
ATOM     11  C   UNL     1       1.711   9.437  17.998  0.00  0.00    +0.000 C 
ATOM     12  C   UNL     1       1.747  10.824  18.626  0.00  0.00    +0.000 C 
ATOM     13  C   UNL     1       0.507  11.094  19.525  0.00  0.00    +0.000 C 
ATOM     14  C   UNL     1       0.404   9.920  20.559  0.00  0.00    +0.000 C 
ATOM     15  C   UNL     1       0.438   8.531  19.907  0.00  0.00    +0.000 C 
BRANCH   8  16
ATOM     16  O   UNL     1       2.299   6.459  20.005  0.00  0.00    +0.000 OA
BRANCH  16  18
ATOM     17  C   UNL     1       1.226   4.274  20.359  0.00  0.00    +0.000 C 
ATOM     18  C   UNL     1       2.260   5.074  19.553  0.00  0.00    +0.000 C 
ATOM     19  C   UNL     1       3.656   4.430  19.585  0.00  0.00    +0.000 C 
ATOM     20  C   UNL     1       1.794   5.100  18.087  0.00  0.00    +0.000 C 
ENDBRANCH  16  18
ENDBRANCH   8  16
BRANCH  13  21
ATOM     21  C   UNL     1       0.720  12.422  20.327  0.00  0.00    +0.000 C 
BRANCH  21  22
ATOM     22  C   UNL     1       1.389  13.458  19.440  0.00  0.00    +0.000 C 
ATOM     23  N   UNL     1       1.945  14.318  18.703  0.00  0.00    +0.000 NA
ENDBRANCH  21  22
ENDBRANCH  13  21
ENDBRANCH   1  13
BRANCH   5  24
ATOM     24  C   UNL     1      -4.733  12.414  19.586  0.00  0.00    +0.000 A 
ATOM     25  C   UNL     1      -4.176  13.140  20.647  0.00  0.00    +0.000 A 
ATOM     26  C   UNL     1      -4.850  13.252  21.874  0.00  0.00    +0.000 A 
ATOM     27  C   UNL     1      -6.097  12.644  22.049  0.00  0.00    +0.000 A 
ATOM     28  C   UNL     1      -6.654  11.930  20.996  0.00  0.00    +0.000 A 
ATOM     29  F   UNL     1      -7.852  11.340  21.126  0.00  0.00    +0.000 F 
ATOM     30  C   UNL     1      -5.982  11.809  19.785  0.00  0.00    +0.000 A 
BRANCH  27  31
ATOM     31  C   UNL     1      -6.787  12.747  23.293  0.00  0.00    +0.000 C 
ATOM     32  N   UNL     1      -7.360  12.812  24.299  0.00  0.00    +0.000 NA
ENDBRANCH  27  31
ENDBRANCH   5  24
BRANCH   3  33
ATOM     33  C   UNL     1      -2.993  10.689  15.925  0.00  0.00    +0.000 C 
ATOM     34  N   UNL     1      -2.984   9.366  15.577  0.00  0.00    +0.000 N 
ATOM     35  O   UNL     1      -3.613  11.514  15.263  0.00  0.00    +0.000 OA
ATOM     36  H   UNL     1      -2.673   8.648  16.214  0.00  0.00    +0.000 HD
ATOM     37  H   UNL     1      -3.541   9.089  14.780  0.00  0.00    +0.000 HD
ENDBRANCH   3  33
TORSDOF 8
ENDMDL
