MODEL 1
REMARK VINA RESULT:      -7.5      0.000      0.000
REMARK  Name = 
REMARK  8 active torsions:
REMARK  status: ('A' for Active; 'I' for Inactive)
REMARK    1  A    between atoms: C_1  and  O_2
REMARK    2  A    between atoms: O_2  and  C_3
REMARK    3  A    between atoms: C_3  and  C_5
REMARK    4  A    between atoms: C_11  and  C_12
REMARK    5  A    between atoms: C_12  and  O_14
REMARK    6  A    between atoms: O_14  and  C_15
REMARK    7  A    between atoms: C_15  and  C_16
REMARK    8  A    between atoms: C_16  and  C_18
REMARK                            x       y       z     vdW  Elec       q    Type
REMARK                         _______ _______ _______ _____ _____    ______ ____
ROOT
ATOM      1  C   UNL     1       5.525   4.589  18.755  0.00  0.00    +0.000 C 
ATOM      2  O   UNL     1       6.179   5.003  19.703  0.00  0.00    +0.000 OA
ENDROOT
BRANCH   1   9
ATOM      3  C   UNL     1       3.340   5.395  19.867  0.00  0.00    +0.000 C 
ATOM      4  C   UNL     1       2.426   4.281  20.433  0.00  0.00    +0.000 C 
ATOM      5  C   UNL     1       1.235   4.008  19.497  0.00  0.00    +0.000 C 
ATOM      6  C   UNL     1       1.900   3.385  18.264  0.00  0.00    +0.000 C 
ATOM      7  C   UNL     1       3.377   3.293  18.680  0.00  0.00    +0.000 C 
ATOM      8  C   UNL     1       3.267   3.032  20.184  0.00  0.00    +0.000 C 
ATOM      9  C   UNL     1       4.009   4.712  18.636  0.00  0.00    +0.000 C 
BRANCH   3  10
ATOM     10  C   UNL     1       2.575   6.657  19.541  0.00  0.00    +0.000 C 
ATOM     11  O   UNL     1       1.879   7.277  20.338  0.00  0.00    +0.000 OA
BRANCH  10  13
ATOM     12  C   UNL     1       2.199   8.270  17.876  0.00  0.00    +0.000 C 
ATOM     13  O   UNL     1       2.766   7.008  18.237  0.00  0.00    +0.000 OA
ENDBRANCH  10  13
ENDBRANCH   3  10
ENDBRANCH   1   9
BRANCH   1  14
ATOM     14  O   UNL     1       6.074   3.973  17.672  0.00  0.00    +0.000 OA
BRANCH  14  15
ATOM     15  C   UNL     1       7.159   4.707  17.087  0.00  0.00    +0.000 C 
BRANCH  15  16
ATOM     16  C   UNL     1       6.628   5.534  15.915  0.00  0.00    +0.000 C 
ATOM     17  O   UNL     1       6.135   6.652  16.052  0.00  0.00    +0.000 OA
BRANCH  16  18
ATOM     18  C   UNL     1       6.649   4.944  14.551  0.00  0.00    +0.000 A 
ATOM     19  C   UNL     1       5.623   4.052  14.213  0.00  0.00    +0.000 A 
ATOM     20  C   UNL     1       5.600   3.452  12.956  0.00  0.00    +0.000 A 
ATOM     21  C   UNL     1       6.594   3.749  12.028  0.00  0.00    +0.000 A 
ATOM     22  C   UNL     1       7.609   4.651  12.354  0.00  0.00    +0.000 A 
ATOM     23  C   UNL     1       7.641   5.251  13.616  0.00  0.00    +0.000 A 
ENDBRANCH  16  18
ENDBRANCH  15  16
ENDBRANCH  14  15
ENDBRANCH   1  14
TORSDOF 7
ENDMDL
MODEL 2
REMARK VINA RESULT:      -7.4      1.632      2.915
REMARK  Name = 
REMARK  8 active torsions:
REMARK  status: ('A' for Active; 'I' for Inactive)
REMARK    1  A    between atoms: C_1  and  O_2
REMARK    2  A    between atoms: O_2  and  C_3
REMARK    3  A    between atoms: C_3  and  C_5
REMARK    4  A    between atoms: C_11  and  C_12
REMARK    5  A    between atoms: C_12  and  O_14
REMARK    6  A    between atoms: O_14  and  C_15
REMARK    7  A    between atoms: C_15  and  C_16
REMARK    8  A    between atoms: C_16  and  C_18
REMARK                            x       y       z     vdW  Elec       q    Type
REMARK                         _______ _______ _______ _____ _____    ______ ____
ROOT
ATOM      1  C   UNL     1       5.723   4.821  19.043  0.00  0.00    +0.000 C 
ATOM      2  O   UNL     1       6.623   5.338  19.690  0.00  0.00    +0.000 OA
ENDROOT
BRANCH   1   9
ATOM      3  C   UNL     1       3.439   3.676  18.682  0.00  0.00    +0.000 C 
ATOM      4  C   UNL     1       2.320   4.579  18.110  0.00  0.00    +0.000 C 
ATOM      5  C   UNL     1       1.338   5.017  19.211  0.00  0.00    +0.000 C 
ATOM      6  C   UNL     1       2.190   5.948  20.083  0.00  0.00    +0.000 C 
ATOM      7  C   UNL     1       3.527   6.001  19.325  0.00  0.00    +0.000 C 
ATOM      8  C   UNL     1       3.069   5.887  17.868  0.00  0.00    +0.000 C 
ATOM      9  C   UNL     1       4.288   4.664  19.537  0.00  0.00    +0.000 C 
BRANCH   3  10
ATOM     10  C   UNL     1       2.889   2.497  19.452  0.00  0.00    +0.000 C 
ATOM     11  O   UNL     1       2.178   1.620  18.973  0.00  0.00    +0.000 OA
BRANCH  10  13
ATOM     12  C   UNL     1       2.225   2.548  21.704  0.00  0.00    +0.000 C 
ATOM     13  O   UNL     1       3.294   2.547  20.754  0.00  0.00    +0.000 OA
ENDBRANCH  10  13
ENDBRANCH   3  10
ENDBRANCH   1   9
BRANCH   1  14
ATOM     14  O   UNL     1       5.885   4.330  17.784  0.00  0.00    +0.000 OA
BRANCH  14  15
ATOM     15  C   UNL     1       7.236   4.419  17.305  0.00  0.00    +0.000 C 
BRANCH  15  16
ATOM     16  C   UNL     1       7.282   5.382  16.117  0.00  0.00    +0.000 C 
ATOM     17  O   UNL     1       7.484   6.588  16.240  0.00  0.00    +0.000 OA
BRANCH  16  18
ATOM     18  C   UNL     1       7.012   4.855  14.755  0.00  0.00    +0.000 A 
ATOM     19  C   UNL     1       7.801   5.339  13.703  0.00  0.00    +0.000 A 
ATOM     20  C   UNL     1       7.581   4.897  12.400  0.00  0.00    +0.000 A 
ATOM     21  C   UNL     1       6.582   3.962  12.144  0.00  0.00    +0.000 A 
ATOM     22  C   UNL     1       5.805   3.464  13.192  0.00  0.00    +0.000 A 
ATOM     23  C   UNL     1       6.016   3.909  14.500  0.00  0.00    +0.000 A 
ENDBRANCH  16  18
ENDBRANCH  15  16
ENDBRANCH  14  15
ENDBRANCH   1  14
TORSDOF 7
ENDMDL
MODEL 3
REMARK VINA RESULT:      -7.4      1.572      3.167
REMARK  Name = 
REMARK  8 active torsions:
REMARK  status: ('A' for Active; 'I' for Inactive)
REMARK    1  A    between atoms: C_1  and  O_2
REMARK    2  A    between atoms: O_2  and  C_3
REMARK    3  A    between atoms: C_3  and  C_5
REMARK    4  A    between atoms: C_11  and  C_12
REMARK    5  A    between atoms: C_12  and  O_14
REMARK    6  A    between atoms: O_14  and  C_15
REMARK    7  A    between atoms: C_15  and  C_16
REMARK    8  A    between atoms: C_16  and  C_18
REMARK                            x       y       z     vdW  Elec       q    Type
REMARK                         _______ _______ _______ _____ _____    ______ ____
ROOT
ATOM      1  C   UNL     1       4.059   5.628  18.041  0.00  0.00    +0.000 C 
ATOM      2  O   UNL     1       4.008   6.832  18.251  0.00  0.00    +0.000 OA
ENDROOT
BRANCH   1   9
ATOM      3  C   UNL     1       3.202   3.197  18.159  0.00  0.00    +0.000 C 
ATOM      4  C   UNL     1       1.673   3.017  17.998  0.00  0.00    +0.000 C 
ATOM      5  C   UNL     1       0.995   2.770  19.358  0.00  0.00    +0.000 C 
ATOM      6  C   UNL     1       1.161   4.113  20.077  0.00  0.00    +0.000 C 
ATOM      7  C   UNL     1       1.833   4.994  19.009  0.00  0.00    +0.000 C 
ATOM      8  C   UNL     1       1.219   4.447  17.717  0.00  0.00    +0.000 C 
ATOM      9  C   UNL     1       3.324   4.579  18.869  0.00  0.00    +0.000 C 
BRANCH   3  10
ATOM     10  C   UNL     1       3.841   2.051  18.910  0.00  0.00    +0.000 C 
ATOM     11  O   UNL     1       3.867   0.889  18.519  0.00  0.00    +0.000 OA
BRANCH  10  13
ATOM     12  C   UNL     1       5.079   1.487  20.824  0.00  0.00    +0.000 C 
ATOM     13  O   UNL     1       4.381   2.491  20.082  0.00  0.00    +0.000 OA
ENDBRANCH  10  13
ENDBRANCH   3  10
ENDBRANCH   1   9
BRANCH   1  14
ATOM     14  O   UNL     1       4.772   5.069  17.026  0.00  0.00    +0.000 OA
BRANCH  14  15
ATOM     15  C   UNL     1       5.866   5.884  16.579  0.00  0.00    +0.000 C 
BRANCH  15  16
ATOM     16  C   UNL     1       6.953   4.982  15.991  0.00  0.00    +0.000 C 
ATOM     17  O   UNL     1       7.870   4.513  16.661  0.00  0.00    +0.000 OA
BRANCH  16  18
ATOM     18  C   UNL     1       6.943   4.704  14.531  0.00  0.00    +0.000 A 
ATOM     19  C   UNL     1       6.042   3.739  14.060  0.00  0.00    +0.000 A 
ATOM     20  C   UNL     1       6.000   3.420  12.704  0.00  0.00    +0.000 A 
ATOM     21  C   UNL     1       6.848   4.072  11.813  0.00  0.00    +0.000 A 
ATOM     22  C   UNL     1       7.735   5.047  12.275  0.00  0.00    +0.000 A 
ATOM     23  C   UNL     1       7.786   5.366  13.635  0.00  0.00    +0.000 A 
ENDBRANCH  16  18
ENDBRANCH  15  16
ENDBRANCH  14  15
ENDBRANCH   1  14
TORSDOF 7
ENDMDL
MODEL 4
REMARK VINA RESULT:      -7.4      2.063      5.709
REMARK  Name = 
REMARK  8 active torsions:
REMARK  status: ('A' for Active; 'I' for Inactive)
REMARK    1  A    between atoms: C_1  and  O_2
REMARK    2  A    between atoms: O_2  and  C_3
REMARK    3  A    between atoms: C_3  and  C_5
REMARK    4  A    between atoms: C_11  and  C_12
REMARK    5  A    between atoms: C_12  and  O_14
REMARK    6  A    between atoms: O_14  and  C_15
REMARK    7  A    between atoms: C_15  and  C_16
REMARK    8  A    between atoms: C_16  and  C_18
REMARK                            x       y       z     vdW  Elec       q    Type
REMARK                         _______ _______ _______ _____ _____    ______ ____
ROOT
ATOM      1  C   UNL     1       3.802   6.911  17.724  0.00  0.00    +0.000 C 
ATOM      2  O   UNL     1       3.952   8.096  17.462  0.00  0.00    +0.000 OA
ENDROOT
BRANCH   1   9
ATOM      3  C   UNL     1       6.327   6.480  17.409  0.00  0.00    +0.000 C 
ATOM      4  C   UNL     1       6.735   5.848  16.056  0.00  0.00    +0.000 C 
ATOM      5  C   UNL     1       7.029   4.345  16.209  0.00  0.00    +0.000 C 
ATOM      6  C   UNL     1       5.650   3.753  16.521  0.00  0.00    +0.000 C 
ATOM      7  C   UNL     1       4.720   4.974  16.420  0.00  0.00    +0.000 C 
ATOM      8  C   UNL     1       5.398   5.797  15.321  0.00  0.00    +0.000 C 
ATOM      9  C   UNL     1       4.917   5.871  17.673  0.00  0.00    +0.000 C 
BRANCH   3  10
ATOM     10  C   UNL     1       7.338   6.209  18.499  0.00  0.00    +0.000 C 
ATOM     11  O   UNL     1       7.329   5.226  19.232  0.00  0.00    +0.000 OA
BRANCH  10  13
ATOM     12  C   UNL     1       7.894   8.392  17.833  0.00  0.00    +0.000 C 
ATOM     13  O   UNL     1       8.260   7.213  18.555  0.00  0.00    +0.000 OA
ENDBRANCH  10  13
ENDBRANCH   3  10
ENDBRANCH   1   9
BRANCH   1  14
ATOM     14  O   UNL     1       2.614   6.367  18.109  0.00  0.00    +0.000 OA
BRANCH  14  15
ATOM     15  C   UNL     1       2.424   6.361  19.532  0.00  0.00    +0.000 C 
BRANCH  15  16
ATOM     16  C   UNL     1       1.870   5.001  19.956  0.00  0.00    +0.000 C 
ATOM     17  O   UNL     1       0.962   4.872  20.775  0.00  0.00    +0.000 OA
BRANCH  16  18
ATOM     18  C   UNL     1       2.490   3.769  19.404  0.00  0.00    +0.000 A 
ATOM     19  C   UNL     1       1.911   3.206  18.259  0.00  0.00    +0.000 A 
ATOM     20  C   UNL     1       2.437   2.039  17.708  0.00  0.00    +0.000 A 
ATOM     21  C   UNL     1       3.549   1.437  18.290  0.00  0.00    +0.000 A 
ATOM     22  C   UNL     1       4.141   2.005  19.420  0.00  0.00    +0.000 A 
ATOM     23  C   UNL     1       3.614   3.171  19.982  0.00  0.00    +0.000 A 
ENDBRANCH  16  18
ENDBRANCH  15  16
ENDBRANCH  14  15
ENDBRANCH   1  14
TORSDOF 7
ENDMDL
MODEL 5
REMARK VINA RESULT:      -7.4      1.516      2.445
REMARK  Name = 
REMARK  8 active torsions:
REMARK  status: ('A' for Active; 'I' for Inactive)
REMARK    1  A    between atoms: C_1  and  O_2
REMARK    2  A    between atoms: O_2  and  C_3
REMARK    3  A    between atoms: C_3  and  C_5
REMARK    4  A    between atoms: C_11  and  C_12
REMARK    5  A    between atoms: C_12  and  O_14
REMARK    6  A    between atoms: O_14  and  C_15
REMARK    7  A    between atoms: C_15  and  C_16
REMARK    8  A    between atoms: C_16  and  C_18
REMARK                            x       y       z     vdW  Elec       q    Type
REMARK                         _______ _______ _______ _____ _____    ______ ____
ROOT
ATOM      1  C   UNL     1       5.111   5.366  18.772  0.00  0.00    +0.000 C 
ATOM      2  O   UNL     1       5.940   5.099  19.632  0.00  0.00    +0.000 OA
ENDROOT
BRANCH   1   9
ATOM      3  C   UNL     1       3.335   3.850  19.871  0.00  0.00    +0.000 C 
ATOM      4  C   UNL     1       2.769   2.723  18.974  0.00  0.00    +0.000 C 
ATOM      5  C   UNL     1       1.372   3.086  18.438  0.00  0.00    +0.000 C 
ATOM      6  C   UNL     1       1.660   4.247  17.480  0.00  0.00    +0.000 C 
ATOM      7  C   UNL     1       3.194   4.348  17.513  0.00  0.00    +0.000 C 
ATOM      8  C   UNL     1       3.604   2.885  17.706  0.00  0.00    +0.000 C 
ATOM      9  C   UNL     1       3.634   4.995  18.856  0.00  0.00    +0.000 C 
BRANCH   3  10
ATOM     10  C   UNL     1       2.385   4.234  20.983  0.00  0.00    +0.000 C 
ATOM     11  O   UNL     1       1.667   5.227  20.976  0.00  0.00    +0.000 OA
BRANCH  10  13
ATOM     12  C   UNL     1       1.323   2.431  22.048  0.00  0.00    +0.000 C 
ATOM     13  O   UNL     1       2.441   3.320  21.994  0.00  0.00    +0.000 OA
ENDBRANCH  10  13
ENDBRANCH   3  10
ENDBRANCH   1   9
BRANCH   1  14
ATOM     14  O   UNL     1       5.402   6.046  17.629  0.00  0.00    +0.000 OA
BRANCH  14  15
ATOM     15  C   UNL     1       6.810   6.217  17.408  0.00  0.00    +0.000 C 
BRANCH  15  16
ATOM     16  C   UNL     1       7.368   4.957  16.744  0.00  0.00    +0.000 C 
ATOM     17  O   UNL     1       8.136   4.184  17.313  0.00  0.00    +0.000 OA
BRANCH  16  18
ATOM     18  C   UNL     1       7.020   4.678  15.327  0.00  0.00    +0.000 A 
ATOM     19  C   UNL     1       5.920   3.845  15.080  0.00  0.00    +0.000 A 
ATOM     20  C   UNL     1       5.558   3.531  13.771  0.00  0.00    +0.000 A 
ATOM     21  C   UNL     1       6.284   4.056  12.706  0.00  0.00    +0.000 A 
ATOM     22  C   UNL     1       7.369   4.901  12.947  0.00  0.00    +0.000 A 
ATOM     23  C   UNL     1       7.742   5.214  14.258  0.00  0.00    +0.000 A 
ENDBRANCH  16  18
ENDBRANCH  15  16
ENDBRANCH  14  15
ENDBRANCH   1  14
TORSDOF 7
ENDMDL
MODEL 6
REMARK VINA RESULT:      -7.3      1.562      2.216
REMARK  Name = 
REMARK  8 active torsions:
REMARK  status: ('A' for Active; 'I' for Inactive)
REMARK    1  A    between atoms: C_1  and  O_2
REMARK    2  A    between atoms: O_2  and  C_3
REMARK    3  A    between atoms: C_3  and  C_5
REMARK    4  A    between atoms: C_11  and  C_12
REMARK    5  A    between atoms: C_12  and  O_14
REMARK    6  A    between atoms: O_14  and  C_15
REMARK    7  A    between atoms: C_15  and  C_16
REMARK    8  A    between atoms: C_16  and  C_18
REMARK                            x       y       z     vdW  Elec       q    Type
REMARK                         _______ _______ _______ _____ _____    ______ ____
ROOT
ATOM      1  C   UNL     1       5.019   4.330  19.388  0.00  0.00    +0.000 C 
ATOM      2  O   UNL     1       5.619   3.273  19.246  0.00  0.00    +0.000 OA
ENDROOT
BRANCH   1   9
ATOM      3  C   UNL     1       2.847   5.311  20.378  0.00  0.00    +0.000 C 
ATOM      4  C   UNL     1       1.888   4.288  21.032  0.00  0.00    +0.000 C 
ATOM      5  C   UNL     1       0.701   3.965  20.107  0.00  0.00    +0.000 C 
ATOM      6  C   UNL     1       1.362   3.204  18.951  0.00  0.00    +0.000 C 
ATOM      7  C   UNL     1       2.830   3.105  19.399  0.00  0.00    +0.000 C 
ATOM      8  C   UNL     1       2.689   2.994  20.920  0.00  0.00    +0.000 C 
ATOM      9  C   UNL     1       3.510   4.491  19.230  0.00  0.00    +0.000 C 
BRANCH   3  10
ATOM     10  C   UNL     1       2.131   6.561  19.919  0.00  0.00    +0.000 C 
ATOM     11  O   UNL     1       2.198   7.029  18.788  0.00  0.00    +0.000 OA
BRANCH  10  13
ATOM     12  C   UNL     1       1.314   8.522  20.921  0.00  0.00    +0.000 C 
ATOM     13  O   UNL     1       1.401   7.095  20.941  0.00  0.00    +0.000 OA
ENDBRANCH  10  13
ENDBRANCH   3  10
ENDBRANCH   1   9
BRANCH   1  14
ATOM     14  O   UNL     1       5.625   5.503  19.720  0.00  0.00    +0.000 OA
BRANCH  14  15
ATOM     15  C   UNL     1       7.044   5.495  19.500  0.00  0.00    +0.000 C 
BRANCH  15  16
ATOM     16  C   UNL     1       7.352   6.252  18.208  0.00  0.00    +0.000 C 
ATOM     17  O   UNL     1       8.007   7.293  18.181  0.00  0.00    +0.000 OA
BRANCH  16  18
ATOM     18  C   UNL     1       6.790   5.749  16.928  0.00  0.00    +0.000 A 
ATOM     19  C   UNL     1       5.754   6.486  16.340  0.00  0.00    +0.000 A 
ATOM     20  C   UNL     1       5.172   6.053  15.150  0.00  0.00    +0.000 A 
ATOM     21  C   UNL     1       5.631   4.890  14.537  0.00  0.00    +0.000 A 
ATOM     22  C   UNL     1       6.675   4.162  15.111  0.00  0.00    +0.000 A 
ATOM     23  C   UNL     1       7.258   4.588  16.308  0.00  0.00    +0.000 A 
ENDBRANCH  16  18
ENDBRANCH  15  16
ENDBRANCH  14  15
ENDBRANCH   1  14
TORSDOF 7
ENDMDL
MODEL 7
REMARK VINA RESULT:      -7.3      2.067      6.162
REMARK  Name = 
REMARK  8 active torsions:
REMARK  status: ('A' for Active; 'I' for Inactive)
REMARK    1  A    between atoms: C_1  and  O_2
REMARK    2  A    between atoms: O_2  and  C_3
REMARK    3  A    between atoms: C_3  and  C_5
REMARK    4  A    between atoms: C_11  and  C_12
REMARK    5  A    between atoms: C_12  and  O_14
REMARK    6  A    between atoms: O_14  and  C_15
REMARK    7  A    between atoms: C_15  and  C_16
REMARK    8  A    between atoms: C_16  and  C_18
REMARK                            x       y       z     vdW  Elec       q    Type
REMARK                         _______ _______ _______ _____ _____    ______ ____
ROOT
ATOM      1  C   UNL     1       4.884   3.388  18.440  0.00  0.00    +0.000 C 
ATOM      2  O   UNL     1       5.283   3.093  19.559  0.00  0.00    +0.000 OA
ENDROOT
BRANCH   1   9
ATOM      3  C   UNL     1       6.852   4.427  17.134  0.00  0.00    +0.000 C 
ATOM      4  C   UNL     1       7.593   5.584  17.848  0.00  0.00    +0.000 C 
ATOM      5  C   UNL     1       7.174   6.951  17.278  0.00  0.00    +0.000 C 
ATOM      6  C   UNL     1       5.715   7.080  17.727  0.00  0.00    +0.000 C 
ATOM      7  C   UNL     1       5.502   5.816  18.576  0.00  0.00    +0.000 C 
ATOM      8  C   UNL     1       6.886   5.619  19.201  0.00  0.00    +0.000 C 
ATOM      9  C   UNL     1       5.385   4.584  17.636  0.00  0.00    +0.000 C 
BRANCH   3  10
ATOM     10  C   UNL     1       7.007   4.485  15.632  0.00  0.00    +0.000 C 
ATOM     11  O   UNL     1       7.770   5.238  15.037  0.00  0.00    +0.000 OA
BRANCH  10  13
ATOM     12  C   UNL     1       5.738   3.964  13.725  0.00  0.00    +0.000 C 
ATOM     13  O   UNL     1       6.178   3.583  15.031  0.00  0.00    +0.000 OA
ENDBRANCH  10  13
ENDBRANCH   3  10
ENDBRANCH   1   9
BRANCH   1  14
ATOM     14  O   UNL     1       3.946   2.673  17.760  0.00  0.00    +0.000 OA
BRANCH  14  15
ATOM     15  C   UNL     1       2.947   2.088  18.609  0.00  0.00    +0.000 C 
BRANCH  15  16
ATOM     16  C   UNL     1       1.707   2.983  18.612  0.00  0.00    +0.000 C 
ATOM     17  O   UNL     1       0.592   2.585  18.281  0.00  0.00    +0.000 OA
BRANCH  16  18
ATOM     18  C   UNL     1       1.858   4.417  18.970  0.00  0.00    +0.000 A 
ATOM     19  C   UNL     1       1.924   5.346  17.923  0.00  0.00    +0.000 A 
ATOM     20  C   UNL     1       2.084   6.703  18.196  0.00  0.00    +0.000 A 
ATOM     21  C   UNL     1       2.167   7.138  19.516  0.00  0.00    +0.000 A 
ATOM     22  C   UNL     1       2.084   6.219  20.563  0.00  0.00    +0.000 A 
ATOM     23  C   UNL     1       1.929   4.856  20.295  0.00  0.00    +0.000 A 
ENDBRANCH  16  18
ENDBRANCH  15  16
ENDBRANCH  14  15
ENDBRANCH   1  14
TORSDOF 7
ENDMDL
MODEL 8
REMARK VINA RESULT:      -7.3      1.130      1.407
REMARK  Name = 
REMARK  8 active torsions:
REMARK  status: ('A' for Active; 'I' for Inactive)
REMARK    1  A    between atoms: C_1  and  O_2
REMARK    2  A    between atoms: O_2  and  C_3
REMARK    3  A    between atoms: C_3  and  C_5
REMARK    4  A    between atoms: C_11  and  C_12
REMARK    5  A    between atoms: C_12  and  O_14
REMARK    6  A    between atoms: O_14  and  C_15
REMARK    7  A    between atoms: C_15  and  C_16
REMARK    8  A    between atoms: C_16  and  C_18
REMARK                            x       y       z     vdW  Elec       q    Type
REMARK                         _______ _______ _______ _____ _____    ______ ____
ROOT
ATOM      1  C   UNL     1       4.706   3.758  18.585  0.00  0.00    +0.000 C 
ATOM      2  O   UNL     1       5.578   3.813  19.441  0.00  0.00    +0.000 OA
ENDROOT
BRANCH   1   9
ATOM      3  C   UNL     1       3.017   5.070  20.029  0.00  0.00    +0.000 C 
ATOM      4  C   UNL     1       2.176   4.221  21.013  0.00  0.00    +0.000 C 
ATOM      5  C   UNL     1       0.749   3.998  20.478  0.00  0.00    +0.000 C 
ATOM      6  C   UNL     1       0.974   3.089  19.264  0.00  0.00    +0.000 C 
ATOM      7  C   UNL     1       2.489   2.828  19.305  0.00  0.00    +0.000 C 
ATOM      8  C   UNL     1       2.769   2.829  20.810  0.00  0.00    +0.000 C 
ATOM      9  C   UNL     1       3.239   4.103  18.828  0.00  0.00    +0.000 C 
BRANCH   3  10
ATOM     10  C   UNL     1       2.339   6.371  19.666  0.00  0.00    +0.000 C 
ATOM     11  O   UNL     1       2.269   6.829  18.531  0.00  0.00    +0.000 OA
BRANCH  10  13
ATOM     12  C   UNL     1       1.387   8.314  20.581  0.00  0.00    +0.000 C 
ATOM     13  O   UNL     1       1.818   6.965  20.779  0.00  0.00    +0.000 OA
ENDBRANCH  10  13
ENDBRANCH   3  10
ENDBRANCH   1   9
BRANCH   1  14
ATOM     14  O   UNL     1       4.937   3.394  17.294  0.00  0.00    +0.000 OA
BRANCH  14  15
ATOM     15  C   UNL     1       5.062   4.509  16.399  0.00  0.00    +0.000 C 
BRANCH  15  16
ATOM     16  C   UNL     1       6.501   4.579  15.886  0.00  0.00    +0.000 C 
ATOM     17  O   UNL     1       7.470   4.735  16.627  0.00  0.00    +0.000 OA
BRANCH  16  18
ATOM     18  C   UNL     1       6.746   4.517  14.422  0.00  0.00    +0.000 A 
ATOM     19  C   UNL     1       6.041   3.557  13.685  0.00  0.00    +0.000 A 
ATOM     20  C   UNL     1       6.243   3.437  12.312  0.00  0.00    +0.000 A 
ATOM     21  C   UNL     1       7.140   4.285  11.667  0.00  0.00    +0.000 A 
ATOM     22  C   UNL     1       7.832   5.256  12.394  0.00  0.00    +0.000 A 
ATOM     23  C   UNL     1       7.638   5.375  13.774  0.00  0.00    +0.000 A 
ENDBRANCH  16  18
ENDBRANCH  15  16
ENDBRANCH  14  15
ENDBRANCH   1  14
TORSDOF 7
ENDMDL
MODEL 9
REMARK VINA RESULT:      -7.2      2.042      6.123
REMARK  Name = 
REMARK  8 active torsions:
REMARK  status: ('A' for Active; 'I' for Inactive)
REMARK    1  A    between atoms: C_1  and  O_2
REMARK    2  A    between atoms: O_2  and  C_3
REMARK    3  A    between atoms: C_3  and  C_5
REMARK    4  A    between atoms: C_11  and  C_12
REMARK    5  A    between atoms: C_12  and  O_14
REMARK    6  A    between atoms: O_14  and  C_15
REMARK    7  A    between atoms: C_15  and  C_16
REMARK    8  A    between atoms: C_16  and  C_18
REMARK                            x       y       z     vdW  Elec       q    Type
REMARK                         _______ _______ _______ _____ _____    ______ ____
ROOT
ATOM      1  C   UNL     1       4.880   3.452  18.405  0.00  0.00    +0.000 C 
ATOM      2  O   UNL     1       5.174   3.216  19.569  0.00  0.00    +0.000 OA
ENDROOT
BRANCH   1   9
ATOM      3  C   UNL     1       6.874   4.433  17.093  0.00  0.00    +0.000 C 
ATOM      4  C   UNL     1       7.657   5.560  17.809  0.00  0.00    +0.000 C 
ATOM      5  C   UNL     1       7.281   6.943  17.249  0.00  0.00    +0.000 C 
ATOM      6  C   UNL     1       5.829   7.119  17.707  0.00  0.00    +0.000 C 
ATOM      7  C   UNL     1       5.579   5.857  18.550  0.00  0.00    +0.000 C 
ATOM      8  C   UNL     1       6.959   5.610  19.166  0.00  0.00    +0.000 C 
ATOM      9  C   UNL     1       5.415   4.635  17.605  0.00  0.00    +0.000 C 
BRANCH   3  10
ATOM     10  C   UNL     1       7.022   4.494  15.590  0.00  0.00    +0.000 C 
ATOM     11  O   UNL     1       7.778   5.252  14.994  0.00  0.00    +0.000 OA
BRANCH  10  13
ATOM     12  C   UNL     1       5.708   3.992  13.709  0.00  0.00    +0.000 C 
ATOM     13  O   UNL     1       6.195   3.589  14.992  0.00  0.00    +0.000 OA
ENDBRANCH  10  13
ENDBRANCH   3  10
ENDBRANCH   1   9
BRANCH   1  14
ATOM     14  O   UNL     1       4.041   2.674  17.666  0.00  0.00    +0.000 OA
BRANCH  14  15
ATOM     15  C   UNL     1       3.042   3.423  16.959  0.00  0.00    +0.000 C 
BRANCH  15  16
ATOM     16  C   UNL     1       1.918   3.794  17.928  0.00  0.00    +0.000 C 
ATOM     17  O   UNL     1       0.938   3.078  18.123  0.00  0.00    +0.000 OA
BRANCH  16  18
ATOM     18  C   UNL     1       1.973   5.105  18.624  0.00  0.00    +0.000 A 
ATOM     19  C   UNL     1       1.811   5.109  20.016  0.00  0.00    +0.000 A 
ATOM     20  C   UNL     1       1.833   6.310  20.722  0.00  0.00    +0.000 A 
ATOM     21  C   UNL     1       2.030   7.510  20.043  0.00  0.00    +0.000 A 
ATOM     22  C   UNL     1       2.211   7.509  18.658  0.00  0.00    +0.000 A 
ATOM     23  C   UNL     1       2.183   6.307  17.944  0.00  0.00    +0.000 A 
ENDBRANCH  16  18
ENDBRANCH  15  16
ENDBRANCH  14  15
ENDBRANCH   1  14
TORSDOF 7
ENDMDL
