MODEL 1
REMARK VINA RESULT:      -7.1      0.000      0.000
REMARK  Name = 
REMARK  4 active torsions:
REMARK  status: ('A' for Active; 'I' for Inactive)
REMARK    1  A    between atoms: C_1  and  O_2
REMARK    2  A    between atoms: O_2  and  C_3
REMARK    3  A    between atoms: C_11  and  C_13
REMARK    4  A    between atoms: C_17  and  C_18
REMARK                            x       y       z     vdW  Elec       q    Type
REMARK                         _______ _______ _______ _____ _____    ______ ____
ROOT
ATOM      1  C   UNL     1       3.000   2.887  18.621  0.00  0.00    +0.000 C 
ATOM      2  C   UNL     1       3.322   3.740  19.852  0.00  0.00    +0.000 C 
ATOM      3  C   UNL     1       3.410   5.219  19.490  0.00  0.00    +0.000 C 
ATOM      4  C   UNL     1       4.406   5.474  18.361  0.00  0.00    +0.000 C 
ATOM      5  O   UNL     1       4.304   6.868  18.022  0.00  0.00    +0.000 OA
ATOM      6  C   UNL     1       5.261   7.218  17.023  0.00  0.00    +0.000 C 
ATOM      7  C   UNL     1       5.073   6.400  15.747  0.00  0.00    +0.000 C 
ATOM      8  N   UNL     1       5.097   4.952  16.025  0.00  0.00    +0.000 N 
ATOM      9  C   UNL     1       5.905   4.031  15.334  0.00  0.00    +0.000 C 
ATOM     10  O   UNL     1       6.041   2.876  15.743  0.00  0.00    +0.000 OA
ATOM     11  C   UNL     1       4.149   4.578  17.116  0.00  0.00    +0.000 C 
ATOM     12  C   UNL     1       4.075   3.105  17.547  0.00  0.00    +0.000 C 
ENDROOT
BRANCH   9  13
ATOM     13  C   UNL     1       6.632   4.455  14.134  0.00  0.00    +0.000 A 
ATOM     14  O   UNL     1       7.632   5.388  14.217  0.00  0.00    +0.000 OA
ATOM     15  C   UNL     1       8.162   5.543  12.981  0.00  0.00    +0.000 A 
ATOM     16  C   UNL     1       7.472   4.784  12.070  0.00  0.00    +0.000 A 
ATOM     17  C   UNL     1       6.445   4.116  12.795  0.00  0.00    +0.000 A 
ATOM     18  C   UNL     1       5.406   3.221  12.228  0.00  0.00    +0.000 C 
ENDBRANCH   9  13
BRANCH   1  20
ATOM     19  C   UNL     1       0.626   2.715  18.912  0.00  0.00    +0.000 C 
ATOM     20  O   UNL     1       1.698   3.279  18.172  0.00  0.00    +0.000 OA
ENDBRANCH   1  20
TORSDOF 2
ENDMDL
MODEL 2
REMARK VINA RESULT:      -6.9      1.828      6.239
REMARK  Name = 
REMARK  4 active torsions:
REMARK  status: ('A' for Active; 'I' for Inactive)
REMARK    1  A    between atoms: C_1  and  O_2
REMARK    2  A    between atoms: O_2  and  C_3
REMARK    3  A    between atoms: C_11  and  C_13
REMARK    4  A    between atoms: C_17  and  C_18
REMARK                            x       y       z     vdW  Elec       q    Type
REMARK                         _______ _______ _______ _____ _____    ______ ____
ROOT
ATOM      1  C   UNL     1       6.654   4.245  15.556  0.00  0.00    +0.000 C 
ATOM      2  C   UNL     1       6.069   5.323  14.636  0.00  0.00    +0.000 C 
ATOM      3  C   UNL     1       5.499   6.485  15.443  0.00  0.00    +0.000 C 
ATOM      4  C   UNL     1       4.473   6.018  16.474  0.00  0.00    +0.000 C 
ATOM      5  O   UNL     1       4.110   7.171  17.253  0.00  0.00    +0.000 OA
ATOM      6  C   UNL     1       3.090   6.845  18.196  0.00  0.00    +0.000 C 
ATOM      7  C   UNL     1       3.537   5.742  19.154  0.00  0.00    +0.000 C 
ATOM      8  N   UNL     1       3.991   4.544  18.424  0.00  0.00    +0.000 N 
ATOM      9  C   UNL     1       3.532   3.240  18.686  0.00  0.00    +0.000 C 
ATOM     10  O   UNL     1       3.784   2.313  17.914  0.00  0.00    +0.000 OA
ATOM     11  C   UNL     1       5.010   4.878  17.384  0.00  0.00    +0.000 C 
ATOM     12  C   UNL     1       5.566   3.740  16.514  0.00  0.00    +0.000 C 
ENDROOT
BRANCH   9  13
ATOM     13  C   UNL     1       2.705   2.983  19.868  0.00  0.00    +0.000 A 
ATOM     14  O   UNL     1       3.279   2.844  21.104  0.00  0.00    +0.000 OA
ATOM     15  C   UNL     1       2.285   2.674  22.009  0.00  0.00    +0.000 A 
ATOM     16  C   UNL     1       1.070   2.619  21.375  0.00  0.00    +0.000 A 
ATOM     17  C   UNL     1       1.333   2.764  19.984  0.00  0.00    +0.000 A 
ATOM     18  C   UNL     1       0.333   2.714  18.888  0.00  0.00    +0.000 C 
ENDBRANCH   9  13
BRANCH   1  20
ATOM     19  C   UNL     1       7.856   4.471  17.618  0.00  0.00    +0.000 C 
ATOM     20  O   UNL     1       7.753   4.843  16.251  0.00  0.00    +0.000 OA
ENDBRANCH   1  20
TORSDOF 2
ENDMDL
MODEL 3
REMARK VINA RESULT:      -6.2      2.551      6.430
REMARK  Name = 
REMARK  4 active torsions:
REMARK  status: ('A' for Active; 'I' for Inactive)
REMARK    1  A    between atoms: C_1  and  O_2
REMARK    2  A    between atoms: O_2  and  C_3
REMARK    3  A    between atoms: C_11  and  C_13
REMARK    4  A    between atoms: C_17  and  C_18
REMARK                            x       y       z     vdW  Elec       q    Type
REMARK                         _______ _______ _______ _____ _____    ______ ____
ROOT
ATOM      1  C   UNL     1       7.356   5.129  17.131  0.00  0.00    +0.000 C 
ATOM      2  C   UNL     1       6.829   5.860  15.892  0.00  0.00    +0.000 C 
ATOM      3  C   UNL     1       5.721   6.841  16.261  0.00  0.00    +0.000 C 
ATOM      4  C   UNL     1       4.589   6.164  17.031  0.00  0.00    +0.000 C 
ATOM      5  O   UNL     1       3.680   7.204  17.434  0.00  0.00    +0.000 OA
ATOM      6  C   UNL     1       2.542   6.653  18.096  0.00  0.00    +0.000 C 
ATOM      7  C   UNL     1       2.940   5.856  19.338  0.00  0.00    +0.000 C 
ATOM      8  N   UNL     1       3.928   4.810  19.015  0.00  0.00    +0.000 N 
ATOM      9  C   UNL     1       3.796   3.460  19.387  0.00  0.00    +0.000 C 
ATOM     10  O   UNL     1       4.538   2.597  18.915  0.00  0.00    +0.000 OA
ATOM     11  C   UNL     1       5.094   5.359  18.261  0.00  0.00    +0.000 C 
ATOM     12  C   UNL     1       6.203   4.389  17.823  0.00  0.00    +0.000 C 
ENDROOT
BRANCH   9  13
ATOM     13  C   UNL     1       2.734   3.060  20.314  0.00  0.00    +0.000 A 
ATOM     14  O   UNL     1       2.998   2.894  21.648  0.00  0.00    +0.000 OA
ATOM     15  C   UNL     1       1.835   2.585  22.269  0.00  0.00    +0.000 A 
ATOM     16  C   UNL     1       0.823   2.466  21.350  0.00  0.00    +0.000 A 
ATOM     17  C   UNL     1       1.404   2.719  20.075  0.00  0.00    +0.000 A 
ATOM     18  C   UNL     1       0.712   2.653  18.764  0.00  0.00    +0.000 C 
ENDBRANCH   9  13
BRANCH   1  20
ATOM     19  C   UNL     1       8.122   5.713  19.327  0.00  0.00    +0.000 C 
ATOM     20  O   UNL     1       7.949   6.120  17.977  0.00  0.00    +0.000 OA
ENDBRANCH   1  20
TORSDOF 2
ENDMDL
MODEL 4
REMARK VINA RESULT:      -6.1      1.654      2.589
REMARK  Name = 
REMARK  4 active torsions:
REMARK  status: ('A' for Active; 'I' for Inactive)
REMARK    1  A    between atoms: C_1  and  O_2
REMARK    2  A    between atoms: O_2  and  C_3
REMARK    3  A    between atoms: C_11  and  C_13
REMARK    4  A    between atoms: C_17  and  C_18
REMARK                            x       y       z     vdW  Elec       q    Type
REMARK                         _______ _______ _______ _____ _____    ______ ____
ROOT
ATOM      1  C   UNL     1       1.955   2.945  20.506  0.00  0.00    +0.000 C 
ATOM      2  C   UNL     1       1.883   4.085  21.527  0.00  0.00    +0.000 C 
ATOM      3  C   UNL     1       1.703   5.433  20.836  0.00  0.00    +0.000 C 
ATOM      4  C   UNL     1       2.787   5.691  19.791  0.00  0.00    +0.000 C 
ATOM      5  O   UNL     1       2.439   6.916  19.122  0.00  0.00    +0.000 OA
ATOM      6  C   UNL     1       3.443   7.280  18.176  0.00  0.00    +0.000 C 
ATOM      7  C   UNL     1       3.643   6.197  17.118  0.00  0.00    +0.000 C 
ATOM      8  N   UNL     1       3.938   4.889  17.731  0.00  0.00    +0.000 N 
ATOM      9  C   UNL     1       5.026   4.076  17.368  0.00  0.00    +0.000 C 
ATOM     10  O   UNL     1       5.344   3.100  18.051  0.00  0.00    +0.000 OA
ATOM     11  C   UNL     1       2.933   4.524  18.774  0.00  0.00    +0.000 C 
ATOM     12  C   UNL     1       3.114   3.199  19.531  0.00  0.00    +0.000 C 
ENDROOT
BRANCH   9  13
ATOM     13  C   UNL     1       5.825   4.412  16.186  0.00  0.00    +0.000 A 
ATOM     14  O   UNL     1       5.705   3.682  15.032  0.00  0.00    +0.000 OA
ATOM     15  C   UNL     1       6.507   4.245  14.098  0.00  0.00    +0.000 A 
ATOM     16  C   UNL     1       7.214   5.286  14.643  0.00  0.00    +0.000 A 
ATOM     17  C   UNL     1       6.821   5.370  16.009  0.00  0.00    +0.000 A 
ATOM     18  C   UNL     1       7.357   6.312  17.023  0.00  0.00    +0.000 C 
ENDBRANCH   9  13
BRANCH   1  20
ATOM     19  C   UNL     1       0.673   2.118  18.656  0.00  0.00    +0.000 C 
ATOM     20  O   UNL     1       0.688   2.901  19.841  0.00  0.00    +0.000 OA
ENDBRANCH   1  20
TORSDOF 2
ENDMDL
MODEL 5
REMARK VINA RESULT:      -6.0      2.871      3.655
REMARK  Name = 
REMARK  4 active torsions:
REMARK  status: ('A' for Active; 'I' for Inactive)
REMARK    1  A    between atoms: C_1  and  O_2
REMARK    2  A    between atoms: O_2  and  C_3
REMARK    3  A    between atoms: C_11  and  C_13
REMARK    4  A    between atoms: C_17  and  C_18
REMARK                            x       y       z     vdW  Elec       q    Type
REMARK                         _______ _______ _______ _____ _____    ______ ____
ROOT
ATOM      1  C   UNL     1       2.410   1.956  20.028  0.00  0.00    +0.000 C 
ATOM      2  C   UNL     1       1.590   2.537  21.185  0.00  0.00    +0.000 C 
ATOM      3  C   UNL     1       1.083   3.936  20.853  0.00  0.00    +0.000 C 
ATOM      4  C   UNL     1       2.218   4.876  20.450  0.00  0.00    +0.000 C 
ATOM      5  O   UNL     1       1.608   6.112  20.037  0.00  0.00    +0.000 OA
ATOM      6  C   UNL     1       2.602   7.084  19.714  0.00  0.00    +0.000 C 
ATOM      7  C   UNL     1       3.520   6.604  18.591  0.00  0.00    +0.000 C 
ATOM      8  N   UNL     1       4.133   5.302  18.913  0.00  0.00    +0.000 N 
ATOM      9  C   UNL     1       5.512   5.039  18.832  0.00  0.00    +0.000 C 
ATOM     10  O   UNL     1       5.989   4.008  19.310  0.00  0.00    +0.000 OA
ATOM     11  C   UNL     1       3.111   4.291  19.319  0.00  0.00    +0.000 C 
ATOM     12  C   UNL     1       3.591   2.886  19.716  0.00  0.00    +0.000 C 
ENDROOT
BRANCH   9  13
ATOM     13  C   UNL     1       6.406   6.020  18.212  0.00  0.00    +0.000 A 
ATOM     14  O   UNL     1       7.361   6.663  18.956  0.00  0.00    +0.000 OA
ATOM     15  C   UNL     1       8.072   7.460  18.123  0.00  0.00    +0.000 A 
ATOM     16  C   UNL     1       7.548   7.412  16.857  0.00  0.00    +0.000 A 
ATOM     17  C   UNL     1       6.436   6.524  16.913  0.00  0.00    +0.000 A 
ATOM     18  C   UNL     1       5.516   6.192  15.796  0.00  0.00    +0.000 C 
ENDBRANCH   9  13
BRANCH   1  20
ATOM     19  C   UNL     1       2.145   1.931  17.645  0.00  0.00    +0.000 C 
ATOM     20  O   UNL     1       1.520   1.819  18.915  0.00  0.00    +0.000 OA
ENDBRANCH   1  20
TORSDOF 2
ENDMDL
MODEL 6
REMARK VINA RESULT:      -5.7      1.788      6.286
REMARK  Name = 
REMARK  4 active torsions:
REMARK  status: ('A' for Active; 'I' for Inactive)
REMARK    1  A    between atoms: C_1  and  O_2
REMARK    2  A    between atoms: O_2  and  C_3
REMARK    3  A    between atoms: C_11  and  C_13
REMARK    4  A    between atoms: C_17  and  C_18
REMARK                            x       y       z     vdW  Elec       q    Type
REMARK                         _______ _______ _______ _____ _____    ______ ____
ROOT
ATOM      1  C   UNL     1       6.689   4.215  15.438  0.00  0.00    +0.000 C 
ATOM      2  C   UNL     1       6.190   5.343  14.529  0.00  0.00    +0.000 C 
ATOM      3  C   UNL     1       5.671   6.521  15.347  0.00  0.00    +0.000 C 
ATOM      4  C   UNL     1       4.596   6.096  16.346  0.00  0.00    +0.000 C 
ATOM      5  O   UNL     1       4.284   7.254  17.140  0.00  0.00    +0.000 OA
ATOM      6  C   UNL     1       3.226   6.971  18.055  0.00  0.00    +0.000 C 
ATOM      7  C   UNL     1       3.586   5.825  18.999  0.00  0.00    +0.000 C 
ATOM      8  N   UNL     1       3.985   4.617  18.255  0.00  0.00    +0.000 N 
ATOM      9  C   UNL     1       3.444   3.338  18.481  0.00  0.00    +0.000 C 
ATOM     10  O   UNL     1       3.658   2.412  17.696  0.00  0.00    +0.000 OA
ATOM     11  C   UNL     1       5.045   4.909  17.244  0.00  0.00    +0.000 C 
ATOM     12  C   UNL     1       5.552   3.757  16.363  0.00  0.00    +0.000 C 
ENDROOT
BRANCH   9  13
ATOM     13  C   UNL     1       2.577   3.107  19.639  0.00  0.00    +0.000 A 
ATOM     14  O   UNL     1       1.296   3.592  19.660  0.00  0.00    +0.000 OA
ATOM     15  C   UNL     1       0.714   3.185  20.813  0.00  0.00    +0.000 A 
ATOM     16  C   UNL     1       1.619   2.506  21.588  0.00  0.00    +0.000 A 
ATOM     17  C   UNL     1       2.844   2.495  20.863  0.00  0.00    +0.000 A 
ATOM     18  C   UNL     1       4.134   1.922  21.321  0.00  0.00    +0.000 C 
ENDBRANCH   9  13
BRANCH   1  20
ATOM     19  C   UNL     1       7.804   4.410  17.552  0.00  0.00    +0.000 C 
ATOM     20  O   UNL     1       7.806   4.733  16.169  0.00  0.00    +0.000 OA
ENDBRANCH   1  20
TORSDOF 2
ENDMDL
MODEL 7
REMARK VINA RESULT:      -5.6      1.940      6.446
REMARK  Name = 
REMARK  4 active torsions:
REMARK  status: ('A' for Active; 'I' for Inactive)
REMARK    1  A    between atoms: C_1  and  O_2
REMARK    2  A    between atoms: O_2  and  C_3
REMARK    3  A    between atoms: C_11  and  C_13
REMARK    4  A    between atoms: C_17  and  C_18
REMARK                            x       y       z     vdW  Elec       q    Type
REMARK                         _______ _______ _______ _____ _____    ______ ____
ROOT
ATOM      1  C   UNL     1       5.336   4.658  14.435  0.00  0.00    +0.000 C 
ATOM      2  C   UNL     1       6.275   5.859  14.592  0.00  0.00    +0.000 C 
ATOM      3  C   UNL     1       7.131   5.728  15.848  0.00  0.00    +0.000 C 
ATOM      4  C   UNL     1       6.283   5.517  17.100  0.00  0.00    +0.000 C 
ATOM      5  O   UNL     1       7.196   5.277  18.186  0.00  0.00    +0.000 OA
ATOM      6  C   UNL     1       6.492   5.146  19.420  0.00  0.00    +0.000 C 
ATOM      7  C   UNL     1       5.485   3.998  19.378  0.00  0.00    +0.000 C 
ATOM      8  N   UNL     1       4.552   4.139  18.245  0.00  0.00    +0.000 N 
ATOM      9  C   UNL     1       3.152   4.071  18.364  0.00  0.00    +0.000 C 
ATOM     10  O   UNL     1       2.420   4.401  17.429  0.00  0.00    +0.000 OA
ATOM     11  C   UNL     1       5.272   4.345  16.953  0.00  0.00    +0.000 C 
ATOM     12  C   UNL     1       4.440   4.538  15.676  0.00  0.00    +0.000 C 
ENDROOT
BRANCH   9  13
ATOM     13  C   UNL     1       2.548   3.643  19.628  0.00  0.00    +0.000 A 
ATOM     14  O   UNL     1       2.445   2.312  19.938  0.00  0.00    +0.000 OA
ATOM     15  C   UNL     1       1.907   2.213  21.177  0.00  0.00    +0.000 A 
ATOM     16  C   UNL     1       1.580   3.456  21.654  0.00  0.00    +0.000 A 
ATOM     17  C   UNL     1       1.941   4.387  20.639  0.00  0.00    +0.000 A 
ATOM     18  C   UNL     1       1.729   5.856  20.675  0.00  0.00    +0.000 C 
ENDBRANCH   9  13
BRANCH   1  20
ATOM     19  C   UNL     1       6.454   3.200  12.893  0.00  0.00    +0.000 C 
ATOM     20  O   UNL     1       6.164   3.505  14.250  0.00  0.00    +0.000 OA
ENDBRANCH   1  20
TORSDOF 2
ENDMDL
MODEL 8
REMARK VINA RESULT:      -5.5      3.327      6.896
REMARK  Name = 
REMARK  4 active torsions:
REMARK  status: ('A' for Active; 'I' for Inactive)
REMARK    1  A    between atoms: C_1  and  O_2
REMARK    2  A    between atoms: O_2  and  C_3
REMARK    3  A    between atoms: C_11  and  C_13
REMARK    4  A    between atoms: C_17  and  C_18
REMARK                            x       y       z     vdW  Elec       q    Type
REMARK                         _______ _______ _______ _____ _____    ______ ____
ROOT
ATOM      1  C   UNL     1       5.768   5.660  16.473  0.00  0.00    +0.000 C 
ATOM      2  C   UNL     1       6.481   4.929  17.616  0.00  0.00    +0.000 C 
ATOM      3  C   UNL     1       5.480   4.244  18.541  0.00  0.00    +0.000 C 
ATOM      4  C   UNL     1       4.432   5.219  19.073  0.00  0.00    +0.000 C 
ATOM      5  O   UNL     1       3.478   4.440  19.817  0.00  0.00    +0.000 OA
ATOM      6  C   UNL     1       2.497   5.281  20.422  0.00  0.00    +0.000 C 
ATOM      7  C   UNL     1       1.737   6.103  19.382  0.00  0.00    +0.000 C 
ATOM      8  N   UNL     1       2.657   6.881  18.531  0.00  0.00    +0.000 N 
ATOM      9  C   UNL     1       2.528   8.261  18.288  0.00  0.00    +0.000 C 
ATOM     10  O   UNL     1       3.434   8.896  17.746  0.00  0.00    +0.000 OA
ATOM     11  C   UNL     1       3.731   6.026  17.944  0.00  0.00    +0.000 C 
ATOM     12  C   UNL     1       4.790   6.693  17.053  0.00  0.00    +0.000 C 
ENDROOT
BRANCH   9  13
ATOM     13  C   UNL     1       1.320   8.968  18.723  0.00  0.00    +0.000 A 
ATOM     14  O   UNL     1       0.469   9.524  17.805  0.00  0.00    +0.000 OA
ATOM     15  C   UNL     1      -0.581  10.055  18.477  0.00  0.00    +0.000 A 
ATOM     16  C   UNL     1      -0.392   9.927  19.829  0.00  0.00    +0.000 A 
ATOM     17  C   UNL     1       0.860   9.272  20.003  0.00  0.00    +0.000 A 
ATOM     18  C   UNL     1       1.520   8.961  21.296  0.00  0.00    +0.000 C 
ENDBRANCH   9  13
BRANCH   1  20
ATOM     19  C   UNL     1       5.935   4.000  14.752  0.00  0.00    +0.000 C 
ATOM     20  O   UNL     1       5.102   4.662  15.692  0.00  0.00    +0.000 OA
ENDBRANCH   1  20
TORSDOF 2
ENDMDL
MODEL 9
REMARK VINA RESULT:      -5.5      1.964      6.334
REMARK  Name = 
REMARK  4 active torsions:
REMARK  status: ('A' for Active; 'I' for Inactive)
REMARK    1  A    between atoms: C_1  and  O_2
REMARK    2  A    between atoms: O_2  and  C_3
REMARK    3  A    between atoms: C_11  and  C_13
REMARK    4  A    between atoms: C_17  and  C_18
REMARK                            x       y       z     vdW  Elec       q    Type
REMARK                         _______ _______ _______ _____ _____    ______ ____
ROOT
ATOM      1  C   UNL     1       5.465   4.783  14.474  0.00  0.00    +0.000 C 
ATOM      2  C   UNL     1       6.604   5.773  14.739  0.00  0.00    +0.000 C 
ATOM      3  C   UNL     1       7.406   5.374  15.973  0.00  0.00    +0.000 C 
ATOM      4  C   UNL     1       6.518   5.206  17.204  0.00  0.00    +0.000 C 
ATOM      5  O   UNL     1       7.358   4.704  18.259  0.00  0.00    +0.000 OA
ATOM      6  C   UNL     1       6.626   4.591  19.479  0.00  0.00    +0.000 C 
ATOM      7  C   UNL     1       5.427   3.654  19.334  0.00  0.00    +0.000 C 
ATOM      8  N   UNL     1       4.551   4.066  18.223  0.00  0.00    +0.000 N 
ATOM      9  C   UNL     1       3.160   4.242  18.340  0.00  0.00    +0.000 C 
ATOM     10  O   UNL     1       2.512   4.785  17.443  0.00  0.00    +0.000 OA
ATOM     11  C   UNL     1       5.313   4.256  16.953  0.00  0.00    +0.000 C 
ATOM     12  C   UNL     1       4.546   4.714  15.702  0.00  0.00    +0.000 C 
ENDROOT
BRANCH   9  13
ATOM     13  C   UNL     1       2.472   3.817  19.562  0.00  0.00    +0.000 A 
ATOM     14  O   UNL     1       2.897   4.252  20.790  0.00  0.00    +0.000 OA
ATOM     15  C   UNL     1       2.051   3.756  21.724  0.00  0.00    +0.000 A 
ATOM     16  C   UNL     1       1.123   2.935  21.137  0.00  0.00    +0.000 A 
ATOM     17  C   UNL     1       1.417   2.924  19.744  0.00  0.00    +0.000 A 
ATOM     18  C   UNL     1       0.716   2.133  18.701  0.00  0.00    +0.000 C 
ENDBRANCH   9  13
BRANCH   1  20
ATOM     19  C   UNL     1       6.252   3.263  12.794  0.00  0.00    +0.000 C 
ATOM     20  O   UNL     1       6.072   3.520  14.179  0.00  0.00    +0.000 OA
ENDBRANCH   1  20
TORSDOF 2
ENDMDL
