MODEL 1
REMARK VINA RESULT:      -7.8      0.000      0.000
REMARK  Name = 
REMARK  2 active torsions:
REMARK  status: ('A' for Active; 'I' for Inactive)
REMARK    1  A    between atoms: C_5  and  N_6
REMARK    2  A    between atoms: C_15  and  N_16
REMARK                            x       y       z     vdW  Elec       q    Type
REMARK                         _______ _______ _______ _____ _____    ______ ____
ROOT
ATOM      1  O   UNL     1       7.096   4.814  18.638  0.00  0.00    +0.000 OA
ATOM      2  C   UNL     1       6.189   4.445  17.925  0.00  0.00    +0.000 C 
ATOM      3  C   UNL     1       4.874   3.932  18.363  0.00  0.00    +0.000 A 
ATOM      4  C   UNL     1       4.381   3.811  19.648  0.00  0.00    +0.000 A 
ATOM      5  C   UNL     1       3.072   3.331  19.766  0.00  0.00    +0.000 A 
ATOM      6  C   UNL     1       2.317   2.966  18.623  0.00  0.00    +0.000 A 
ATOM      7  C   UNL     1       2.856   3.101  17.334  0.00  0.00    +0.000 A 
ATOM      8  C   UNL     1       4.140   3.604  17.208  0.00  0.00    +0.000 A 
ATOM      9  C   UNL     1       4.935   3.913  16.036  0.00  0.00    +0.000 A 
ATOM     10  C   UNL     1       4.650   3.815  14.685  0.00  0.00    +0.000 A 
ATOM     11  C   UNL     1       5.619   4.247  13.765  0.00  0.00    +0.000 A 
ATOM     12  C   UNL     1       6.859   4.767  14.211  0.00  0.00    +0.000 A 
ATOM     13  C   UNL     1       7.159   4.861  15.574  0.00  0.00    +0.000 A 
ATOM     14  C   UNL     1       6.179   4.430  16.448  0.00  0.00    +0.000 A 
ENDROOT
BRANCH   5  15
ATOM     15  N   UNL     1       2.458   3.228  21.098  0.00  0.00    +0.000 N 
ATOM     16  O   UNL     1       2.972   2.445  21.908  0.00  0.00    +0.000 OA
ATOM     17  O   UNL     1       1.472   3.939  21.332  0.00  0.00    +0.000 OA
ENDBRANCH   5  15
BRANCH  12  18
ATOM     18  N   UNL     1       7.843   5.230  13.221  0.00  0.00    +0.000 N 
ATOM     19  O   UNL     1       7.697   4.858  12.048  0.00  0.00    +0.000 OA
ATOM     20  O   UNL     1       8.758   5.963  13.618  0.00  0.00    +0.000 OA
ENDBRANCH  12  18
TORSDOF 2
ENDMDL
MODEL 2
REMARK VINA RESULT:      -7.6      0.318      6.801
REMARK  Name = 
REMARK  2 active torsions:
REMARK  status: ('A' for Active; 'I' for Inactive)
REMARK    1  A    between atoms: C_5  and  N_6
REMARK    2  A    between atoms: C_15  and  N_16
REMARK                            x       y       z     vdW  Elec       q    Type
REMARK                         _______ _______ _______ _____ _____    ______ ____
ROOT
ATOM      1  O   UNL     1       6.970   4.787  18.713  0.00  0.00    +0.000 OA
ATOM      2  C   UNL     1       6.057   4.463  17.986  0.00  0.00    +0.000 C 
ATOM      3  C   UNL     1       6.039   4.522  16.510  0.00  0.00    +0.000 A 
ATOM      4  C   UNL     1       7.051   4.904  15.651  0.00  0.00    +0.000 A 
ATOM      5  C   UNL     1       6.768   4.820  14.283  0.00  0.00    +0.000 A 
ATOM      6  C   UNL     1       5.497   4.393  13.821  0.00  0.00    +0.000 A 
ATOM      7  C   UNL     1       4.493   4.017  14.727  0.00  0.00    +0.000 A 
ATOM      8  C   UNL     1       4.778   4.070  16.082  0.00  0.00    +0.000 A 
ATOM      9  C   UNL     1       3.989   3.695  17.239  0.00  0.00    +0.000 A 
ATOM     10  C   UNL     1       2.718   3.157  17.345  0.00  0.00    +0.000 A 
ATOM     11  C   UNL     1       2.230   2.845  18.624  0.00  0.00    +0.000 A 
ATOM     12  C   UNL     1       3.019   3.079  19.778  0.00  0.00    +0.000 A 
ATOM     13  C   UNL     1       4.301   3.630  19.680  0.00  0.00    +0.000 A 
ATOM     14  C   UNL     1       4.748   3.920  18.404  0.00  0.00    +0.000 A 
ENDROOT
BRANCH   5  15
ATOM     15  N   UNL     1       7.814   5.155  13.307  0.00  0.00    +0.000 N 
ATOM     16  O   UNL     1       8.711   5.928  13.668  0.00  0.00    +0.000 OA
ATOM     17  O   UNL     1       7.740   4.635  12.185  0.00  0.00    +0.000 OA
ENDBRANCH   5  15
BRANCH  12  18
ATOM     18  N   UNL     1       2.486   2.721  21.100  0.00  0.00    +0.000 N 
ATOM     19  O   UNL     1       1.282   2.925  21.308  0.00  0.00    +0.000 OA
ATOM     20  O   UNL     1       3.271   2.237  21.926  0.00  0.00    +0.000 OA
ENDBRANCH  12  18
TORSDOF 2
ENDMDL
MODEL 3
REMARK VINA RESULT:      -7.5      0.368      1.040
REMARK  Name = 
REMARK  2 active torsions:
REMARK  status: ('A' for Active; 'I' for Inactive)
REMARK    1  A    between atoms: C_5  and  N_6
REMARK    2  A    between atoms: C_15  and  N_16
REMARK                            x       y       z     vdW  Elec       q    Type
REMARK                         _______ _______ _______ _____ _____    ______ ____
ROOT
ATOM      1  O   UNL     1       7.005   5.561  18.542  0.00  0.00    +0.000 OA
ATOM      2  C   UNL     1       6.213   4.940  17.868  0.00  0.00    +0.000 C 
ATOM      3  C   UNL     1       4.985   4.269  18.342  0.00  0.00    +0.000 A 
ATOM      4  C   UNL     1       4.454   4.246  19.618  0.00  0.00    +0.000 A 
ATOM      5  C   UNL     1       3.243   3.564  19.772  0.00  0.00    +0.000 A 
ATOM      6  C   UNL     1       2.622   2.912  18.677  0.00  0.00    +0.000 A 
ATOM      7  C   UNL     1       3.195   2.956  17.396  0.00  0.00    +0.000 A 
ATOM      8  C   UNL     1       4.379   3.656  17.231  0.00  0.00    +0.000 A 
ATOM      9  C   UNL     1       5.169   3.932  16.047  0.00  0.00    +0.000 A 
ATOM     10  C   UNL     1       4.975   3.594  14.719  0.00  0.00    +0.000 A 
ATOM     11  C   UNL     1       5.902   4.056  13.770  0.00  0.00    +0.000 A 
ATOM     12  C   UNL     1       7.011   4.845  14.166  0.00  0.00    +0.000 A 
ATOM     13  C   UNL     1       7.219   5.183  15.507  0.00  0.00    +0.000 A 
ATOM     14  C   UNL     1       6.283   4.714  16.410  0.00  0.00    +0.000 A 
ENDROOT
BRANCH   5  15
ATOM     15  N   UNL     1       2.587   3.543  21.088  0.00  0.00    +0.000 N 
ATOM     16  O   UNL     1       1.786   4.452  21.345  0.00  0.00    +0.000 OA
ATOM     17  O   UNL     1       2.869   2.613  21.855  0.00  0.00    +0.000 OA
ENDBRANCH   5  15
BRANCH  12  18
ATOM     18  N   UNL     1       7.951   5.331  13.145  0.00  0.00    +0.000 N 
ATOM     19  O   UNL     1       8.900   6.031  13.525  0.00  0.00    +0.000 OA
ATOM     20  O   UNL     1       7.738   5.011  11.968  0.00  0.00    +0.000 OA
ENDBRANCH  12  18
TORSDOF 2
ENDMDL
MODEL 4
REMARK VINA RESULT:      -7.4      3.951      4.473
REMARK  Name = 
REMARK  2 active torsions:
REMARK  status: ('A' for Active; 'I' for Inactive)
REMARK    1  A    between atoms: C_5  and  N_6
REMARK    2  A    between atoms: C_15  and  N_16
REMARK                            x       y       z     vdW  Elec       q    Type
REMARK                         _______ _______ _______ _____ _____    ______ ____
ROOT
ATOM      1  O   UNL     1       3.409   4.601  20.274  0.00  0.00    +0.000 OA
ATOM      2  C   UNL     1       3.352   5.525  19.493  0.00  0.00    +0.000 C 
ATOM      3  C   UNL     1       2.541   6.751  19.632  0.00  0.00    +0.000 A 
ATOM      4  C   UNL     1       1.725   7.131  20.681  0.00  0.00    +0.000 A 
ATOM      5  C   UNL     1       1.105   8.379  20.563  0.00  0.00    +0.000 A 
ATOM      6  C   UNL     1       1.289   9.186  19.412  0.00  0.00    +0.000 A 
ATOM      7  C   UNL     1       2.123   8.763  18.366  0.00  0.00    +0.000 A 
ATOM      8  C   UNL     1       2.764   7.541  18.489  0.00  0.00    +0.000 A 
ATOM      9  C   UNL     1       3.718   6.870  17.627  0.00  0.00    +0.000 A 
ATOM     10  C   UNL     1       4.289   7.250  16.425  0.00  0.00    +0.000 A 
ATOM     11  C   UNL     1       5.238   6.397  15.838  0.00  0.00    +0.000 A 
ATOM     12  C   UNL     1       5.597   5.176  16.461  0.00  0.00    +0.000 A 
ATOM     13  C   UNL     1       5.017   4.780  17.671  0.00  0.00    +0.000 A 
ATOM     14  C   UNL     1       4.092   5.648  18.219  0.00  0.00    +0.000 A 
ENDROOT
BRANCH   5  15
ATOM     15  N   UNL     1       0.268   8.876  21.665  0.00  0.00    +0.000 N 
ATOM     16  O   UNL     1       0.672   9.863  22.294  0.00  0.00    +0.000 OA
ATOM     17  O   UNL     1      -0.796   8.283  21.889  0.00  0.00    +0.000 OA
ENDBRANCH   5  15
BRANCH  12  18
ATOM     18  N   UNL     1       6.610   4.316  15.831  0.00  0.00    +0.000 N 
ATOM     19  O   UNL     1       6.251   3.610  14.878  0.00  0.00    +0.000 OA
ATOM     20  O   UNL     1       7.759   4.349  16.289  0.00  0.00    +0.000 OA
ENDBRANCH  12  18
TORSDOF 2
ENDMDL
MODEL 5
REMARK VINA RESULT:      -7.2      4.847      6.767
REMARK  Name = 
REMARK  2 active torsions:
REMARK  status: ('A' for Active; 'I' for Inactive)
REMARK    1  A    between atoms: C_5  and  N_6
REMARK    2  A    between atoms: C_15  and  N_16
REMARK                            x       y       z     vdW  Elec       q    Type
REMARK                         _______ _______ _______ _____ _____    ______ ____
ROOT
ATOM      1  O   UNL     1       3.879   6.922  17.080  0.00  0.00    +0.000 OA
ATOM      2  C   UNL     1       3.254   6.788  18.109  0.00  0.00    +0.000 C 
ATOM      3  C   UNL     1       2.398   7.800  18.762  0.00  0.00    +0.000 A 
ATOM      4  C   UNL     1       2.089   9.075  18.328  0.00  0.00    +0.000 A 
ATOM      5  C   UNL     1       1.209   9.806  19.133  0.00  0.00    +0.000 A 
ATOM      6  C   UNL     1       0.695   9.266  20.339  0.00  0.00    +0.000 A 
ATOM      7  C   UNL     1       1.037   7.967  20.747  0.00  0.00    +0.000 A 
ATOM      8  C   UNL     1       1.884   7.227  19.939  0.00  0.00    +0.000 A 
ATOM      9  C   UNL     1       2.364   5.863  20.052  0.00  0.00    +0.000 A 
ATOM     10  C   UNL     1       2.111   4.880  20.993  0.00  0.00    +0.000 A 
ATOM     11  C   UNL     1       2.689   3.614  20.807  0.00  0.00    +0.000 A 
ATOM     12  C   UNL     1       3.514   3.352  19.685  0.00  0.00    +0.000 A 
ATOM     13  C   UNL     1       3.782   4.343  18.734  0.00  0.00    +0.000 A 
ATOM     14  C   UNL     1       3.191   5.574  18.950  0.00  0.00    +0.000 A 
ENDROOT
BRANCH   5  15
ATOM     15  N   UNL     1       0.787  11.149  18.708  0.00  0.00    +0.000 N 
ATOM     16  O   UNL     1      -0.428  11.375  18.639  0.00  0.00    +0.000 OA
ATOM     17  O   UNL     1       1.674  11.975  18.455  0.00  0.00    +0.000 OA
ENDBRANCH   5  15
BRANCH  12  18
ATOM     18  N   UNL     1       4.086   2.009  19.508  0.00  0.00    +0.000 N 
ATOM     19  O   UNL     1       3.605   1.293  18.619  0.00  0.00    +0.000 OA
ATOM     20  O   UNL     1       5.012   1.675  20.258  0.00  0.00    +0.000 OA
ENDBRANCH  12  18
TORSDOF 2
ENDMDL
MODEL 6
REMARK VINA RESULT:      -7.2      1.289      1.546
REMARK  Name = 
REMARK  2 active torsions:
REMARK  status: ('A' for Active; 'I' for Inactive)
REMARK    1  A    between atoms: C_5  and  N_6
REMARK    2  A    between atoms: C_15  and  N_16
REMARK                            x       y       z     vdW  Elec       q    Type
REMARK                         _______ _______ _______ _____ _____    ______ ____
ROOT
ATOM      1  O   UNL     1       6.065   7.043  17.789  0.00  0.00    +0.000 OA
ATOM      2  C   UNL     1       5.538   6.061  17.315  0.00  0.00    +0.000 C 
ATOM      3  C   UNL     1       4.404   5.304  17.886  0.00  0.00    +0.000 A 
ATOM      4  C   UNL     1       3.679   5.572  19.031  0.00  0.00    +0.000 A 
ATOM      5  C   UNL     1       2.619   4.703  19.310  0.00  0.00    +0.000 A 
ATOM      6  C   UNL     1       2.335   3.597  18.471  0.00  0.00    +0.000 A 
ATOM      7  C   UNL     1       3.098   3.357  17.317  0.00  0.00    +0.000 A 
ATOM      8  C   UNL     1       4.131   4.230  17.019  0.00  0.00    +0.000 A 
ATOM      9  C   UNL     1       5.040   4.286  15.891  0.00  0.00    +0.000 A 
ATOM     10  C   UNL     1       5.146   3.494  14.761  0.00  0.00    +0.000 A 
ATOM     11  C   UNL     1       6.111   3.830  13.798  0.00  0.00    +0.000 A 
ATOM     12  C   UNL     1       6.957   4.952  13.982  0.00  0.00    +0.000 A 
ATOM     13  C   UNL     1       6.863   5.753  15.125  0.00  0.00    +0.000 A 
ATOM     14  C   UNL     1       5.898   5.392  16.048  0.00  0.00    +0.000 A 
ENDROOT
BRANCH   5  15
ATOM     15  N   UNL     1       1.766   4.957  20.480  0.00  0.00    +0.000 N 
ATOM     16  O   UNL     1       1.275   3.977  21.056  0.00  0.00    +0.000 OA
ATOM     17  O   UNL     1       1.600   6.135  20.825  0.00  0.00    +0.000 OA
ENDBRANCH   5  15
BRANCH  12  18
ATOM     18  N   UNL     1       7.942   5.289  12.944  0.00  0.00    +0.000 N 
ATOM     19  O   UNL     1       8.918   5.975  13.280  0.00  0.00    +0.000 OA
ATOM     20  O   UNL     1       7.738   4.869  11.798  0.00  0.00    +0.000 OA
ENDBRANCH  12  18
TORSDOF 2
ENDMDL
MODEL 7
REMARK VINA RESULT:      -7.0      4.865      6.609
REMARK  Name = 
REMARK  2 active torsions:
REMARK  status: ('A' for Active; 'I' for Inactive)
REMARK    1  A    between atoms: C_5  and  N_6
REMARK    2  A    between atoms: C_15  and  N_16
REMARK                            x       y       z     vdW  Elec       q    Type
REMARK                         _______ _______ _______ _____ _____    ______ ____
ROOT
ATOM      1  O   UNL     1       3.672   6.926  17.111  0.00  0.00    +0.000 OA
ATOM      2  C   UNL     1       3.079   6.780  18.157  0.00  0.00    +0.000 C 
ATOM      3  C   UNL     1       3.028   5.555  18.981  0.00  0.00    +0.000 A 
ATOM      4  C   UNL     1       3.671   4.350  18.772  0.00  0.00    +0.000 A 
ATOM      5  C   UNL     1       3.476   3.367  19.748  0.00  0.00    +0.000 A 
ATOM      6  C   UNL     1       2.639   3.600  20.869  0.00  0.00    +0.000 A 
ATOM      7  C   UNL     1       2.001   4.838  21.043  0.00  0.00    +0.000 A 
ATOM      8  C   UNL     1       2.214   5.825  20.095  0.00  0.00    +0.000 A 
ATOM      9  C   UNL     1       1.756   7.200  20.027  0.00  0.00    +0.000 A 
ATOM     10  C   UNL     1       0.980   7.949  20.894  0.00  0.00    +0.000 A 
ATOM     11  C   UNL     1       0.741   9.297  20.581  0.00  0.00    +0.000 A 
ATOM     12  C   UNL     1       1.280   9.873  19.403  0.00  0.00    +0.000 A 
ATOM     13  C   UNL     1       2.058   9.120  18.517  0.00  0.00    +0.000 A 
ATOM     14  C   UNL     1       2.274   7.799  18.863  0.00  0.00    +0.000 A 
ENDROOT
BRANCH   5  15
ATOM     15  N   UNL     1       4.172   2.078  19.625  0.00  0.00    +0.000 N 
ATOM     16  O   UNL     1       5.051   1.817  20.458  0.00  0.00    +0.000 OA
ATOM     17  O   UNL     1       3.830   1.327  18.701  0.00  0.00    +0.000 OA
ENDBRANCH   5  15
BRANCH  12  18
ATOM     18  N   UNL     1       1.028  11.293  19.116  0.00  0.00    +0.000 N 
ATOM     19  O   UNL     1      -0.017  11.791  19.557  0.00  0.00    +0.000 OA
ATOM     20  O   UNL     1       1.874  11.904  18.451  0.00  0.00    +0.000 OA
ENDBRANCH  12  18
TORSDOF 2
ENDMDL
MODEL 8
REMARK VINA RESULT:      -6.9      5.763      8.476
REMARK  Name = 
REMARK  2 active torsions:
REMARK  status: ('A' for Active; 'I' for Inactive)
REMARK    1  A    between atoms: C_5  and  N_6
REMARK    2  A    between atoms: C_15  and  N_16
REMARK                            x       y       z     vdW  Elec       q    Type
REMARK                         _______ _______ _______ _____ _____    ______ ____
ROOT
ATOM      1  O   UNL     1       1.979   9.917  17.345  0.00  0.00    +0.000 OA
ATOM      2  C   UNL     1       1.958   9.114  18.252  0.00  0.00    +0.000 C 
ATOM      3  C   UNL     1       2.621   7.795  18.281  0.00  0.00    +0.000 A 
ATOM      4  C   UNL     1       3.436   7.220  17.324  0.00  0.00    +0.000 A 
ATOM      5  C   UNL     1       3.970   5.966  17.638  0.00  0.00    +0.000 A 
ATOM      6  C   UNL     1       3.660   5.321  18.862  0.00  0.00    +0.000 A 
ATOM      7  C   UNL     1       2.824   5.937  19.806  0.00  0.00    +0.000 A 
ATOM      8  C   UNL     1       2.316   7.192  19.514  0.00  0.00    +0.000 A 
ATOM      9  C   UNL     1       1.493   8.096  20.294  0.00  0.00    +0.000 A 
ATOM     10  C   UNL     1       0.976   7.988  21.573  0.00  0.00    +0.000 A 
ATOM     11  C   UNL     1       0.245   9.069  22.091  0.00  0.00    +0.000 A 
ATOM     12  C   UNL     1       0.039  10.240  21.319  0.00  0.00    +0.000 A 
ATOM     13  C   UNL     1       0.551  10.353  20.022  0.00  0.00    +0.000 A 
ATOM     14  C   UNL     1       1.269   9.270  19.550  0.00  0.00    +0.000 A 
ENDROOT
BRANCH   5  15
ATOM     15  N   UNL     1       4.892   5.316  16.695  0.00  0.00    +0.000 N 
ATOM     16  O   UNL     1       5.218   4.144  16.926  0.00  0.00    +0.000 OA
ATOM     17  O   UNL     1       5.276   5.977  15.721  0.00  0.00    +0.000 OA
ENDBRANCH   5  15
BRANCH  12  18
ATOM     18  N   UNL     1      -0.713  11.362  21.899  0.00  0.00    +0.000 N 
ATOM     19  O   UNL     1      -1.412  12.042  21.133  0.00  0.00    +0.000 OA
ATOM     20  O   UNL     1      -0.604  11.561  23.115  0.00  0.00    +0.000 OA
ENDBRANCH  12  18
TORSDOF 2
ENDMDL
MODEL 9
REMARK VINA RESULT:      -6.9      5.510      6.823
REMARK  Name = 
REMARK  2 active torsions:
REMARK  status: ('A' for Active; 'I' for Inactive)
REMARK    1  A    between atoms: C_5  and  N_6
REMARK    2  A    between atoms: C_15  and  N_16
REMARK                            x       y       z     vdW  Elec       q    Type
REMARK                         _______ _______ _______ _____ _____    ______ ____
ROOT
ATOM      1  O   UNL     1       2.553   8.671  17.165  0.00  0.00    +0.000 OA
ATOM      2  C   UNL     1       2.303   8.152  18.230  0.00  0.00    +0.000 C 
ATOM      3  C   UNL     1       1.644   8.786  19.390  0.00  0.00    +0.000 A 
ATOM      4  C   UNL     1       1.134  10.067  19.497  0.00  0.00    +0.000 A 
ATOM      5  C   UNL     1       0.518  10.388  20.711  0.00  0.00    +0.000 A 
ATOM      6  C   UNL     1       0.454   9.452  21.773  0.00  0.00    +0.000 A 
ATOM      7  C   UNL     1       0.988   8.162  21.626  0.00  0.00    +0.000 A 
ATOM      8  C   UNL     1       1.573   7.827  20.416  0.00  0.00    +0.000 A 
ATOM      9  C   UNL     1       2.145   6.582  19.942  0.00  0.00    +0.000 A 
ATOM     10  C   UNL     1       2.269   5.343  20.548  0.00  0.00    +0.000 A 
ATOM     11  C   UNL     1       2.832   4.291  19.808  0.00  0.00    +0.000 A 
ATOM     12  C   UNL     1       3.265   4.495  18.474  0.00  0.00    +0.000 A 
ATOM     13  C   UNL     1       3.151   5.746  17.858  0.00  0.00    +0.000 A 
ATOM     14  C   UNL     1       2.588   6.754  18.617  0.00  0.00    +0.000 A 
ENDROOT
BRANCH   5  15
ATOM     15  N   UNL     1      -0.098  11.712  20.879  0.00  0.00    +0.000 N 
ATOM     16  O   UNL     1       0.172  12.344  21.910  0.00  0.00    +0.000 OA
ATOM     17  O   UNL     1      -0.841  12.119  19.976  0.00  0.00    +0.000 OA
ENDBRANCH   5  15
BRANCH  12  18
ATOM     18  N   UNL     1       3.830   3.367  17.720  0.00  0.00    +0.000 N 
ATOM     19  O   UNL     1       3.488   2.224  18.055  0.00  0.00    +0.000 OA
ATOM     20  O   UNL     1       4.612   3.626  16.796  0.00  0.00    +0.000 OA
ENDBRANCH  12  18
TORSDOF 2
ENDMDL
