MODEL 1
REMARK VINA RESULT:      -7.2      0.000      0.000
REMARK  Name = 
REMARK  9 active torsions:
REMARK  status: ('A' for Active; 'I' for Inactive)
REMARK    1  A    between atoms: C_1  and  C_2
REMARK    2  A    between atoms: C_4  and  C_5
REMARK    3  A    between atoms: C_9  and  C_10
REMARK    4  A    between atoms: N_12  and  C_13
REMARK    5  A    between atoms: C_13  and  C_14
REMARK    6  A    between atoms: C_14  and  N_15
REMARK    7  A    between atoms: N_15  and  C_16
REMARK    8  A    between atoms: N_15  and  C_17
REMARK    9  A    between atoms: C_18  and  O_19
REMARK                            x       y       z     vdW  Elec       q    Type
REMARK                         _______ _______ _______ _____ _____    ______ ____
ROOT
ATOM      1  C   UNL     1       5.043   2.705  11.355  0.00  0.00    +0.000 C 
ATOM      2  C   UNL     1       5.714   3.510  12.426  0.00  0.00    +0.000 A 
ATOM      3  C   UNL     1       6.873   4.237  12.168  0.00  0.00    +0.000 A 
ATOM      4  C   UNL     1       7.492   4.986  13.187  0.00  0.00    +0.000 A 
ATOM      5  C   UNL     1       8.746   5.756  12.867  0.00  0.00    +0.000 C 
ATOM      6  C   UNL     1       6.956   5.022  14.480  0.00  0.00    +0.000 A 
ATOM      7  N   UNL     1       7.560   5.746  15.445  0.00  0.00    +0.000 NA
ATOM      8  C   UNL     1       7.020   5.765  16.686  0.00  0.00    +0.000 A 
ATOM      9  C   UNL     1       5.871   5.083  17.052  0.00  0.00    +0.000 A 
ATOM     10  C   UNL     1       5.253   4.329  16.047  0.00  0.00    +0.000 A 
ATOM     11  C   UNL     1       5.781   4.286  14.744  0.00  0.00    +0.000 A 
ATOM     12  C   UNL     1       5.177   3.540  13.712  0.00  0.00    +0.000 A 
ENDROOT
BRANCH   9  13
ATOM     13  C   UNL     1       5.306   5.128  18.421  0.00  0.00    +0.000 C 
ATOM     14  O   UNL     1       6.037   4.841  19.365  0.00  0.00    +0.000 OA
ATOM     15  N   UNL     1       3.989   5.503  18.599  0.00  0.00    +0.000 N 
ATOM     16  H   UNL     1       3.366   5.751  17.843  0.00  0.00    +0.000 HD
BRANCH  15  17
ATOM     17  C   UNL     1       3.420   5.549  19.935  0.00  0.00    +0.000 C 
BRANCH  17  18
ATOM     18  C   UNL     1       2.241   4.575  20.114  0.00  0.00    +0.000 C 
BRANCH  18  19
ATOM     19  N   UNL     1       2.652   3.192  20.448  0.00  0.00    +0.000 NA
ATOM     20  C   UNL     1       1.947   2.690  21.633  0.00  0.00    +0.000 C 
ATOM     21  C   UNL     1       2.376   2.305  19.312  0.00  0.00    +0.000 C 
ENDBRANCH  18  19
ENDBRANCH  17  18
ENDBRANCH  15  17
ENDBRANCH   9  13
BRANCH  10  22
ATOM     22  O   UNL     1       4.107   3.600  16.294  0.00  0.00    +0.000 OA
ATOM     23  H   UNL     1       3.567   3.574  15.471  0.00  0.00    +0.000 HD
ENDBRANCH  10  22
TORSDOF 5
ENDMDL
MODEL 2
REMARK VINA RESULT:      -6.9      4.300      8.270
REMARK  Name = 
REMARK  9 active torsions:
REMARK  status: ('A' for Active; 'I' for Inactive)
REMARK    1  A    between atoms: C_1  and  C_2
REMARK    2  A    between atoms: C_4  and  C_5
REMARK    3  A    between atoms: C_9  and  C_10
REMARK    4  A    between atoms: N_12  and  C_13
REMARK    5  A    between atoms: C_13  and  C_14
REMARK    6  A    between atoms: C_14  and  N_15
REMARK    7  A    between atoms: N_15  and  C_16
REMARK    8  A    between atoms: N_15  and  C_17
REMARK    9  A    between atoms: C_18  and  O_19
REMARK                            x       y       z     vdW  Elec       q    Type
REMARK                         _______ _______ _______ _____ _____    ______ ____
ROOT
ATOM      1  C   UNL     1      -0.624   9.666  23.356  0.00  0.00    +0.000 C 
ATOM      2  C   UNL     1      -0.137   9.699  21.940  0.00  0.00    +0.000 A 
ATOM      3  C   UNL     1      -0.549  10.692  21.055  0.00  0.00    +0.000 A 
ATOM      4  C   UNL     1      -0.085  10.707  19.726  0.00  0.00    +0.000 A 
ATOM      5  C   UNL     1      -0.556  11.797  18.800  0.00  0.00    +0.000 C 
ATOM      6  C   UNL     1       0.803   9.728  19.263  0.00  0.00    +0.000 A 
ATOM      7  N   UNL     1       1.241   9.756  17.988  0.00  0.00    +0.000 NA
ATOM      8  C   UNL     1       2.100   8.799  17.567  0.00  0.00    +0.000 A 
ATOM      9  C   UNL     1       2.576   7.768  18.361  0.00  0.00    +0.000 A 
ATOM     10  C   UNL     1       2.113   7.741  19.682  0.00  0.00    +0.000 A 
ATOM     11  C   UNL     1       1.222   8.720  20.159  0.00  0.00    +0.000 A 
ATOM     12  C   UNL     1       0.744   8.720  21.484  0.00  0.00    +0.000 A 
ENDROOT
BRANCH   9  13
ATOM     13  C   UNL     1       3.519   6.737  17.868  0.00  0.00    +0.000 C 
ATOM     14  O   UNL     1       4.459   7.093  17.164  0.00  0.00    +0.000 OA
ATOM     15  N   UNL     1       3.326   5.417  18.225  0.00  0.00    +0.000 N 
ATOM     16  H   UNL     1       2.566   5.095  18.808  0.00  0.00    +0.000 HD
BRANCH  15  17
ATOM     17  C   UNL     1       4.240   4.393  17.747  0.00  0.00    +0.000 C 
BRANCH  17  18
ATOM     18  C   UNL     1       5.288   3.992  18.801  0.00  0.00    +0.000 C 
BRANCH  18  19
ATOM     19  N   UNL     1       6.674   4.373  18.443  0.00  0.00    +0.000 NA
ATOM     20  C   UNL     1       6.821   4.586  16.999  0.00  0.00    +0.000 C 
ATOM     21  C   UNL     1       7.048   5.604  19.151  0.00  0.00    +0.000 C 
ENDBRANCH  18  19
ENDBRANCH  17  18
ENDBRANCH  15  17
ENDBRANCH   9  13
BRANCH  10  22
ATOM     22  O   UNL     1       2.510   6.757  20.566  0.00  0.00    +0.000 OA
ATOM     23  H   UNL     1       2.004   6.865  21.404  0.00  0.00    +0.000 HD
ENDBRANCH  10  22
TORSDOF 5
ENDMDL
MODEL 3
REMARK VINA RESULT:      -6.8      4.111      7.876
REMARK  Name = 
REMARK  9 active torsions:
REMARK  status: ('A' for Active; 'I' for Inactive)
REMARK    1  A    between atoms: C_1  and  C_2
REMARK    2  A    between atoms: C_4  and  C_5
REMARK    3  A    between atoms: C_9  and  C_10
REMARK    4  A    between atoms: N_12  and  C_13
REMARK    5  A    between atoms: C_13  and  C_14
REMARK    6  A    between atoms: C_14  and  N_15
REMARK    7  A    between atoms: N_15  and  C_16
REMARK    8  A    between atoms: N_15  and  C_17
REMARK    9  A    between atoms: C_18  and  O_19
REMARK                            x       y       z     vdW  Elec       q    Type
REMARK                         _______ _______ _______ _____ _____    ______ ____
ROOT
ATOM      1  C   UNL     1      -0.735  10.121  23.225  0.00  0.00    +0.000 C 
ATOM      2  C   UNL     1      -0.079   9.925  21.892  0.00  0.00    +0.000 A 
ATOM      3  C   UNL     1      -0.143  10.902  20.902  0.00  0.00    +0.000 A 
ATOM      4  C   UNL     1       0.477  10.700  19.654  0.00  0.00    +0.000 A 
ATOM      5  C   UNL     1       0.382  11.781  18.609  0.00  0.00    +0.000 C 
ATOM      6  C   UNL     1       1.175   9.518  19.380  0.00  0.00    +0.000 A 
ATOM      7  N   UNL     1       1.765   9.340  18.180  0.00  0.00    +0.000 NA
ATOM      8  C   UNL     1       2.434   8.189  17.942  0.00  0.00    +0.000 A 
ATOM      9  C   UNL     1       2.564   7.153  18.853  0.00  0.00    +0.000 A 
ATOM     10  C   UNL     1       1.944   7.342  20.094  0.00  0.00    +0.000 A 
ATOM     11  C   UNL     1       1.241   8.526  20.382  0.00  0.00    +0.000 A 
ATOM     12  C   UNL     1       0.612   8.744  21.624  0.00  0.00    +0.000 A 
ENDROOT
BRANCH   9  13
ATOM     13  C   UNL     1       3.306   5.905  18.560  0.00  0.00    +0.000 C 
ATOM     14  O   UNL     1       4.379   5.716  19.126  0.00  0.00    +0.000 OA
ATOM     15  N   UNL     1       2.768   4.988  17.678  0.00  0.00    +0.000 N 
ATOM     16  H   UNL     1       1.886   5.114  17.203  0.00  0.00    +0.000 HD
BRANCH  15  17
ATOM     17  C   UNL     1       3.486   3.761  17.378  0.00  0.00    +0.000 C 
BRANCH  17  18
ATOM     18  C   UNL     1       2.630   2.501  17.601  0.00  0.00    +0.000 C 
BRANCH  18  19
ATOM     19  N   UNL     1       2.783   1.903  18.947  0.00  0.00    +0.000 NA
ATOM     20  C   UNL     1       4.091   2.217  19.533  0.00  0.00    +0.000 C 
ATOM     21  C   UNL     1       1.726   2.403  19.835  0.00  0.00    +0.000 C 
ENDBRANCH  18  19
ENDBRANCH  17  18
ENDBRANCH  15  17
ENDBRANCH   9  13
BRANCH  10  22
ATOM     22  O   UNL     1       1.995   6.377  21.081  0.00  0.00    +0.000 OA
ATOM     23  H   UNL     1       1.518   6.712  21.874  0.00  0.00    +0.000 HD
ENDBRANCH  10  22
TORSDOF 5
ENDMDL
MODEL 4
REMARK VINA RESULT:      -6.8      4.553      7.846
REMARK  Name = 
REMARK  9 active torsions:
REMARK  status: ('A' for Active; 'I' for Inactive)
REMARK    1  A    between atoms: C_1  and  C_2
REMARK    2  A    between atoms: C_4  and  C_5
REMARK    3  A    between atoms: C_9  and  C_10
REMARK    4  A    between atoms: N_12  and  C_13
REMARK    5  A    between atoms: C_13  and  C_14
REMARK    6  A    between atoms: C_14  and  N_15
REMARK    7  A    between atoms: N_15  and  C_16
REMARK    8  A    between atoms: N_15  and  C_17
REMARK    9  A    between atoms: C_18  and  O_19
REMARK                            x       y       z     vdW  Elec       q    Type
REMARK                         _______ _______ _______ _____ _____    ______ ____
ROOT
ATOM      1  C   UNL     1      -0.696  10.039  23.251  0.00  0.00    +0.000 C 
ATOM      2  C   UNL     1      -0.050   9.872  21.910  0.00  0.00    +0.000 A 
ATOM      3  C   UNL     1      -0.151  10.855  20.929  0.00  0.00    +0.000 A 
ATOM      4  C   UNL     1       0.460  10.680  19.672  0.00  0.00    +0.000 A 
ATOM      5  C   UNL     1       0.325  11.766  18.638  0.00  0.00    +0.000 C 
ATOM      6  C   UNL     1       1.185   9.518  19.380  0.00  0.00    +0.000 A 
ATOM      7  N   UNL     1       1.766   9.366  18.172  0.00  0.00    +0.000 NA
ATOM      8  C   UNL     1       2.462   8.234  17.917  0.00  0.00    +0.000 A 
ATOM      9  C   UNL     1       2.629   7.195  18.818  0.00  0.00    +0.000 A 
ATOM     10  C   UNL     1       2.018   7.357  20.067  0.00  0.00    +0.000 A 
ATOM     11  C   UNL     1       1.288   8.520  20.373  0.00  0.00    +0.000 A 
ATOM     12  C   UNL     1       0.668   8.712  21.624  0.00  0.00    +0.000 A 
ENDROOT
BRANCH   9  13
ATOM     13  C   UNL     1       3.400   5.969  18.505  0.00  0.00    +0.000 C 
ATOM     14  O   UNL     1       3.421   5.571  17.344  0.00  0.00    +0.000 OA
ATOM     15  N   UNL     1       4.083   5.322  19.516  0.00  0.00    +0.000 N 
ATOM     16  H   UNL     1       4.090   5.629  20.479  0.00  0.00    +0.000 HD
BRANCH  15  17
ATOM     17  C   UNL     1       4.842   4.117  19.225  0.00  0.00    +0.000 C 
BRANCH  17  18
ATOM     18  C   UNL     1       4.143   2.839  19.725  0.00  0.00    +0.000 C 
BRANCH  18  19
ATOM     19  N   UNL     1       2.710   3.027  20.048  0.00  0.00    +0.000 NA
ATOM     20  C   UNL     1       1.854   2.157  19.235  0.00  0.00    +0.000 C 
ATOM     21  C   UNL     1       2.480   2.735  21.468  0.00  0.00    +0.000 C 
ENDBRANCH  18  19
ENDBRANCH  17  18
ENDBRANCH  15  17
ENDBRANCH   9  13
BRANCH  10  22
ATOM     22  O   UNL     1       2.106   6.386  21.045  0.00  0.00    +0.000 OA
ATOM     23  H   UNL     1       3.040   6.081  21.103  0.00  0.00    +0.000 HD
ENDBRANCH  10  22
TORSDOF 5
ENDMDL
MODEL 5
REMARK VINA RESULT:      -6.8      1.031      1.318
REMARK  Name = 
REMARK  9 active torsions:
REMARK  status: ('A' for Active; 'I' for Inactive)
REMARK    1  A    between atoms: C_1  and  C_2
REMARK    2  A    between atoms: C_4  and  C_5
REMARK    3  A    between atoms: C_9  and  C_10
REMARK    4  A    between atoms: N_12  and  C_13
REMARK    5  A    between atoms: C_13  and  C_14
REMARK    6  A    between atoms: C_14  and  N_15
REMARK    7  A    between atoms: N_15  and  C_16
REMARK    8  A    between atoms: N_15  and  C_17
REMARK    9  A    between atoms: C_18  and  O_19
REMARK                            x       y       z     vdW  Elec       q    Type
REMARK                         _______ _______ _______ _____ _____    ______ ____
ROOT
ATOM      1  C   UNL     1       4.854   2.917  11.295  0.00  0.00    +0.000 C 
ATOM      2  C   UNL     1       5.577   3.585  12.424  0.00  0.00    +0.000 A 
ATOM      3  C   UNL     1       6.732   4.331  12.205  0.00  0.00    +0.000 A 
ATOM      4  C   UNL     1       7.401   4.950  13.278  0.00  0.00    +0.000 A 
ATOM      5  C   UNL     1       8.649   5.746  12.999  0.00  0.00    +0.000 C 
ATOM      6  C   UNL     1       6.921   4.834  14.589  0.00  0.00    +0.000 A 
ATOM      7  N   UNL     1       7.572   5.434  15.606  0.00  0.00    +0.000 NA
ATOM      8  C   UNL     1       7.085   5.308  16.862  0.00  0.00    +0.000 A 
ATOM      9  C   UNL     1       5.945   4.593  17.193  0.00  0.00    +0.000 A 
ATOM     10  C   UNL     1       5.278   3.968  16.133  0.00  0.00    +0.000 A 
ATOM     11  C   UNL     1       5.750   4.078  14.813  0.00  0.00    +0.000 A 
ATOM     12  C   UNL     1       5.096   3.464  13.727  0.00  0.00    +0.000 A 
ENDROOT
BRANCH   9  13
ATOM     13  C   UNL     1       5.438   4.476  18.581  0.00  0.00    +0.000 C 
ATOM     14  O   UNL     1       5.451   5.476  19.294  0.00  0.00    +0.000 OA
ATOM     15  N   UNL     1       4.954   3.262  19.026  0.00  0.00    +0.000 N 
ATOM     16  H   UNL     1       4.925   2.425  18.460  0.00  0.00    +0.000 HD
BRANCH  15  17
ATOM     17  C   UNL     1       4.456   3.132  20.385  0.00  0.00    +0.000 C 
BRANCH  17  18
ATOM     18  C   UNL     1       3.005   2.620  20.441  0.00  0.00    +0.000 C 
BRANCH  18  19
ATOM     19  N   UNL     1       2.069   3.378  19.579  0.00  0.00    +0.000 NA
ATOM     20  C   UNL     1       1.292   2.487  18.710  0.00  0.00    +0.000 C 
ATOM     21  C   UNL     1       1.149   4.159  20.414  0.00  0.00    +0.000 C 
ENDBRANCH  18  19
ENDBRANCH  17  18
ENDBRANCH  15  17
ENDBRANCH   9  13
BRANCH  10  22
ATOM     22  O   UNL     1       4.136   3.220  16.340  0.00  0.00    +0.000 OA
ATOM     23  H   UNL     1       3.546   3.324  15.559  0.00  0.00    +0.000 HD
ENDBRANCH  10  22
TORSDOF 5
ENDMDL
MODEL 6
REMARK VINA RESULT:      -6.6      4.125      8.412
REMARK  Name = 
REMARK  9 active torsions:
REMARK  status: ('A' for Active; 'I' for Inactive)
REMARK    1  A    between atoms: C_1  and  C_2
REMARK    2  A    between atoms: C_4  and  C_5
REMARK    3  A    between atoms: C_9  and  C_10
REMARK    4  A    between atoms: N_12  and  C_13
REMARK    5  A    between atoms: C_13  and  C_14
REMARK    6  A    between atoms: C_14  and  N_15
REMARK    7  A    between atoms: N_15  and  C_16
REMARK    8  A    between atoms: N_15  and  C_17
REMARK    9  A    between atoms: C_18  and  O_19
REMARK                            x       y       z     vdW  Elec       q    Type
REMARK                         _______ _______ _______ _____ _____    ______ ____
ROOT
ATOM      1  C   UNL     1      -0.421   9.762  23.424  0.00  0.00    +0.000 C 
ATOM      2  C   UNL     1       0.073   9.717  22.011  0.00  0.00    +0.000 A 
ATOM      3  C   UNL     1      -0.185  10.755  21.119  0.00  0.00    +0.000 A 
ATOM      4  C   UNL     1       0.285  10.695  19.793  0.00  0.00    +0.000 A 
ATOM      5  C   UNL     1      -0.017  11.839  18.860  0.00  0.00    +0.000 C 
ATOM      6  C   UNL     1       1.023   9.595  19.340  0.00  0.00    +0.000 A 
ATOM      7  N   UNL     1       1.467   9.553  18.067  0.00  0.00    +0.000 NA
ATOM      8  C   UNL     1       2.180   8.479  17.656  0.00  0.00    +0.000 A 
ATOM      9  C   UNL     1       2.496   7.394  18.457  0.00  0.00    +0.000 A 
ATOM     10  C   UNL     1       2.027   7.441  19.775  0.00  0.00    +0.000 A 
ATOM     11  C   UNL     1       1.285   8.541  20.242  0.00  0.00    +0.000 A 
ATOM     12  C   UNL     1       0.805   8.618  21.565  0.00  0.00    +0.000 A 
ENDROOT
BRANCH   9  13
ATOM     13  C   UNL     1       3.281   6.233  17.974  0.00  0.00    +0.000 C 
ATOM     14  O   UNL     1       2.844   5.104  18.181  0.00  0.00    +0.000 OA
ATOM     15  N   UNL     1       4.463   6.450  17.295  0.00  0.00    +0.000 N 
ATOM     16  H   UNL     1       4.844   7.367  17.104  0.00  0.00    +0.000 HD
BRANCH  15  17
ATOM     17  C   UNL     1       5.245   5.322  16.817  0.00  0.00    +0.000 C 
BRANCH  17  18
ATOM     18  C   UNL     1       6.570   5.751  16.162  0.00  0.00    +0.000 C 
BRANCH  18  19
ATOM     19  N   UNL     1       7.659   6.016  17.129  0.00  0.00    +0.000 NA
ATOM     20  C   UNL     1       7.666   7.416  17.566  0.00  0.00    +0.000 C 
ATOM     21  C   UNL     1       7.502   5.148  18.303  0.00  0.00    +0.000 C 
ENDBRANCH  18  19
ENDBRANCH  17  18
ENDBRANCH  15  17
ENDBRANCH   9  13
BRANCH  10  22
ATOM     22  O   UNL     1       2.270   6.414  20.666  0.00  0.00    +0.000 OA
ATOM     23  H   UNL     1       1.408   6.040  20.958  0.00  0.00    +0.000 HD
ENDBRANCH  10  22
TORSDOF 5
ENDMDL
MODEL 7
REMARK VINA RESULT:      -6.6      2.083      7.196
REMARK  Name = 
REMARK  9 active torsions:
REMARK  status: ('A' for Active; 'I' for Inactive)
REMARK    1  A    between atoms: C_1  and  C_2
REMARK    2  A    between atoms: C_4  and  C_5
REMARK    3  A    between atoms: C_9  and  C_10
REMARK    4  A    between atoms: N_12  and  C_13
REMARK    5  A    between atoms: C_13  and  C_14
REMARK    6  A    between atoms: C_14  and  N_15
REMARK    7  A    between atoms: N_15  and  C_16
REMARK    8  A    between atoms: N_15  and  C_17
REMARK    9  A    between atoms: C_18  and  O_19
REMARK                            x       y       z     vdW  Elec       q    Type
REMARK                         _______ _______ _______ _____ _____    ______ ____
ROOT
ATOM      1  C   UNL     1       1.166   6.942  20.893  0.00  0.00    +0.000 C 
ATOM      2  C   UNL     1       1.811   5.879  20.058  0.00  0.00    +0.000 A 
ATOM      3  C   UNL     1       1.515   4.531  20.245  0.00  0.00    +0.000 A 
ATOM      4  C   UNL     1       2.133   3.545  19.453  0.00  0.00    +0.000 A 
ATOM      5  C   UNL     1       1.787   2.097  19.688  0.00  0.00    +0.000 C 
ATOM      6  C   UNL     1       3.055   3.893  18.458  0.00  0.00    +0.000 A 
ATOM      7  N   UNL     1       3.637   2.936  17.706  0.00  0.00    +0.000 NA
ATOM      8  C   UNL     1       4.523   3.301  16.751  0.00  0.00    +0.000 A 
ATOM      9  C   UNL     1       4.889   4.610  16.478  0.00  0.00    +0.000 A 
ATOM     10  C   UNL     1       4.285   5.597  17.266  0.00  0.00    +0.000 A 
ATOM     11  C   UNL     1       3.357   5.259  18.267  0.00  0.00    +0.000 A 
ATOM     12  C   UNL     1       2.730   6.232  19.072  0.00  0.00    +0.000 A 
ENDROOT
BRANCH   9  13
ATOM     13  C   UNL     1       5.862   4.974  15.422  0.00  0.00    +0.000 C 
ATOM     14  O   UNL     1       6.441   6.054  15.507  0.00  0.00    +0.000 OA
ATOM     15  N   UNL     1       6.104   4.090  14.389  0.00  0.00    +0.000 N 
ATOM     16  H   UNL     1       5.649   3.193  14.297  0.00  0.00    +0.000 HD
BRANCH  15  17
ATOM     17  C   UNL     1       7.054   4.435  13.345  0.00  0.00    +0.000 C 
BRANCH  17  18
ATOM     18  C   UNL     1       6.755   3.727  12.011  0.00  0.00    +0.000 C 
BRANCH  18  19
ATOM     19  N   UNL     1       5.606   2.795  12.072  0.00  0.00    +0.000 NA
ATOM     20  C   UNL     1       4.415   3.363  11.432  0.00  0.00    +0.000 C 
ATOM     21  C   UNL     1       5.954   1.534  11.406  0.00  0.00    +0.000 C 
ENDBRANCH  18  19
ENDBRANCH  17  18
ENDBRANCH  15  17
ENDBRANCH   9  13
BRANCH  10  22
ATOM     22  O   UNL     1       4.576   6.936  17.094  0.00  0.00    +0.000 OA
ATOM     23  H   UNL     1       4.438   7.400  17.951  0.00  0.00    +0.000 HD
ENDBRANCH  10  22
TORSDOF 5
ENDMDL
MODEL 8
REMARK VINA RESULT:      -6.6      4.031      8.340
REMARK  Name = 
REMARK  9 active torsions:
REMARK  status: ('A' for Active; 'I' for Inactive)
REMARK    1  A    between atoms: C_1  and  C_2
REMARK    2  A    between atoms: C_4  and  C_5
REMARK    3  A    between atoms: C_9  and  C_10
REMARK    4  A    between atoms: N_12  and  C_13
REMARK    5  A    between atoms: C_13  and  C_14
REMARK    6  A    between atoms: C_14  and  N_15
REMARK    7  A    between atoms: N_15  and  C_16
REMARK    8  A    between atoms: N_15  and  C_17
REMARK    9  A    between atoms: C_18  and  O_19
REMARK                            x       y       z     vdW  Elec       q    Type
REMARK                         _______ _______ _______ _____ _____    ______ ____
ROOT
ATOM      1  C   UNL     1      -0.550   9.987  23.251  0.00  0.00    +0.000 C 
ATOM      2  C   UNL     1       0.045   9.823  21.886  0.00  0.00    +0.000 A 
ATOM      3  C   UNL     1      -0.084  10.813  20.915  0.00  0.00    +0.000 A 
ATOM      4  C   UNL     1       0.479  10.640  19.636  0.00  0.00    +0.000 A 
ATOM      5  C   UNL     1       0.315  11.735  18.614  0.00  0.00    +0.000 C 
ATOM      6  C   UNL     1       1.183   9.475  19.310  0.00  0.00    +0.000 A 
ATOM      7  N   UNL     1       1.717   9.326  18.081  0.00  0.00    +0.000 NA
ATOM      8  C   UNL     1       2.394   8.190  17.793  0.00  0.00    +0.000 A 
ATOM      9  C   UNL     1       2.585   7.144  18.682  0.00  0.00    +0.000 A 
ATOM     10  C   UNL     1       2.022   7.303  19.954  0.00  0.00    +0.000 A 
ATOM     11  C   UNL     1       1.314   8.469  20.293  0.00  0.00    +0.000 A 
ATOM     12  C   UNL     1       0.742   8.659  21.567  0.00  0.00    +0.000 A 
ENDROOT
BRANCH   9  13
ATOM     13  C   UNL     1       3.334   5.913  18.333  0.00  0.00    +0.000 C 
ATOM     14  O   UNL     1       2.872   4.830  18.679  0.00  0.00    +0.000 OA
ATOM     15  N   UNL     1       4.512   6.016  17.620  0.00  0.00    +0.000 N 
ATOM     16  H   UNL     1       4.913   6.893  17.316  0.00  0.00    +0.000 HD
BRANCH  15  17
ATOM     17  C   UNL     1       5.259   4.819  17.273  0.00  0.00    +0.000 C 
BRANCH  17  18
ATOM     18  C   UNL     1       4.993   4.348  15.832  0.00  0.00    +0.000 C 
BRANCH  18  19
ATOM     19  N   UNL     1       6.214   3.937  15.101  0.00  0.00    +0.000 NA
ATOM     20  C   UNL     1       5.970   3.830  13.659  0.00  0.00    +0.000 C 
ATOM     21  C   UNL     1       7.284   4.914  15.336  0.00  0.00    +0.000 C 
ENDBRANCH  18  19
ENDBRANCH  17  18
ENDBRANCH  15  17
ENDBRANCH   9  13
BRANCH  10  22
ATOM     22  O   UNL     1       2.138   6.325  20.921  0.00  0.00    +0.000 OA
ATOM     23  H   UNL     1       3.092   6.124  21.053  0.00  0.00    +0.000 HD
ENDBRANCH  10  22
TORSDOF 5
ENDMDL
MODEL 9
REMARK VINA RESULT:      -6.6      2.356      6.998
REMARK  Name = 
REMARK  9 active torsions:
REMARK  status: ('A' for Active; 'I' for Inactive)
REMARK    1  A    between atoms: C_1  and  C_2
REMARK    2  A    between atoms: C_4  and  C_5
REMARK    3  A    between atoms: C_9  and  C_10
REMARK    4  A    between atoms: N_12  and  C_13
REMARK    5  A    between atoms: C_13  and  C_14
REMARK    6  A    between atoms: C_14  and  N_15
REMARK    7  A    between atoms: N_15  and  C_16
REMARK    8  A    between atoms: N_15  and  C_17
REMARK    9  A    between atoms: C_18  and  O_19
REMARK                            x       y       z     vdW  Elec       q    Type
REMARK                         _______ _______ _______ _____ _____    ______ ____
ROOT
ATOM      1  C   UNL     1       1.538   8.872  19.121  0.00  0.00    +0.000 C 
ATOM      2  C   UNL     1       2.311   7.608  18.903  0.00  0.00    +0.000 A 
ATOM      3  C   UNL     1       2.138   6.501  19.729  0.00  0.00    +0.000 A 
ATOM      4  C   UNL     1       2.875   5.321  19.511  0.00  0.00    +0.000 A 
ATOM      5  C   UNL     1       2.659   4.146  20.429  0.00  0.00    +0.000 C 
ATOM      6  C   UNL     1       3.795   5.231  18.460  0.00  0.00    +0.000 A 
ATOM      7  N   UNL     1       4.493   4.093  18.263  0.00  0.00    +0.000 NA
ATOM      8  C   UNL     1       5.374   4.033  17.238  0.00  0.00    +0.000 A 
ATOM      9  C   UNL     1       5.624   5.071  16.356  0.00  0.00    +0.000 A 
ATOM     10  C   UNL     1       4.901   6.251  16.569  0.00  0.00    +0.000 A 
ATOM     11  C   UNL     1       3.973   6.353  17.621  0.00  0.00    +0.000 A 
ATOM     12  C   UNL     1       3.228   7.526  17.856  0.00  0.00    +0.000 A 
ENDROOT
BRANCH   9  13
ATOM     13  C   UNL     1       6.596   4.970  15.242  0.00  0.00    +0.000 C 
ATOM     14  O   UNL     1       7.703   5.483  15.383  0.00  0.00    +0.000 OA
ATOM     15  N   UNL     1       6.242   4.291  14.093  0.00  0.00    +0.000 N 
ATOM     16  H   UNL     1       5.342   3.853  13.951  0.00  0.00    +0.000 HD
BRANCH  15  17
ATOM     17  C   UNL     1       7.184   4.186  12.991  0.00  0.00    +0.000 C 
BRANCH  17  18
ATOM     18  C   UNL     1       6.530   3.672  11.696  0.00  0.00    +0.000 C 
BRANCH  18  19
ATOM     19  N   UNL     1       5.444   2.690  11.922  0.00  0.00    +0.000 NA
ATOM     20  C   UNL     1       4.166   3.162  11.378  0.00  0.00    +0.000 C 
ATOM     21  C   UNL     1       5.793   1.412  11.289  0.00  0.00    +0.000 C 
ENDBRANCH  18  19
ENDBRANCH  17  18
ENDBRANCH  15  17
ENDBRANCH   9  13
BRANCH  10  22
ATOM     22  O   UNL     1       5.070   7.357  15.761  0.00  0.00    +0.000 OA
ATOM     23  H   UNL     1       5.437   8.091  16.305  0.00  0.00    +0.000 HD
ENDBRANCH  10  22
TORSDOF 5
ENDMDL
