MODEL 1
REMARK VINA RESULT:      -8.5      0.000      0.000
REMARK  Name = 
REMARK  10 active torsions:
REMARK  status: ('A' for Active; 'I' for Inactive)
REMARK    1  A    between atoms: C_1  and  O_2
REMARK    2  A    between atoms: O_2  and  C_3
REMARK    3  A    between atoms: C_7  and  C_9
REMARK    4  A    between atoms: C_13  and  C_14
REMARK    5  A    between atoms: N_16  and  C_17
REMARK    6  A    between atoms: C_21  and  C_22
REMARK    7  A    between atoms: C_22  and  C_23
REMARK    8  A    between atoms: C_22  and  S_24
REMARK    9  A    between atoms: S_24  and  C_25
REMARK   10  A    between atoms: N_29  and  C_30
REMARK                            x       y       z     vdW  Elec       q    Type
REMARK                         _______ _______ _______ _____ _____    ______ ____
ROOT
ATOM      1  C   UNL     1       1.882   7.580  19.993  0.00  0.00    +0.000 C 
ATOM      2  O   UNL     1       1.999   8.392  19.074  0.00  0.00    +0.000 OA
ATOM      3  N   UNL     1       1.266   7.797  21.215  0.00  0.00    +0.000 N 
ATOM      4  H   UNL     1       1.381   7.052  21.900  0.00  0.00    +0.000 HD
ENDROOT
BRANCH   1   9
ATOM      5  C   UNL     1       4.358   4.846  19.248  0.00  0.00    +0.000 A 
ATOM      6  C   UNL     1       3.607   3.765  19.692  0.00  0.00    +0.000 A 
ATOM      7  C   UNL     1       2.295   3.963  20.072  0.00  0.00    +0.000 A 
ATOM      8  N   UNL     1       1.714   5.173  20.144  0.00  0.00    +0.000 NA
ATOM      9  C   UNL     1       2.505   6.232  19.825  0.00  0.00    +0.000 A 
ATOM     10  C   UNL     1       3.818   6.124  19.375  0.00  0.00    +0.000 A 
BRANCH   5  15
ATOM     11  C   UNL     1       7.096   4.330  15.233  0.00  0.00    +0.000 C 
ATOM     12  C   UNL     1       5.669   3.810  15.112  0.00  0.00    +0.000 C 
ATOM     13  C   UNL     1       4.950   4.598  16.190  0.00  0.00    +0.000 C 
ATOM     14  N   UNL     1       5.900   4.561  17.294  0.00  0.00    +0.000 N 
ATOM     15  C   UNL     1       5.729   4.709  18.671  0.00  0.00    +0.000 C 
ATOM     16  O   UNL     1       6.685   4.781  19.435  0.00  0.00    +0.000 OA
ATOM     17  C   UNL     1       7.246   4.631  16.741  0.00  0.00    +0.000 C 
BRANCH  11  19
ATOM     18  C   UNL     1       7.740   5.247  13.140  0.00  0.00    +0.000 C 
ATOM     19  O   UNL     1       7.170   5.503  14.417  0.00  0.00    +0.000 OA
ENDBRANCH  11  19
ENDBRANCH   5  15
ENDBRANCH   1   9
BRANCH   3  20
ATOM     20  C   UNL     1       0.671   9.016  21.628  0.00  0.00    +0.000 A 
ATOM     21  C   UNL     1      -0.179   9.068  22.728  0.00  0.00    +0.000 A 
ATOM     22  C   UNL     1      -0.788  10.267  23.100  0.00  0.00    +0.000 A 
ATOM     23  C   UNL     1      -0.583  11.420  22.344  0.00  0.00    +0.000 A 
ATOM     24  C   UNL     1       0.251  11.397  21.213  0.00  0.00    +0.000 A 
ATOM     25  C   UNL     1       0.922  10.191  20.901  0.00  0.00    +0.000 A 
BRANCH  24  26
ATOM     26  C   UNL     1       0.410  12.631  20.325  0.00  0.00    +0.000 C 
ATOM     27  C   UNL     1       1.106  13.784  21.065  0.00  0.00    +0.000 C 
BRANCH  26  28
ATOM     28  S   UNL     1      -1.181  13.340  19.754  0.00  0.00    +0.000 S 
BRANCH  28  29
ATOM     29  C   UNL     1      -1.919  12.074  18.853  0.00  0.00    +0.000 A 
ATOM     30  N   UNL     1      -1.352  11.280  17.972  0.00  0.00    +0.000 NA
ATOM     31  N   UNL     1      -2.358  10.543  17.373  0.00  0.00    +0.000 NA
ATOM     32  C   UNL     1      -3.501  10.919  17.902  0.00  0.00    +0.000 A 
ATOM     33  N   UNL     1      -3.268  11.865  18.852  0.00  0.00    +0.000 N 
ATOM     34  C   UNL     1      -4.261  12.470  19.700  0.00  0.00    +0.000 C 
ENDBRANCH  28  29
ENDBRANCH  26  28
ENDBRANCH  24  26
ENDBRANCH   3  20
TORSDOF 7
ENDMDL
MODEL 2
REMARK VINA RESULT:      -8.5      0.991      1.170
REMARK  Name = 
REMARK  10 active torsions:
REMARK  status: ('A' for Active; 'I' for Inactive)
REMARK    1  A    between atoms: C_1  and  O_2
REMARK    2  A    between atoms: O_2  and  C_3
REMARK    3  A    between atoms: C_7  and  C_9
REMARK    4  A    between atoms: C_13  and  C_14
REMARK    5  A    between atoms: N_16  and  C_17
REMARK    6  A    between atoms: C_21  and  C_22
REMARK    7  A    between atoms: C_22  and  C_23
REMARK    8  A    between atoms: C_22  and  S_24
REMARK    9  A    between atoms: S_24  and  C_25
REMARK   10  A    between atoms: N_29  and  C_30
REMARK                            x       y       z     vdW  Elec       q    Type
REMARK                         _______ _______ _______ _____ _____    ______ ____
ROOT
ATOM      1  C   UNL     1       1.899   7.552  19.962  0.00  0.00    +0.000 C 
ATOM      2  O   UNL     1       2.151   8.403  19.107  0.00  0.00    +0.000 OA
ATOM      3  N   UNL     1       1.102   7.715  21.083  0.00  0.00    +0.000 N 
ATOM      4  H   UNL     1       1.115   6.941  21.744  0.00  0.00    +0.000 HD
ENDROOT
BRANCH   1   9
ATOM      5  C   UNL     1       4.414   4.844  19.249  0.00  0.00    +0.000 A 
ATOM      6  C   UNL     1       3.707   3.768  19.773  0.00  0.00    +0.000 A 
ATOM      7  C   UNL     1       2.406   3.954  20.194  0.00  0.00    +0.000 A 
ATOM      8  N   UNL     1       1.798   5.152  20.232  0.00  0.00    +0.000 NA
ATOM      9  C   UNL     1       2.549   6.212  19.833  0.00  0.00    +0.000 A 
ATOM     10  C   UNL     1       3.847   6.114  19.337  0.00  0.00    +0.000 A 
BRANCH   5  15
ATOM     11  C   UNL     1       7.016   4.359  15.141  0.00  0.00    +0.000 C 
ATOM     12  C   UNL     1       5.585   3.841  15.064  0.00  0.00    +0.000 C 
ATOM     13  C   UNL     1       4.903   4.620  16.171  0.00  0.00    +0.000 C 
ATOM     14  N   UNL     1       5.889   4.574  17.243  0.00  0.00    +0.000 N 
ATOM     15  C   UNL     1       5.764   4.711  18.625  0.00  0.00    +0.000 C 
ATOM     16  O   UNL     1       6.745   4.777  19.358  0.00  0.00    +0.000 OA
ATOM     17  C   UNL     1       7.216   4.649  16.645  0.00  0.00    +0.000 C 
BRANCH  11  19
ATOM     18  C   UNL     1       7.901   5.390  13.194  0.00  0.00    +0.000 C 
ATOM     19  O   UNL     1       7.063   5.539  14.332  0.00  0.00    +0.000 OA
ENDBRANCH  11  19
ENDBRANCH   5  15
ENDBRANCH   1   9
BRANCH   3  20
ATOM     20  C   UNL     1       0.443   8.916  21.451  0.00  0.00    +0.000 A 
ATOM     21  C   UNL     1       0.156   9.201  22.784  0.00  0.00    +0.000 A 
ATOM     22  C   UNL     1      -0.526  10.368  23.129  0.00  0.00    +0.000 A 
ATOM     23  C   UNL     1      -0.966  11.241  22.136  0.00  0.00    +0.000 A 
ATOM     24  C   UNL     1      -0.713  10.972  20.780  0.00  0.00    +0.000 A 
ATOM     25  C   UNL     1       0.050   9.825  20.457  0.00  0.00    +0.000 A 
BRANCH  24  26
ATOM     26  C   UNL     1      -1.270  11.874  19.679  0.00  0.00    +0.000 C 
ATOM     27  C   UNL     1      -0.389  13.112  19.453  0.00  0.00    +0.000 C 
BRANCH  26  28
ATOM     28  S   UNL     1      -2.933  12.550  20.048  0.00  0.00    +0.000 S 
BRANCH  28  29
ATOM     29  C   UNL     1      -3.939  11.925  18.801  0.00  0.00    +0.000 A 
ATOM     30  N   UNL     1      -3.585  11.568  17.587  0.00  0.00    +0.000 NA
ATOM     31  N   UNL     1      -4.743  11.300  16.880  0.00  0.00    +0.000 NA
ATOM     32  C   UNL     1      -5.762  11.512  17.683  0.00  0.00    +0.000 A 
ATOM     33  N   UNL     1      -5.300  11.886  18.908  0.00  0.00    +0.000 N 
ATOM     34  C   UNL     1      -6.108  12.137  20.072  0.00  0.00    +0.000 C 
ENDBRANCH  28  29
ENDBRANCH  26  28
ENDBRANCH  24  26
ENDBRANCH   3  20
TORSDOF 7
ENDMDL
MODEL 3
REMARK VINA RESULT:      -8.5      5.848      8.254
REMARK  Name = 
REMARK  10 active torsions:
REMARK  status: ('A' for Active; 'I' for Inactive)
REMARK    1  A    between atoms: C_1  and  O_2
REMARK    2  A    between atoms: O_2  and  C_3
REMARK    3  A    between atoms: C_7  and  C_9
REMARK    4  A    between atoms: C_13  and  C_14
REMARK    5  A    between atoms: N_16  and  C_17
REMARK    6  A    between atoms: C_21  and  C_22
REMARK    7  A    between atoms: C_22  and  C_23
REMARK    8  A    between atoms: C_22  and  S_24
REMARK    9  A    between atoms: S_24  and  C_25
REMARK   10  A    between atoms: N_29  and  C_30
REMARK                            x       y       z     vdW  Elec       q    Type
REMARK                         _______ _______ _______ _____ _____    ______ ____
ROOT
ATOM      1  C   UNL     1       7.842   7.680  18.025  0.00  0.00    +0.000 C 
ATOM      2  O   UNL     1       8.576   7.175  18.876  0.00  0.00    +0.000 OA
ATOM      3  N   UNL     1       7.775   9.019  17.678  0.00  0.00    +0.000 N 
ATOM      4  H   UNL     1       7.017   9.269  17.046  0.00  0.00    +0.000 HD
ENDROOT
BRANCH   1   9
ATOM      5  C   UNL     1       4.701   5.835  17.077  0.00  0.00    +0.000 A 
ATOM      6  C   UNL     1       5.144   5.279  15.883  0.00  0.00    +0.000 A 
ATOM      7  C   UNL     1       6.471   5.413  15.526  0.00  0.00    +0.000 A 
ATOM      8  N   UNL     1       7.358   6.150  16.216  0.00  0.00    +0.000 NA
ATOM      9  C   UNL     1       6.874   6.790  17.313  0.00  0.00    +0.000 A 
ATOM     10  C   UNL     1       5.569   6.666  17.783  0.00  0.00    +0.000 A 
BRANCH   5  15
ATOM     11  C   UNL     1       1.419   2.634  18.769  0.00  0.00    +0.000 C 
ATOM     12  C   UNL     1       2.457   2.052  17.816  0.00  0.00    +0.000 C 
ATOM     13  C   UNL     1       3.597   3.043  17.943  0.00  0.00    +0.000 C 
ATOM     14  N   UNL     1       2.903   4.324  17.947  0.00  0.00    +0.000 N 
ATOM     15  C   UNL     1       3.330   5.612  17.625  0.00  0.00    +0.000 C 
ATOM     16  O   UNL     1       2.624   6.594  17.825  0.00  0.00    +0.000 OA
ATOM     17  C   UNL     1       1.644   4.158  18.663  0.00  0.00    +0.000 C 
BRANCH  11  19
ATOM     18  C   UNL     1       1.429   3.029  21.110  0.00  0.00    +0.000 C 
ATOM     19  O   UNL     1       1.722   2.110  20.066  0.00  0.00    +0.000 OA
ENDBRANCH  11  19
ENDBRANCH   5  15
ENDBRANCH   1   9
BRANCH   3  20
ATOM     20  C   UNL     1       8.542  10.057  18.267  0.00  0.00    +0.000 A 
ATOM     21  C   UNL     1       9.265   9.842  19.437  0.00  0.00    +0.000 A 
ATOM     22  C   UNL     1       9.985  10.882  20.028  0.00  0.00    +0.000 A 
ATOM     23  C   UNL     1       9.951  12.160  19.473  0.00  0.00    +0.000 A 
ATOM     24  C   UNL     1       9.211  12.416  18.306  0.00  0.00    +0.000 A 
ATOM     25  C   UNL     1       8.556  11.330  17.679  0.00  0.00    +0.000 A 
BRANCH  24  26
ATOM     26  C   UNL     1       9.092  13.831  17.742  0.00  0.00    +0.000 C 
ATOM     27  C   UNL     1      10.100  14.793  18.391  0.00  0.00    +0.000 C 
BRANCH  26  28
ATOM     28  S   UNL     1       7.458  14.608  18.031  0.00  0.00    +0.000 S 
BRANCH  28  29
ATOM     29  C   UNL     1       7.512  15.130  19.669  0.00  0.00    +0.000 A 
ATOM     30  N   UNL     1       7.392  14.393  20.751  0.00  0.00    +0.000 NA
ATOM     31  N   UNL     1       7.318  15.253  21.831  0.00  0.00    +0.000 NA
ATOM     32  C   UNL     1       7.385  16.483  21.371  0.00  0.00    +0.000 A 
ATOM     33  N   UNL     1       7.529  16.450  20.018  0.00  0.00    +0.000 N 
ATOM     34  C   UNL     1       7.708  17.592  19.162  0.00  0.00    +0.000 C 
ENDBRANCH  28  29
ENDBRANCH  26  28
ENDBRANCH  24  26
ENDBRANCH   3  20
TORSDOF 7
ENDMDL
MODEL 4
REMARK VINA RESULT:      -8.5      7.078      9.408
REMARK  Name = 
REMARK  10 active torsions:
REMARK  status: ('A' for Active; 'I' for Inactive)
REMARK    1  A    between atoms: C_1  and  O_2
REMARK    2  A    between atoms: O_2  and  C_3
REMARK    3  A    between atoms: C_7  and  C_9
REMARK    4  A    between atoms: C_13  and  C_14
REMARK    5  A    between atoms: N_16  and  C_17
REMARK    6  A    between atoms: C_21  and  C_22
REMARK    7  A    between atoms: C_22  and  C_23
REMARK    8  A    between atoms: C_22  and  S_24
REMARK    9  A    between atoms: S_24  and  C_25
REMARK   10  A    between atoms: N_29  and  C_30
REMARK                            x       y       z     vdW  Elec       q    Type
REMARK                         _______ _______ _______ _____ _____    ______ ____
ROOT
ATOM      1  C   UNL     1       7.898   7.605  18.037  0.00  0.00    +0.000 C 
ATOM      2  O   UNL     1       8.614   7.081  18.891  0.00  0.00    +0.000 OA
ATOM      3  N   UNL     1       7.857   8.948  17.701  0.00  0.00    +0.000 N 
ATOM      4  H   UNL     1       7.110   9.216  17.064  0.00  0.00    +0.000 HD
ENDROOT
BRANCH   1   9
ATOM      5  C   UNL     1       4.749   5.789  17.062  0.00  0.00    +0.000 A 
ATOM      6  C   UNL     1       5.181   5.271  15.846  0.00  0.00    +0.000 A 
ATOM      7  C   UNL     1       6.504   5.417  15.481  0.00  0.00    +0.000 A 
ATOM      8  N   UNL     1       7.398   6.133  16.185  0.00  0.00    +0.000 NA
ATOM      9  C   UNL     1       6.924   6.737  17.307  0.00  0.00    +0.000 A 
ATOM     10  C   UNL     1       5.623   6.598  17.785  0.00  0.00    +0.000 A 
BRANCH   5  15
ATOM     11  C   UNL     1       1.539   2.552  18.822  0.00  0.00    +0.000 C 
ATOM     12  C   UNL     1       2.588   1.974  17.880  0.00  0.00    +0.000 C 
ATOM     13  C   UNL     1       3.707   2.992  17.986  0.00  0.00    +0.000 C 
ATOM     14  N   UNL     1       2.985   4.257  17.965  0.00  0.00    +0.000 N 
ATOM     15  C   UNL     1       3.384   5.547  17.616  0.00  0.00    +0.000 C 
ATOM     16  O   UNL     1       2.656   6.518  17.796  0.00  0.00    +0.000 OA
ATOM     17  C   UNL     1       1.730   4.079  18.685  0.00  0.00    +0.000 C 
BRANCH  11  19
ATOM     18  C   UNL     1       1.717   3.057  21.135  0.00  0.00    +0.000 C 
ATOM     19  O   UNL     1       1.854   2.062  20.129  0.00  0.00    +0.000 OA
ENDBRANCH  11  19
ENDBRANCH   5  15
ENDBRANCH   1   9
BRANCH   3  20
ATOM     20  C   UNL     1       8.634   9.968  18.309  0.00  0.00    +0.000 A 
ATOM     21  C   UNL     1       9.059   9.859  19.630  0.00  0.00    +0.000 A 
ATOM     22  C   UNL     1       9.790  10.887  20.227  0.00  0.00    +0.000 A 
ATOM     23  C   UNL     1      10.066  12.054  19.517  0.00  0.00    +0.000 A 
ATOM     24  C   UNL     1       9.630  12.206  18.189  0.00  0.00    +0.000 A 
ATOM     25  C   UNL     1       8.961  11.120  17.577  0.00  0.00    +0.000 A 
BRANCH  24  26
ATOM     26  C   UNL     1       9.847  13.516  17.433  0.00  0.00    +0.000 C 
ATOM     27  C   UNL     1      11.339  13.815  17.220  0.00  0.00    +0.000 C 
BRANCH  26  28
ATOM     28  S   UNL     1       9.199  14.990  18.308  0.00  0.00    +0.000 S 
BRANCH  28  29
ATOM     29  C   UNL     1      10.443  16.167  18.150  0.00  0.00    +0.000 A 
ATOM     30  N   UNL     1      10.682  16.949  17.121  0.00  0.00    +0.000 NA
ATOM     31  N   UNL     1      11.879  17.598  17.363  0.00  0.00    +0.000 NA
ATOM     32  C   UNL     1      12.333  17.182  18.525  0.00  0.00    +0.000 A 
ATOM     33  N   UNL     1      11.449  16.297  19.063  0.00  0.00    +0.000 N 
ATOM     34  C   UNL     1      11.561  15.678  20.357  0.00  0.00    +0.000 C 
ENDBRANCH  28  29
ENDBRANCH  26  28
ENDBRANCH  24  26
ENDBRANCH   3  20
TORSDOF 7
ENDMDL
MODEL 5
REMARK VINA RESULT:      -8.3      3.414     10.405
REMARK  Name = 
REMARK  10 active torsions:
REMARK  status: ('A' for Active; 'I' for Inactive)
REMARK    1  A    between atoms: C_1  and  O_2
REMARK    2  A    between atoms: O_2  and  C_3
REMARK    3  A    between atoms: C_7  and  C_9
REMARK    4  A    between atoms: C_13  and  C_14
REMARK    5  A    between atoms: N_16  and  C_17
REMARK    6  A    between atoms: C_21  and  C_22
REMARK    7  A    between atoms: C_22  and  C_23
REMARK    8  A    between atoms: C_22  and  S_24
REMARK    9  A    between atoms: S_24  and  C_25
REMARK   10  A    between atoms: N_29  and  C_30
REMARK                            x       y       z     vdW  Elec       q    Type
REMARK                         _______ _______ _______ _____ _____    ______ ____
ROOT
ATOM      1  C   UNL     1       1.605   8.959  18.956  0.00  0.00    +0.000 C 
ATOM      2  O   UNL     1       1.729   8.794  17.741  0.00  0.00    +0.000 OA
ATOM      3  N   UNL     1       1.824   8.015  19.946  0.00  0.00    +0.000 N 
ATOM      4  H   UNL     1       1.545   8.293  20.884  0.00  0.00    +0.000 HD
ENDROOT
BRANCH   1   9
ATOM      5  C   UNL     1      -0.043  11.629  21.033  0.00  0.00    +0.000 A 
ATOM      6  C   UNL     1       0.401  12.740  20.325  0.00  0.00    +0.000 A 
ATOM      7  C   UNL     1       1.085  12.558  19.140  0.00  0.00    +0.000 A 
ATOM      8  N   UNL     1       1.451  11.354  18.668  0.00  0.00    +0.000 NA
ATOM      9  C   UNL     1       1.117  10.286  19.439  0.00  0.00    +0.000 A 
ATOM     10  C   UNL     1       0.377  10.368  20.617  0.00  0.00    +0.000 A 
BRANCH   5  15
ATOM     11  C   UNL     1      -4.341  13.033  22.886  0.00  0.00    +0.000 C 
ATOM     12  C   UNL     1      -3.892  13.798  21.647  0.00  0.00    +0.000 C 
ATOM     13  C   UNL     1      -2.932  12.819  20.999  0.00  0.00    +0.000 C 
ATOM     14  N   UNL     1      -2.184  12.308  22.140  0.00  0.00    +0.000 N 
ATOM     15  C   UNL     1      -0.922  11.723  22.236  0.00  0.00    +0.000 C 
ATOM     16  O   UNL     1      -0.518  11.229  23.284  0.00  0.00    +0.000 OA
ATOM     17  C   UNL     1      -3.095  12.207  23.274  0.00  0.00    +0.000 C 
BRANCH  11  19
ATOM     18  C   UNL     1      -6.611  12.986  22.190  0.00  0.00    +0.000 C 
ATOM     19  O   UNL     1      -5.449  12.222  22.482  0.00  0.00    +0.000 OA
ENDBRANCH  11  19
ENDBRANCH   5  15
ENDBRANCH   1   9
BRANCH   3  20
ATOM     20  C   UNL     1       2.219   6.671  19.722  0.00  0.00    +0.000 A 
ATOM     21  C   UNL     1       1.929   5.672  20.647  0.00  0.00    +0.000 A 
ATOM     22  C   UNL     1       2.357   4.361  20.433  0.00  0.00    +0.000 A 
ATOM     23  C   UNL     1       3.117   4.047  19.308  0.00  0.00    +0.000 A 
ATOM     24  C   UNL     1       3.447   5.037  18.367  0.00  0.00    +0.000 A 
ATOM     25  C   UNL     1       2.936   6.342  18.562  0.00  0.00    +0.000 A 
BRANCH  24  26
ATOM     26  C   UNL     1       4.357   4.724  17.179  0.00  0.00    +0.000 C 
ATOM     27  C   UNL     1       3.946   3.424  16.470  0.00  0.00    +0.000 C 
BRANCH  26  28
ATOM     28  S   UNL     1       6.112   4.467  17.640  0.00  0.00    +0.000 S 
BRANCH  28  29
ATOM     29  C   UNL     1       6.788   6.048  17.663  0.00  0.00    +0.000 A 
ATOM     30  N   UNL     1       6.663   6.988  16.753  0.00  0.00    +0.000 NA
ATOM     31  N   UNL     1       7.517   8.018  17.103  0.00  0.00    +0.000 NA
ATOM     32  C   UNL     1       8.139   7.667  18.207  0.00  0.00    +0.000 A 
ATOM     33  N   UNL     1       7.694   6.444  18.605  0.00  0.00    +0.000 N 
ATOM     34  C   UNL     1       8.085   5.756  19.806  0.00  0.00    +0.000 C 
ENDBRANCH  28  29
ENDBRANCH  26  28
ENDBRANCH  24  26
ENDBRANCH   3  20
TORSDOF 7
ENDMDL
MODEL 6
REMARK VINA RESULT:      -8.3      3.630     10.491
REMARK  Name = 
REMARK  10 active torsions:
REMARK  status: ('A' for Active; 'I' for Inactive)
REMARK    1  A    between atoms: C_1  and  O_2
REMARK    2  A    between atoms: O_2  and  C_3
REMARK    3  A    between atoms: C_7  and  C_9
REMARK    4  A    between atoms: C_13  and  C_14
REMARK    5  A    between atoms: N_16  and  C_17
REMARK    6  A    between atoms: C_21  and  C_22
REMARK    7  A    between atoms: C_22  and  C_23
REMARK    8  A    between atoms: C_22  and  S_24
REMARK    9  A    between atoms: S_24  and  C_25
REMARK   10  A    between atoms: N_29  and  C_30
REMARK                            x       y       z     vdW  Elec       q    Type
REMARK                         _______ _______ _______ _____ _____    ______ ____
ROOT
ATOM      1  C   UNL     1       1.738   7.630  19.653  0.00  0.00    +0.000 C 
ATOM      2  O   UNL     1       1.766   6.895  20.642  0.00  0.00    +0.000 OA
ATOM      3  N   UNL     1       2.136   7.303  18.367  0.00  0.00    +0.000 N 
ATOM      4  H   UNL     1       2.163   8.078  17.709  0.00  0.00    +0.000 HD
ENDROOT
BRANCH   1   9
ATOM      5  C   UNL     1       0.195  10.732  21.123  0.00  0.00    +0.000 A 
ATOM      6  C   UNL     1       0.625  11.645  20.167  0.00  0.00    +0.000 A 
ATOM      7  C   UNL     1       1.264  11.186  19.032  0.00  0.00    +0.000 A 
ATOM      8  N   UNL     1       1.599   9.900  18.834  0.00  0.00    +0.000 NA
ATOM      9  C   UNL     1       1.282   9.041  19.839  0.00  0.00    +0.000 A 
ATOM     10  C   UNL     1       0.587   9.402  20.990  0.00  0.00    +0.000 A 
BRANCH   5  15
ATOM     11  C   UNL     1      -3.751  13.092  22.779  0.00  0.00    +0.000 C 
ATOM     12  C   UNL     1      -3.182  13.625  21.469  0.00  0.00    +0.000 C 
ATOM     13  C   UNL     1      -2.425  12.424  20.938  0.00  0.00    +0.000 C 
ATOM     14  N   UNL     1      -1.772  11.907  22.133  0.00  0.00    +0.000 N 
ATOM     15  C   UNL     1      -0.638  11.113  22.302  0.00  0.00    +0.000 C 
ATOM     16  O   UNL     1      -0.322  10.666  23.399  0.00  0.00    +0.000 OA
ATOM     17  C   UNL     1      -2.674  12.095  23.263  0.00  0.00    +0.000 C 
BRANCH  11  19
ATOM     18  C   UNL     1      -6.066  12.906  23.272  0.00  0.00    +0.000 C 
ATOM     19  O   UNL     1      -4.993  12.461  22.453  0.00  0.00    +0.000 OA
ENDBRANCH  11  19
ENDBRANCH   5  15
ENDBRANCH   1   9
BRANCH   3  20
ATOM     20  C   UNL     1       2.670   6.051  17.969  0.00  0.00    +0.000 A 
ATOM     21  C   UNL     1       2.125   4.856  18.430  0.00  0.00    +0.000 A 
ATOM     22  C   UNL     1       2.684   3.632  18.061  0.00  0.00    +0.000 A 
ATOM     23  C   UNL     1       3.823   3.596  17.259  0.00  0.00    +0.000 A 
ATOM     24  C   UNL     1       4.412   4.785  16.796  0.00  0.00    +0.000 A 
ATOM     25  C   UNL     1       3.783   6.011  17.115  0.00  0.00    +0.000 A 
BRANCH  24  26
ATOM     26  C   UNL     1       5.713   4.761  15.993  0.00  0.00    +0.000 C 
ATOM     27  C   UNL     1       5.795   3.533  15.073  0.00  0.00    +0.000 C 
BRANCH  26  28
ATOM     28  S   UNL     1       7.220   4.664  17.031  0.00  0.00    +0.000 S 
BRANCH  28  29
ATOM     29  C   UNL     1       7.517   6.288  17.513  0.00  0.00    +0.000 A 
ATOM     30  N   UNL     1       7.459   7.369  16.768  0.00  0.00    +0.000 NA
ATOM     31  N   UNL     1       7.948   8.419  17.525  0.00  0.00    +0.000 NA
ATOM     32  C   UNL     1       8.295   7.940  18.699  0.00  0.00    +0.000 A 
ATOM     33  N   UNL     1       8.022   6.608  18.741  0.00  0.00    +0.000 N 
ATOM     34  C   UNL     1       8.197   5.748  19.881  0.00  0.00    +0.000 C 
ENDBRANCH  28  29
ENDBRANCH  26  28
ENDBRANCH  24  26
ENDBRANCH   3  20
TORSDOF 7
ENDMDL
MODEL 7
REMARK VINA RESULT:      -8.2      6.639      8.916
REMARK  Name = 
REMARK  10 active torsions:
REMARK  status: ('A' for Active; 'I' for Inactive)
REMARK    1  A    between atoms: C_1  and  O_2
REMARK    2  A    between atoms: O_2  and  C_3
REMARK    3  A    between atoms: C_7  and  C_9
REMARK    4  A    between atoms: C_13  and  C_14
REMARK    5  A    between atoms: N_16  and  C_17
REMARK    6  A    between atoms: C_21  and  C_22
REMARK    7  A    between atoms: C_22  and  C_23
REMARK    8  A    between atoms: C_22  and  S_24
REMARK    9  A    between atoms: S_24  and  C_25
REMARK   10  A    between atoms: N_29  and  C_30
REMARK                            x       y       z     vdW  Elec       q    Type
REMARK                         _______ _______ _______ _____ _____    ______ ____
ROOT
ATOM      1  C   UNL     1       7.855   7.800  18.047  0.00  0.00    +0.000 C 
ATOM      2  O   UNL     1       8.570   7.322  18.928  0.00  0.00    +0.000 OA
ATOM      3  N   UNL     1       7.790   9.130  17.664  0.00  0.00    +0.000 N 
ATOM      4  H   UNL     1       7.046   9.359  17.008  0.00  0.00    +0.000 HD
ENDROOT
BRANCH   1   9
ATOM      5  C   UNL     1       4.754   5.898  17.084  0.00  0.00    +0.000 A 
ATOM      6  C   UNL     1       5.221   5.332  15.903  0.00  0.00    +0.000 A 
ATOM      7  C   UNL     1       6.550   5.480  15.562  0.00  0.00    +0.000 A 
ATOM      8  N   UNL     1       7.417   6.239  16.253  0.00  0.00    +0.000 NA
ATOM      9  C   UNL     1       6.909   6.887  17.335  0.00  0.00    +0.000 A 
ATOM     10  C   UNL     1       5.600   6.750  17.789  0.00  0.00    +0.000 A 
BRANCH   5  15
ATOM     11  C   UNL     1       1.468   2.661  18.698  0.00  0.00    +0.000 C 
ATOM     12  C   UNL     1       2.515   2.097  17.746  0.00  0.00    +0.000 C 
ATOM     13  C   UNL     1       3.651   3.089  17.897  0.00  0.00    +0.000 C 
ATOM     14  N   UNL     1       2.953   4.368  17.915  0.00  0.00    +0.000 N 
ATOM     15  C   UNL     1       3.379   5.662  17.617  0.00  0.00    +0.000 C 
ATOM     16  O   UNL     1       2.667   6.639  17.825  0.00  0.00    +0.000 OA
ATOM     17  C   UNL     1       1.689   4.187  18.618  0.00  0.00    +0.000 C 
BRANCH  11  19
ATOM     18  C   UNL     1       1.430   3.008  21.047  0.00  0.00    +0.000 C 
ATOM     19  O   UNL     1       1.762   2.118  19.990  0.00  0.00    +0.000 OA
ENDBRANCH  11  19
ENDBRANCH   5  15
ENDBRANCH   1   9
BRANCH   3  20
ATOM     20  C   UNL     1       8.536  10.187  18.245  0.00  0.00    +0.000 A 
ATOM     21  C   UNL     1       9.590   9.929  19.118  0.00  0.00    +0.000 A 
ATOM     22  C   UNL     1      10.291  10.978  19.713  0.00  0.00    +0.000 A 
ATOM     23  C   UNL     1       9.915  12.298  19.471  0.00  0.00    +0.000 A 
ATOM     24  C   UNL     1       8.840  12.592  18.614  0.00  0.00    +0.000 A 
ATOM     25  C   UNL     1       8.195  11.517  17.959  0.00  0.00    +0.000 A 
BRANCH  24  26
ATOM     26  C   UNL     1       8.361  14.030  18.415  0.00  0.00    +0.000 C 
ATOM     27  C   UNL     1       7.174  14.108  17.442  0.00  0.00    +0.000 C 
BRANCH  26  28
ATOM     28  S   UNL     1       9.628  15.138  17.690  0.00  0.00    +0.000 S 
BRANCH  28  29
ATOM     29  C   UNL     1       9.308  16.675  18.391  0.00  0.00    +0.000 A 
ATOM     30  N   UNL     1       8.202  17.381  18.308  0.00  0.00    +0.000 NA
ATOM     31  N   UNL     1       8.459  18.619  18.868  0.00  0.00    +0.000 NA
ATOM     32  C   UNL     1       9.713  18.629  19.264  0.00  0.00    +0.000 A 
ATOM     33  N   UNL     1      10.277  17.419  19.002  0.00  0.00    +0.000 N 
ATOM     34  C   UNL     1      11.613  17.019  19.354  0.00  0.00    +0.000 C 
ENDBRANCH  28  29
ENDBRANCH  26  28
ENDBRANCH  24  26
ENDBRANCH   3  20
TORSDOF 7
ENDMDL
MODEL 8
REMARK VINA RESULT:      -8.1      1.536      1.801
REMARK  Name = 
REMARK  10 active torsions:
REMARK  status: ('A' for Active; 'I' for Inactive)
REMARK    1  A    between atoms: C_1  and  O_2
REMARK    2  A    between atoms: O_2  and  C_3
REMARK    3  A    between atoms: C_7  and  C_9
REMARK    4  A    between atoms: C_13  and  C_14
REMARK    5  A    between atoms: N_16  and  C_17
REMARK    6  A    between atoms: C_21  and  C_22
REMARK    7  A    between atoms: C_22  and  C_23
REMARK    8  A    between atoms: C_22  and  S_24
REMARK    9  A    between atoms: S_24  and  C_25
REMARK   10  A    between atoms: N_29  and  C_30
REMARK                            x       y       z     vdW  Elec       q    Type
REMARK                         _______ _______ _______ _____ _____    ______ ____
ROOT
ATOM      1  C   UNL     1       1.798   6.114  20.108  0.00  0.00    +0.000 C 
ATOM      2  O   UNL     1       1.066   5.808  21.050  0.00  0.00    +0.000 OA
ATOM      3  N   UNL     1       2.023   7.388  19.613  0.00  0.00    +0.000 N 
ATOM      4  H   UNL     1       2.557   7.433  18.748  0.00  0.00    +0.000 HD
ENDROOT
BRANCH   1   9
ATOM      5  C   UNL     1       4.420   4.098  18.312  0.00  0.00    +0.000 A 
ATOM      6  C   UNL     1       3.702   2.917  18.162  0.00  0.00    +0.000 A 
ATOM      7  C   UNL     1       2.368   2.887  18.519  0.00  0.00    +0.000 A 
ATOM      8  N   UNL     1       1.732   3.911  19.113  0.00  0.00    +0.000 NA
ATOM      9  C   UNL     1       2.486   5.013  19.366  0.00  0.00    +0.000 A 
ATOM     10  C   UNL     1       3.819   5.157  18.989  0.00  0.00    +0.000 A 
BRANCH   5  15
ATOM     11  C   UNL     1       7.387   4.461  14.445  0.00  0.00    +0.000 C 
ATOM     12  C   UNL     1       6.096   3.689  14.198  0.00  0.00    +0.000 C 
ATOM     13  C   UNL     1       5.188   4.229  15.286  0.00  0.00    +0.000 C 
ATOM     14  N   UNL     1       6.075   4.281  16.441  0.00  0.00    +0.000 N 
ATOM     15  C   UNL     1       5.815   4.276  17.811  0.00  0.00    +0.000 C 
ATOM     16  O   UNL     1       6.703   4.465  18.636  0.00  0.00    +0.000 OA
ATOM     17  C   UNL     1       7.405   4.656  15.977  0.00  0.00    +0.000 C 
BRANCH  11  19
ATOM     18  C   UNL     1       8.155   5.769  12.618  0.00  0.00    +0.000 C 
ATOM     19  O   UNL     1       7.266   5.692  13.725  0.00  0.00    +0.000 OA
ENDBRANCH  11  19
ENDBRANCH   5  15
ENDBRANCH   1   9
BRANCH   3  20
ATOM     20  C   UNL     1       1.424   8.575  20.107  0.00  0.00    +0.000 A 
ATOM     21  C   UNL     1       1.297   8.803  21.475  0.00  0.00    +0.000 A 
ATOM     22  C   UNL     1       0.671   9.958  21.946  0.00  0.00    +0.000 A 
ATOM     23  C   UNL     1       0.127  10.875  21.050  0.00  0.00    +0.000 A 
ATOM     24  C   UNL     1       0.217  10.663  19.663  0.00  0.00    +0.000 A 
ATOM     25  C   UNL     1       0.926   9.528  19.205  0.00  0.00    +0.000 A 
BRANCH  24  26
ATOM     26  C   UNL     1      -0.457  11.615  18.674  0.00  0.00    +0.000 C 
ATOM     27  C   UNL     1      -0.091  13.082  18.952  0.00  0.00    +0.000 C 
BRANCH  26  28
ATOM     28  S   UNL     1      -2.288  11.573  18.738  0.00  0.00    +0.000 S 
BRANCH  28  29
ATOM     29  C   UNL     1      -2.753  10.823  17.262  0.00  0.00    +0.000 A 
ATOM     30  N   UNL     1      -2.041  10.007  16.517  0.00  0.00    +0.000 NA
ATOM     31  N   UNL     1      -2.744   9.799  15.344  0.00  0.00    +0.000 NA
ATOM     32  C   UNL     1      -3.853  10.501  15.410  0.00  0.00    +0.000 A 
ATOM     33  N   UNL     1      -3.908  11.143  16.609  0.00  0.00    +0.000 N 
ATOM     34  C   UNL     1      -5.001  11.952  17.081  0.00  0.00    +0.000 C 
ENDBRANCH  28  29
ENDBRANCH  26  28
ENDBRANCH  24  26
ENDBRANCH   3  20
TORSDOF 7
ENDMDL
MODEL 9
REMARK VINA RESULT:      -8.1      3.459     10.243
REMARK  Name = 
REMARK  10 active torsions:
REMARK  status: ('A' for Active; 'I' for Inactive)
REMARK    1  A    between atoms: C_1  and  O_2
REMARK    2  A    between atoms: O_2  and  C_3
REMARK    3  A    between atoms: C_7  and  C_9
REMARK    4  A    between atoms: C_13  and  C_14
REMARK    5  A    between atoms: N_16  and  C_17
REMARK    6  A    between atoms: C_21  and  C_22
REMARK    7  A    between atoms: C_22  and  C_23
REMARK    8  A    between atoms: C_22  and  S_24
REMARK    9  A    between atoms: S_24  and  C_25
REMARK   10  A    between atoms: N_29  and  C_30
REMARK                            x       y       z     vdW  Elec       q    Type
REMARK                         _______ _______ _______ _____ _____    ______ ____
ROOT
ATOM      1  C   UNL     1       1.653   8.114  19.387  0.00  0.00    +0.000 C 
ATOM      2  O   UNL     1       1.784   8.585  18.255  0.00  0.00    +0.000 OA
ATOM      3  N   UNL     1       1.951   6.821  19.785  0.00  0.00    +0.000 N 
ATOM      4  H   UNL     1       1.655   6.576  20.728  0.00  0.00    +0.000 HD
ENDROOT
BRANCH   1   9
ATOM      5  C   UNL     1      -0.235  10.871  21.117  0.00  0.00    +0.000 A 
ATOM      6  C   UNL     1      -0.087  10.428  22.427  0.00  0.00    +0.000 A 
ATOM      7  C   UNL     1       0.732   9.348  22.686  0.00  0.00    +0.000 A 
ATOM      8  N   UNL     1       1.325   8.614  21.729  0.00  0.00    +0.000 NA
ATOM      9  C   UNL     1       1.065   8.987  20.448  0.00  0.00    +0.000 A 
ATOM     10  C   UNL     1       0.302  10.096  20.092  0.00  0.00    +0.000 A 
BRANCH   5  15
ATOM     11  C   UNL     1      -0.091  15.731  20.623  0.00  0.00    +0.000 C 
ATOM     12  C   UNL     1       0.905  15.154  21.622  0.00  0.00    +0.000 C 
ATOM     13  C   UNL     1       1.043  13.722  21.143  0.00  0.00    +0.000 C 
ATOM     14  N   UNL     1      -0.333  13.358  20.834  0.00  0.00    +0.000 N 
ATOM     15  C   UNL     1      -0.970  12.120  20.754  0.00  0.00    +0.000 C 
ATOM     16  O   UNL     1      -2.119  12.011  20.341  0.00  0.00    +0.000 OA
ATOM     17  C   UNL     1      -1.002  14.531  20.285  0.00  0.00    +0.000 C 
BRANCH  11  19
ATOM     18  C   UNL     1      -0.124  16.807  18.507  0.00  0.00    +0.000 C 
ATOM     19  O   UNL     1       0.676  16.186  19.504  0.00  0.00    +0.000 OA
ENDBRANCH  11  19
ENDBRANCH   5  15
ENDBRANCH   1   9
BRANCH   3  20
ATOM     20  C   UNL     1       2.448   5.798  18.938  0.00  0.00    +0.000 A 
ATOM     21  C   UNL     1       1.906   4.516  18.963  0.00  0.00    +0.000 A 
ATOM     22  C   UNL     1       2.429   3.508  18.152  0.00  0.00    +0.000 A 
ATOM     23  C   UNL     1       3.532   3.765  17.339  0.00  0.00    +0.000 A 
ATOM     24  C   UNL     1       4.118   5.043  17.309  0.00  0.00    +0.000 A 
ATOM     25  C   UNL     1       3.521   6.070  18.077  0.00  0.00    +0.000 A 
BRANCH  24  26
ATOM     26  C   UNL     1       5.382   5.311  16.492  0.00  0.00    +0.000 C 
ATOM     27  C   UNL     1       5.159   6.403  15.434  0.00  0.00    +0.000 C 
BRANCH  26  28
ATOM     28  S   UNL     1       5.971   3.858  15.543  0.00  0.00    +0.000 S 
BRANCH  28  29
ATOM     29  C   UNL     1       6.970   4.524  14.312  0.00  0.00    +0.000 A 
ATOM     30  N   UNL     1       7.902   5.442  14.443  0.00  0.00    +0.000 NA
ATOM     31  N   UNL     1       8.315   5.796  13.171  0.00  0.00    +0.000 NA
ATOM     32  C   UNL     1       7.615   5.091  12.310  0.00  0.00    +0.000 A 
ATOM     33  N   UNL     1       6.773   4.263  12.986  0.00  0.00    +0.000 N 
ATOM     34  C   UNL     1       5.897   3.287  12.394  0.00  0.00    +0.000 C 
ENDBRANCH  28  29
ENDBRANCH  26  28
ENDBRANCH  24  26
ENDBRANCH   3  20
TORSDOF 7
ENDMDL
