MODEL 1
REMARK VINA RESULT:      -8.5      0.000      0.000
REMARK  Name = 
REMARK  12 active torsions:
REMARK  status: ('A' for Active; 'I' for Inactive)
REMARK    1  A    between atoms: C_1  and  O_2
REMARK    2  A    between atoms: O_2  and  C_3
REMARK    3  A    between atoms: C_5  and  N_6
REMARK    4  A    between atoms: N_13  and  C_14
REMARK    5  A    between atoms: C_18  and  C_19
REMARK    6  A    between atoms: N_21  and  C_22
REMARK    7  A    between atoms: C_22  and  C_23
REMARK    8  A    between atoms: C_23  and  N_24
REMARK    9  A    between atoms: C_29  and  O_30
REMARK   10  A    between atoms: O_30  and  C_31
REMARK   11  A    between atoms: C_32  and  O_33
REMARK   12  A    between atoms: O_33  and  C_34
REMARK                            x       y       z     vdW  Elec       q    Type
REMARK                         _______ _______ _______ _____ _____    ______ ____
ROOT
ATOM      1  N   UNL     1       2.256   8.194  19.725  0.00  0.00    +0.000 N 
ATOM      2  C   UNL     1       2.231   6.796  19.784  0.00  0.00    +0.000 A 
ATOM      3  N   UNL     1       1.198   6.184  20.394  0.00  0.00    +0.000 NA
ATOM      4  C   UNL     1       1.111   4.846  20.403  0.00  0.00    +0.000 A 
ATOM      5  C   UNL     1       2.095   4.100  19.789  0.00  0.00    +0.000 A 
ATOM      6  C   UNL     1       2.338   2.725  19.606  0.00  0.00    +0.000 A 
ATOM      7  C   UNL     1       3.486   2.611  18.875  0.00  0.00    +0.000 A 
ATOM      8  N   UNL     1       4.002   3.877  18.633  0.00  0.00    +0.000 N 
ATOM      9  C   UNL     1       3.144   4.808  19.208  0.00  0.00    +0.000 A 
ATOM     10  N   UNL     1       3.252   6.158  19.184  0.00  0.00    +0.000 NA
ATOM     11  H   UNL     1       3.080   8.509  19.238  0.00  0.00    +0.000 HD
ENDROOT
BRANCH   1  14
ATOM     12  C   UNL     1      -0.094  10.709  21.232  0.00  0.00    +0.000 A 
ATOM     13  C   UNL     1       0.897   9.720  21.101  0.00  0.00    +0.000 A 
ATOM     14  C   UNL     1       1.219   9.126  19.883  0.00  0.00    +0.000 A 
ATOM     15  C   UNL     1       0.443   9.491  18.788  0.00  0.00    +0.000 A 
ATOM     16  C   UNL     1      -0.626  10.401  18.898  0.00  0.00    +0.000 A 
ATOM     17  C   UNL     1      -0.904  11.035  20.129  0.00  0.00    +0.000 A 
BRANCH  12  19
ATOM     18  C   UNL     1      -1.310  10.782  23.263  0.00  0.00    +0.000 C 
ATOM     19  O   UNL     1      -0.267  11.331  22.446  0.00  0.00    +0.000 OA
ENDBRANCH  12  19
BRANCH  16  20
ATOM     20  O   UNL     1      -1.261  10.555  17.689  0.00  0.00    +0.000 OA
ATOM     21  C   UNL     1      -2.464   9.848  17.430  0.00  0.00    +0.000 C 
ENDBRANCH  16  20
BRANCH  17  22
ATOM     22  O   UNL     1      -1.943  11.918  20.112  0.00  0.00    +0.000 OA
ATOM     23  C   UNL     1      -1.750  13.320  20.084  0.00  0.00    +0.000 C 
ENDBRANCH  17  22
ENDBRANCH   1  14
BRANCH   8  24
ATOM     24  C   UNL     1       5.251   4.101  17.981  0.00  0.00    +0.000 A 
ATOM     25  C   UNL     1       6.348   4.544  18.738  0.00  0.00    +0.000 A 
ATOM     26  C   UNL     1       7.540   4.882  18.103  0.00  0.00    +0.000 A 
ATOM     27  C   UNL     1       7.622   4.809  16.714  0.00  0.00    +0.000 A 
ATOM     28  C   UNL     1       6.532   4.379  15.946  0.00  0.00    +0.000 A 
ATOM     29  C   UNL     1       5.346   3.983  16.589  0.00  0.00    +0.000 A 
BRANCH  28  30
ATOM     30  C   UNL     1       6.675   4.443  14.461  0.00  0.00    +0.000 C 
ATOM     31  O   UNL     1       7.186   5.434  13.945  0.00  0.00    +0.000 OA
ATOM     32  N   UNL     1       6.193   3.395  13.709  0.00  0.00    +0.000 N 
ATOM     33  H   UNL     1       5.855   2.544  14.130  0.00  0.00    +0.000 HD
BRANCH  32  34
ATOM     34  C   UNL     1       6.260   3.417  12.257  0.00  0.00    +0.000 C 
BRANCH  34  35
ATOM     35  C   UNL     1       5.273   2.434  11.618  0.00  0.00    +0.000 C 
BRANCH  35  36
ATOM     36  N   UNL     1       4.025   3.098  11.217  0.00  0.00    +0.000 NA
ATOM     37  H   UNL     1       3.629   2.580  10.432  0.00  0.00    +0.000 HD
ATOM     38  H   UNL     1       4.252   4.023  10.852  0.00  0.00    +0.000 HD
ENDBRANCH  35  36
ENDBRANCH  34  35
ENDBRANCH  32  34
ENDBRANCH  28  30
ENDBRANCH   8  24
TORSDOF 9
ENDMDL
MODEL 2
REMARK VINA RESULT:      -8.4      0.457      2.150
REMARK  Name = 
REMARK  12 active torsions:
REMARK  status: ('A' for Active; 'I' for Inactive)
REMARK    1  A    between atoms: C_1  and  O_2
REMARK    2  A    between atoms: O_2  and  C_3
REMARK    3  A    between atoms: C_5  and  N_6
REMARK    4  A    between atoms: N_13  and  C_14
REMARK    5  A    between atoms: C_18  and  C_19
REMARK    6  A    between atoms: N_21  and  C_22
REMARK    7  A    between atoms: C_22  and  C_23
REMARK    8  A    between atoms: C_23  and  N_24
REMARK    9  A    between atoms: C_29  and  O_30
REMARK   10  A    between atoms: O_30  and  C_31
REMARK   11  A    between atoms: C_32  and  O_33
REMARK   12  A    between atoms: O_33  and  C_34
REMARK                            x       y       z     vdW  Elec       q    Type
REMARK                         _______ _______ _______ _____ _____    ______ ____
ROOT
ATOM      1  N   UNL     1       2.255   8.116  19.807  0.00  0.00    +0.000 N 
ATOM      2  C   UNL     1       2.214   6.718  19.817  0.00  0.00    +0.000 A 
ATOM      3  N   UNL     1       1.177   6.097  20.412  0.00  0.00    +0.000 NA
ATOM      4  C   UNL     1       1.075   4.760  20.375  0.00  0.00    +0.000 A 
ATOM      5  C   UNL     1       2.047   4.025  19.729  0.00  0.00    +0.000 A 
ATOM      6  C   UNL     1       2.271   2.654  19.496  0.00  0.00    +0.000 A 
ATOM      7  C   UNL     1       3.414   2.553  18.754  0.00  0.00    +0.000 A 
ATOM      8  N   UNL     1       3.943   3.821  18.553  0.00  0.00    +0.000 N 
ATOM      9  C   UNL     1       3.100   4.740  19.166  0.00  0.00    +0.000 A 
ATOM     10  N   UNL     1       3.224   6.089  19.189  0.00  0.00    +0.000 NA
ATOM     11  H   UNL     1       3.080   8.438  19.326  0.00  0.00    +0.000 HD
ENDROOT
BRANCH   1  14
ATOM     12  C   UNL     1      -0.555  10.531  19.177  0.00  0.00    +0.000 A 
ATOM     13  C   UNL     1       0.519   9.648  18.964  0.00  0.00    +0.000 A 
ATOM     14  C   UNL     1       1.231   9.054  20.004  0.00  0.00    +0.000 A 
ATOM     15  C   UNL     1       0.889   9.445  21.295  0.00  0.00    +0.000 A 
ATOM     16  C   UNL     1      -0.111  10.404  21.546  0.00  0.00    +0.000 A 
ATOM     17  C   UNL     1      -0.859  10.956  20.483  0.00  0.00    +0.000 A 
BRANCH  12  19
ATOM     18  C   UNL     1      -1.731   9.950  17.205  0.00  0.00    +0.000 C 
ATOM     19  O   UNL     1      -1.281  10.978  18.099  0.00  0.00    +0.000 OA
ENDBRANCH  12  19
BRANCH  16  20
ATOM     20  O   UNL     1      -0.223  10.649  22.894  0.00  0.00    +0.000 OA
ATOM     21  C   UNL     1      -0.060   9.585  23.819  0.00  0.00    +0.000 C 
ENDBRANCH  16  20
BRANCH  17  22
ATOM     22  O   UNL     1      -1.821  11.852  20.846  0.00  0.00    +0.000 OA
ATOM     23  C   UNL     1      -1.588  13.248  20.880  0.00  0.00    +0.000 C 
ENDBRANCH  17  22
ENDBRANCH   1  14
BRANCH   8  24
ATOM     24  C   UNL     1       5.191   4.053  17.901  0.00  0.00    +0.000 A 
ATOM     25  C   UNL     1       6.287   4.493  18.660  0.00  0.00    +0.000 A 
ATOM     26  C   UNL     1       7.478   4.839  18.026  0.00  0.00    +0.000 A 
ATOM     27  C   UNL     1       7.558   4.776  16.637  0.00  0.00    +0.000 A 
ATOM     28  C   UNL     1       6.468   4.349  15.867  0.00  0.00    +0.000 A 
ATOM     29  C   UNL     1       5.285   3.945  16.509  0.00  0.00    +0.000 A 
BRANCH  28  30
ATOM     30  C   UNL     1       6.610   4.424  14.382  0.00  0.00    +0.000 C 
ATOM     31  O   UNL     1       6.969   5.478  13.862  0.00  0.00    +0.000 OA
ATOM     32  N   UNL     1       6.295   3.311  13.635  0.00  0.00    +0.000 N 
ATOM     33  H   UNL     1       6.086   2.422  14.061  0.00  0.00    +0.000 HD
BRANCH  32  34
ATOM     34  C   UNL     1       6.367   3.334  12.184  0.00  0.00    +0.000 C 
BRANCH  34  35
ATOM     35  C   UNL     1       5.283   2.463  11.538  0.00  0.00    +0.000 C 
BRANCH  35  36
ATOM     36  N   UNL     1       4.024   3.200  11.366  0.00  0.00    +0.000 NA
ATOM     37  H   UNL     1       3.900   3.808  12.175  0.00  0.00    +0.000 HD
ATOM     38  H   UNL     1       3.251   2.534  11.397  0.00  0.00    +0.000 HD
ENDBRANCH  35  36
ENDBRANCH  34  35
ENDBRANCH  32  34
ENDBRANCH  28  30
ENDBRANCH   8  24
TORSDOF 9
ENDMDL
MODEL 3
REMARK VINA RESULT:      -8.0      1.168      2.516
REMARK  Name = 
REMARK  12 active torsions:
REMARK  status: ('A' for Active; 'I' for Inactive)
REMARK    1  A    between atoms: C_1  and  O_2
REMARK    2  A    between atoms: O_2  and  C_3
REMARK    3  A    between atoms: C_5  and  N_6
REMARK    4  A    between atoms: N_13  and  C_14
REMARK    5  A    between atoms: C_18  and  C_19
REMARK    6  A    between atoms: N_21  and  C_22
REMARK    7  A    between atoms: C_22  and  C_23
REMARK    8  A    between atoms: C_23  and  N_24
REMARK    9  A    between atoms: C_29  and  O_30
REMARK   10  A    between atoms: O_30  and  C_31
REMARK   11  A    between atoms: C_32  and  O_33
REMARK   12  A    between atoms: O_33  and  C_34
REMARK                            x       y       z     vdW  Elec       q    Type
REMARK                         _______ _______ _______ _____ _____    ______ ____
ROOT
ATOM      1  N   UNL     1       2.438   8.232  18.747  0.00  0.00    +0.000 N 
ATOM      2  C   UNL     1       2.558   6.851  18.929  0.00  0.00    +0.000 A 
ATOM      3  N   UNL     1       1.791   6.243  19.854  0.00  0.00    +0.000 NA
ATOM      4  C   UNL     1       1.833   4.910  20.001  0.00  0.00    +0.000 A 
ATOM      5  C   UNL     1       2.675   4.168  19.201  0.00  0.00    +0.000 A 
ATOM      6  C   UNL     1       2.982   2.798  19.074  0.00  0.00    +0.000 A 
ATOM      7  C   UNL     1       3.891   2.681  18.061  0.00  0.00    +0.000 A 
ATOM      8  N   UNL     1       4.204   3.944  17.578  0.00  0.00    +0.000 N 
ATOM      9  C   UNL     1       3.456   4.875  18.290  0.00  0.00    +0.000 A 
ATOM     10  N   UNL     1       3.430   6.218  18.123  0.00  0.00    +0.000 NA
ATOM     11  H   UNL     1       3.065   8.546  18.023  0.00  0.00    +0.000 HD
ENDROOT
BRANCH   1  14
ATOM     12  C   UNL     1      -0.573  10.474  18.587  0.00  0.00    +0.000 A 
ATOM     13  C   UNL     1       0.504   9.657  18.200  0.00  0.00    +0.000 A 
ATOM     14  C   UNL     1       1.404   9.109  19.111  0.00  0.00    +0.000 A 
ATOM     15  C   UNL     1       1.249   9.481  20.442  0.00  0.00    +0.000 A 
ATOM     16  C   UNL     1       0.246  10.379  20.855  0.00  0.00    +0.000 A 
ATOM     17  C   UNL     1      -0.692  10.883  19.927  0.00  0.00    +0.000 A 
BRANCH  12  19
ATOM     18  C   UNL     1      -2.362   9.840  17.169  0.00  0.00    +0.000 C 
ATOM     19  O   UNL     1      -1.486  10.874  17.640  0.00  0.00    +0.000 OA
ENDBRANCH  12  19
BRANCH  16  20
ATOM     20  O   UNL     1       0.335  10.620  22.205  0.00  0.00    +0.000 OA
ATOM     21  C   UNL     1      -0.438   9.848  23.110  0.00  0.00    +0.000 C 
ENDBRANCH  16  20
BRANCH  17  22
ATOM     22  O   UNL     1      -1.636  11.721  20.444  0.00  0.00    +0.000 OA
ATOM     23  C   UNL     1      -1.502  13.130  20.414  0.00  0.00    +0.000 C 
ENDBRANCH  17  22
ENDBRANCH   1  14
BRANCH   8  24
ATOM     24  C   UNL     1       5.201   4.177  16.584  0.00  0.00    +0.000 A 
ATOM     25  C   UNL     1       6.266   5.044  16.874  0.00  0.00    +0.000 A 
ATOM     26  C   UNL     1       7.183   5.377  15.880  0.00  0.00    +0.000 A 
ATOM     27  C   UNL     1       7.013   4.869  14.593  0.00  0.00    +0.000 A 
ATOM     28  C   UNL     1       5.949   4.011  14.288  0.00  0.00    +0.000 A 
ATOM     29  C   UNL     1       5.056   3.629  15.304  0.00  0.00    +0.000 A 
BRANCH  28  30
ATOM     30  C   UNL     1       5.783   3.611  12.859  0.00  0.00    +0.000 C 
ATOM     31  O   UNL     1       6.779   3.410  12.168  0.00  0.00    +0.000 OA
ATOM     32  N   UNL     1       4.508   3.514  12.348  0.00  0.00    +0.000 N 
ATOM     33  H   UNL     1       3.690   3.591  12.931  0.00  0.00    +0.000 HD
BRANCH  32  34
ATOM     34  C   UNL     1       4.280   3.174  10.954  0.00  0.00    +0.000 C 
BRANCH  34  35
ATOM     35  C   UNL     1       3.128   3.981  10.343  0.00  0.00    +0.000 C 
BRANCH  35  36
ATOM     36  N   UNL     1       3.139   3.920   8.875  0.00  0.00    +0.000 NA
ATOM     37  H   UNL     1       3.935   3.352   8.588  0.00  0.00    +0.000 HD
ATOM     38  H   UNL     1       3.321   4.856   8.512  0.00  0.00    +0.000 HD
ENDBRANCH  35  36
ENDBRANCH  34  35
ENDBRANCH  32  34
ENDBRANCH  28  30
ENDBRANCH   8  24
TORSDOF 9
ENDMDL
MODEL 4
REMARK VINA RESULT:      -7.8      1.731      2.163
REMARK  Name = 
REMARK  12 active torsions:
REMARK  status: ('A' for Active; 'I' for Inactive)
REMARK    1  A    between atoms: C_1  and  O_2
REMARK    2  A    between atoms: O_2  and  C_3
REMARK    3  A    between atoms: C_5  and  N_6
REMARK    4  A    between atoms: N_13  and  C_14
REMARK    5  A    between atoms: C_18  and  C_19
REMARK    6  A    between atoms: N_21  and  C_22
REMARK    7  A    between atoms: C_22  and  C_23
REMARK    8  A    between atoms: C_23  and  N_24
REMARK    9  A    between atoms: C_29  and  O_30
REMARK   10  A    between atoms: O_30  and  C_31
REMARK   11  A    between atoms: C_32  and  O_33
REMARK   12  A    between atoms: O_33  and  C_34
REMARK                            x       y       z     vdW  Elec       q    Type
REMARK                         _______ _______ _______ _____ _____    ______ ____
ROOT
ATOM      1  N   UNL     1       2.518   8.799  17.947  0.00  0.00    +0.000 N 
ATOM      2  C   UNL     1       2.724   7.496  18.410  0.00  0.00    +0.000 A 
ATOM      3  N   UNL     1       2.020   7.058  19.471  0.00  0.00    +0.000 NA
ATOM      4  C   UNL     1       2.143   5.791  19.892  0.00  0.00    +0.000 A 
ATOM      5  C   UNL     1       3.006   4.940  19.232  0.00  0.00    +0.000 A 
ATOM      6  C   UNL     1       3.389   3.593  19.384  0.00  0.00    +0.000 A 
ATOM      7  C   UNL     1       4.275   3.311  18.383  0.00  0.00    +0.000 A 
ATOM      8  N   UNL     1       4.500   4.458  17.634  0.00  0.00    +0.000 N 
ATOM      9  C   UNL     1       3.718   5.478  18.164  0.00  0.00    +0.000 A 
ATOM     10  N   UNL     1       3.609   6.753  17.720  0.00  0.00    +0.000 NA
ATOM     11  H   UNL     1       3.106   8.985  17.149  0.00  0.00    +0.000 HD
ENDROOT
BRANCH   1  14
ATOM     12  C   UNL     1       0.489  11.773  19.023  0.00  0.00    +0.000 A 
ATOM     13  C   UNL     1       1.553  10.865  18.881  0.00  0.00    +0.000 A 
ATOM     14  C   UNL     1       1.445   9.678  18.159  0.00  0.00    +0.000 A 
ATOM     15  C   UNL     1       0.189   9.373  17.645  0.00  0.00    +0.000 A 
ATOM     16  C   UNL     1      -0.927  10.207  17.854  0.00  0.00    +0.000 A 
ATOM     17  C   UNL     1      -0.788  11.433  18.542  0.00  0.00    +0.000 A 
BRANCH  12  19
ATOM     18  C   UNL     1       1.411  13.949  18.857  0.00  0.00    +0.000 C 
ATOM     19  O   UNL     1       0.713  12.977  19.649  0.00  0.00    +0.000 OA
ENDBRANCH  12  19
BRANCH  16  20
ATOM     20  O   UNL     1      -2.054   9.661  17.288  0.00  0.00    +0.000 OA
ATOM     21  C   UNL     1      -2.549  10.180  16.064  0.00  0.00    +0.000 C 
ENDBRANCH  16  20
BRANCH  17  22
ATOM     22  O   UNL     1      -1.928  12.172  18.659  0.00  0.00    +0.000 OA
ATOM     23  C   UNL     1      -2.590  12.361  19.896  0.00  0.00    +0.000 C 
ENDBRANCH  17  22
ENDBRANCH   1  14
BRANCH   8  24
ATOM     24  C   UNL     1       5.454   4.526  16.575  0.00  0.00    +0.000 A 
ATOM     25  C   UNL     1       6.598   5.325  16.736  0.00  0.00    +0.000 A 
ATOM     26  C   UNL     1       7.479   5.500  15.672  0.00  0.00    +0.000 A 
ATOM     27  C   UNL     1       7.199   4.904  14.445  0.00  0.00    +0.000 A 
ATOM     28  C   UNL     1       6.056   4.113  14.268  0.00  0.00    +0.000 A 
ATOM     29  C   UNL     1       5.195   3.889  15.356  0.00  0.00    +0.000 A 
BRANCH  28  30
ATOM     30  C   UNL     1       5.780   3.611  12.888  0.00  0.00    +0.000 C 
ATOM     31  O   UNL     1       6.719   3.347  12.141  0.00  0.00    +0.000 OA
ATOM     32  N   UNL     1       4.469   3.495  12.483  0.00  0.00    +0.000 N 
ATOM     33  H   UNL     1       3.698   3.625  13.119  0.00  0.00    +0.000 HD
BRANCH  32  34
ATOM     34  C   UNL     1       4.133   3.057  11.139  0.00  0.00    +0.000 C 
BRANCH  34  35
ATOM     35  C   UNL     1       3.309   4.103  10.379  0.00  0.00    +0.000 C 
BRANCH  35  36
ATOM     36  N   UNL     1       2.915   3.624   9.047  0.00  0.00    +0.000 NA
ATOM     37  H   UNL     1       3.757   3.313   8.562  0.00  0.00    +0.000 HD
ATOM     38  H   UNL     1       2.561   4.415   8.509  0.00  0.00    +0.000 HD
ENDBRANCH  35  36
ENDBRANCH  34  35
ENDBRANCH  32  34
ENDBRANCH  28  30
ENDBRANCH   8  24
TORSDOF 9
ENDMDL
MODEL 5
REMARK VINA RESULT:      -7.7      1.079      1.146
REMARK  Name = 
REMARK  12 active torsions:
REMARK  status: ('A' for Active; 'I' for Inactive)
REMARK    1  A    between atoms: C_1  and  O_2
REMARK    2  A    between atoms: O_2  and  C_3
REMARK    3  A    between atoms: C_5  and  N_6
REMARK    4  A    between atoms: N_13  and  C_14
REMARK    5  A    between atoms: C_18  and  C_19
REMARK    6  A    between atoms: N_21  and  C_22
REMARK    7  A    between atoms: C_22  and  C_23
REMARK    8  A    between atoms: C_23  and  N_24
REMARK    9  A    between atoms: C_29  and  O_30
REMARK   10  A    between atoms: O_30  and  C_31
REMARK   11  A    between atoms: C_32  and  O_33
REMARK   12  A    between atoms: O_33  and  C_34
REMARK                            x       y       z     vdW  Elec       q    Type
REMARK                         _______ _______ _______ _____ _____    ______ ____
ROOT
ATOM      1  N   UNL     1       2.171   8.711  19.233  0.00  0.00    +0.000 N 
ATOM      2  C   UNL     1       2.232   7.370  19.625  0.00  0.00    +0.000 A 
ATOM      3  N   UNL     1       1.284   6.883  20.448  0.00  0.00    +0.000 NA
ATOM      4  C   UNL     1       1.277   5.585  20.783  0.00  0.00    +0.000 A 
ATOM      5  C   UNL     1       2.256   4.752  20.284  0.00  0.00    +0.000 A 
ATOM      6  C   UNL     1       2.565   3.384  20.414  0.00  0.00    +0.000 A 
ATOM      7  C   UNL     1       3.662   3.142  19.636  0.00  0.00    +0.000 A 
ATOM      8  N   UNL     1       4.084   4.331  19.058  0.00  0.00    +0.000 N 
ATOM      9  C   UNL     1       3.217   5.339  19.465  0.00  0.00    +0.000 A 
ATOM     10  N   UNL     1       3.243   6.646  19.111  0.00  0.00    +0.000 NA
ATOM     11  H   UNL     1       2.938   8.931  18.618  0.00  0.00    +0.000 HD
ENDROOT
BRANCH   1  14
ATOM     12  C   UNL     1      -0.184  11.450  20.270  0.00  0.00    +0.000 A 
ATOM     13  C   UNL     1       0.853  10.500  20.297  0.00  0.00    +0.000 A 
ATOM     14  C   UNL     1       1.096   9.613  19.251  0.00  0.00    +0.000 A 
ATOM     15  C   UNL     1       0.197   9.640  18.190  0.00  0.00    +0.000 A 
ATOM     16  C   UNL     1      -0.914  10.505  18.173  0.00  0.00    +0.000 A 
ATOM     17  C   UNL     1      -1.114  11.436  19.215  0.00  0.00    +0.000 A 
BRANCH  12  19
ATOM     18  C   UNL     1       0.646  13.462  21.205  0.00  0.00    +0.000 C 
ATOM     19  O   UNL     1      -0.280  12.369  21.288  0.00  0.00    +0.000 OA
ENDBRANCH  12  19
BRANCH  16  20
ATOM     20  O   UNL     1      -1.669  10.304  17.042  0.00  0.00    +0.000 OA
ATOM     21  C   UNL     1      -2.933   9.666  17.145  0.00  0.00    +0.000 C 
ENDBRANCH  16  20
BRANCH  17  22
ATOM     22  O   UNL     1      -2.206  12.243  19.079  0.00  0.00    +0.000 OA
ATOM     23  C   UNL     1      -3.203  12.350  20.078  0.00  0.00    +0.000 C 
ENDBRANCH  17  22
ENDBRANCH   1  14
BRANCH   8  24
ATOM     24  C   UNL     1       5.267   4.440  18.268  0.00  0.00    +0.000 A 
ATOM     25  C   UNL     1       6.469   4.823  18.886  0.00  0.00    +0.000 A 
ATOM     26  C   UNL     1       7.606   5.050  18.115  0.00  0.00    +0.000 A 
ATOM     27  C   UNL     1       7.531   4.927  16.729  0.00  0.00    +0.000 A 
ATOM     28  C   UNL     1       6.335   4.556  16.099  0.00  0.00    +0.000 A 
ATOM     29  C   UNL     1       5.202   4.271  16.880  0.00  0.00    +0.000 A 
BRANCH  28  30
ATOM     30  C   UNL     1       6.320   4.562  14.606  0.00  0.00    +0.000 C 
ATOM     31  O   UNL     1       7.001   5.385  13.998  0.00  0.00    +0.000 OA
ATOM     32  N   UNL     1       5.509   3.661  13.954  0.00  0.00    +0.000 N 
ATOM     33  H   UNL     1       5.019   2.929  14.443  0.00  0.00    +0.000 HD
BRANCH  32  34
ATOM     34  C   UNL     1       5.414   3.646  12.504  0.00  0.00    +0.000 C 
BRANCH  34  35
ATOM     35  C   UNL     1       6.483   2.752  11.865  0.00  0.00    +0.000 C 
BRANCH  35  36
ATOM     36  N   UNL     1       5.946   1.433  11.503  0.00  0.00    +0.000 NA
ATOM     37  H   UNL     1       6.108   1.288  10.507  0.00  0.00    +0.000 HD
ATOM     38  H   UNL     1       4.933   1.452  11.620  0.00  0.00    +0.000 HD
ENDBRANCH  35  36
ENDBRANCH  34  35
ENDBRANCH  32  34
ENDBRANCH  28  30
ENDBRANCH   8  24
TORSDOF 9
ENDMDL
MODEL 6
REMARK VINA RESULT:      -7.6      1.032      1.172
REMARK  Name = 
REMARK  12 active torsions:
REMARK  status: ('A' for Active; 'I' for Inactive)
REMARK    1  A    between atoms: C_1  and  O_2
REMARK    2  A    between atoms: O_2  and  C_3
REMARK    3  A    between atoms: C_5  and  N_6
REMARK    4  A    between atoms: N_13  and  C_14
REMARK    5  A    between atoms: C_18  and  C_19
REMARK    6  A    between atoms: N_21  and  C_22
REMARK    7  A    between atoms: C_22  and  C_23
REMARK    8  A    between atoms: C_23  and  N_24
REMARK    9  A    between atoms: C_29  and  O_30
REMARK   10  A    between atoms: O_30  and  C_31
REMARK   11  A    between atoms: C_32  and  O_33
REMARK   12  A    between atoms: O_33  and  C_34
REMARK                            x       y       z     vdW  Elec       q    Type
REMARK                         _______ _______ _______ _____ _____    ______ ____
ROOT
ATOM      1  N   UNL     1       2.344   8.021  20.116  0.00  0.00    +0.000 N 
ATOM      2  C   UNL     1       2.261   6.628  20.025  0.00  0.00    +0.000 A 
ATOM      3  N   UNL     1       1.201   5.997  20.564  0.00  0.00    +0.000 NA
ATOM      4  C   UNL     1       1.060   4.670  20.430  0.00  0.00    +0.000 A 
ATOM      5  C   UNL     1       2.016   3.955  19.740  0.00  0.00    +0.000 A 
ATOM      6  C   UNL     1       2.203   2.598  19.411  0.00  0.00    +0.000 A 
ATOM      7  C   UNL     1       3.350   2.517  18.672  0.00  0.00    +0.000 A 
ATOM      8  N   UNL     1       3.918   3.779  18.569  0.00  0.00    +0.000 N 
ATOM      9  C   UNL     1       3.096   4.677  19.240  0.00  0.00    +0.000 A 
ATOM     10  N   UNL     1       3.259   6.016  19.361  0.00  0.00    +0.000 NA
ATOM     11  H   UNL     1       3.183   8.352  19.667  0.00  0.00    +0.000 HD
ENDROOT
BRANCH   1  14
ATOM     12  C   UNL     1      -0.393   9.971  21.799  0.00  0.00    +0.000 A 
ATOM     13  C   UNL     1       0.553   8.968  21.518  0.00  0.00    +0.000 A 
ATOM     14  C   UNL     1       1.345   8.973  20.373  0.00  0.00    +0.000 A 
ATOM     15  C   UNL     1       1.098   9.983  19.449  0.00  0.00    +0.000 A 
ATOM     16  C   UNL     1       0.089  10.946  19.645  0.00  0.00    +0.000 A 
ATOM     17  C   UNL     1      -0.668  10.959  20.837  0.00  0.00    +0.000 A 
BRANCH  12  19
ATOM     18  C   UNL     1      -1.575  11.225  23.424  0.00  0.00    +0.000 C 
ATOM     19  O   UNL     1      -1.047   9.957  23.008  0.00  0.00    +0.000 OA
ENDBRANCH  12  19
BRANCH  16  20
ATOM     20  O   UNL     1       0.016  11.799  18.570  0.00  0.00    +0.000 OA
ATOM     21  C   UNL     1       0.901  12.906  18.488  0.00  0.00    +0.000 C 
ENDBRANCH  16  20
BRANCH  17  22
ATOM     22  O   UNL     1      -1.596  11.954  20.931  0.00  0.00    +0.000 OA
ATOM     23  C   UNL     1      -2.634  12.119  19.982  0.00  0.00    +0.000 C 
ENDBRANCH  17  22
ENDBRANCH   1  14
BRANCH   8  24
ATOM     24  C   UNL     1       5.179   4.020  17.945  0.00  0.00    +0.000 A 
ATOM     25  C   UNL     1       6.263   4.435  18.735  0.00  0.00    +0.000 A 
ATOM     26  C   UNL     1       7.467   4.790  18.132  0.00  0.00    +0.000 A 
ATOM     27  C   UNL     1       7.573   4.761  16.743  0.00  0.00    +0.000 A 
ATOM     28  C   UNL     1       6.496   4.358  15.943  0.00  0.00    +0.000 A 
ATOM     29  C   UNL     1       5.298   3.945  16.553  0.00  0.00    +0.000 A 
BRANCH  28  30
ATOM     30  C   UNL     1       6.665   4.469  14.463  0.00  0.00    +0.000 C 
ATOM     31  O   UNL     1       7.046   5.531  13.976  0.00  0.00    +0.000 OA
ATOM     32  N   UNL     1       6.351   3.379  13.683  0.00  0.00    +0.000 N 
ATOM     33  H   UNL     1       6.124   2.482  14.082  0.00  0.00    +0.000 HD
BRANCH  32  34
ATOM     34  C   UNL     1       6.450   3.437  12.234  0.00  0.00    +0.000 C 
BRANCH  34  35
ATOM     35  C   UNL     1       5.548   2.402  11.552  0.00  0.00    +0.000 C 
BRANCH  35  36
ATOM     36  N   UNL     1       6.245   1.126  11.342  0.00  0.00    +0.000 NA
ATOM     37  H   UNL     1       5.600   0.371  11.579  0.00  0.00    +0.000 HD
ATOM     38  H   UNL     1       7.009   1.059  12.015  0.00  0.00    +0.000 HD
ENDBRANCH  35  36
ENDBRANCH  34  35
ENDBRANCH  32  34
ENDBRANCH  28  30
ENDBRANCH   8  24
TORSDOF 9
ENDMDL
MODEL 7
REMARK VINA RESULT:      -7.6      1.371      2.359
REMARK  Name = 
REMARK  12 active torsions:
REMARK  status: ('A' for Active; 'I' for Inactive)
REMARK    1  A    between atoms: C_1  and  O_2
REMARK    2  A    between atoms: O_2  and  C_3
REMARK    3  A    between atoms: C_5  and  N_6
REMARK    4  A    between atoms: N_13  and  C_14
REMARK    5  A    between atoms: C_18  and  C_19
REMARK    6  A    between atoms: N_21  and  C_22
REMARK    7  A    between atoms: C_22  and  C_23
REMARK    8  A    between atoms: C_23  and  N_24
REMARK    9  A    between atoms: C_29  and  O_30
REMARK   10  A    between atoms: O_30  and  C_31
REMARK   11  A    between atoms: C_32  and  O_33
REMARK   12  A    between atoms: O_33  and  C_34
REMARK                            x       y       z     vdW  Elec       q    Type
REMARK                         _______ _______ _______ _____ _____    ______ ____
ROOT
ATOM      1  N   UNL     1       2.169   8.778  18.904  0.00  0.00    +0.000 N 
ATOM      2  C   UNL     1       2.264   7.471  19.392  0.00  0.00    +0.000 A 
ATOM      3  N   UNL     1       1.349   7.032  20.277  0.00  0.00    +0.000 NA
ATOM      4  C   UNL     1       1.374   5.762  20.707  0.00  0.00    +0.000 A 
ATOM      5  C   UNL     1       2.352   4.910  20.241  0.00  0.00    +0.000 A 
ATOM      6  C   UNL     1       2.688   3.559  20.463  0.00  0.00    +0.000 A 
ATOM      7  C   UNL     1       3.766   3.277  19.672  0.00  0.00    +0.000 A 
ATOM      8  N   UNL     1       4.151   4.426  18.994  0.00  0.00    +0.000 N 
ATOM      9  C   UNL     1       3.279   5.448  19.352  0.00  0.00    +0.000 A 
ATOM     10  N   UNL     1       3.272   6.726  18.902  0.00  0.00    +0.000 NA
ATOM     11  H   UNL     1       2.913   8.963  18.251  0.00  0.00    +0.000 HD
ENDROOT
BRANCH   1  14
ATOM     12  C   UNL     1      -1.207  10.284  18.226  0.00  0.00    +0.000 A 
ATOM     13  C   UNL     1      -0.093   9.426  18.174  0.00  0.00    +0.000 A 
ATOM     14  C   UNL     1       1.079   9.662  18.888  0.00  0.00    +0.000 A 
ATOM     15  C   UNL     1       1.144  10.853  19.603  0.00  0.00    +0.000 A 
ATOM     16  C   UNL     1       0.090  11.787  19.597  0.00  0.00    +0.000 A 
ATOM     17  C   UNL     1      -1.113  11.507  18.912  0.00  0.00    +0.000 A 
BRANCH  12  19
ATOM     18  C   UNL     1      -2.342  10.052  16.160  0.00  0.00    +0.000 C 
ATOM     19  O   UNL     1      -2.368   9.917  17.588  0.00  0.00    +0.000 OA
ENDBRANCH  12  19
BRANCH  16  20
ATOM     20  O   UNL     1       0.420  12.897  20.339  0.00  0.00    +0.000 OA
ATOM     21  C   UNL     1       1.430  13.779  19.874  0.00  0.00    +0.000 C 
ENDBRANCH  16  20
BRANCH  17  22
ATOM     22  O   UNL     1      -2.075  12.471  19.000  0.00  0.00    +0.000 OA
ATOM     23  C   UNL     1      -3.050  12.482  20.026  0.00  0.00    +0.000 C 
ENDBRANCH  17  22
ENDBRANCH   1  14
BRANCH   8  24
ATOM     24  C   UNL     1       5.308   4.493  18.163  0.00  0.00    +0.000 A 
ATOM     25  C   UNL     1       6.534   4.882  18.729  0.00  0.00    +0.000 A 
ATOM     26  C   UNL     1       7.647   5.069  17.913  0.00  0.00    +0.000 A 
ATOM     27  C   UNL     1       7.525   4.900  16.536  0.00  0.00    +0.000 A 
ATOM     28  C   UNL     1       6.306   4.523  15.958  0.00  0.00    +0.000 A 
ATOM     29  C   UNL     1       5.195   4.278  16.785  0.00  0.00    +0.000 A 
BRANCH  28  30
ATOM     30  C   UNL     1       6.241   4.478  14.466  0.00  0.00    +0.000 C 
ATOM     31  O   UNL     1       7.090   5.073  13.807  0.00  0.00    +0.000 OA
ATOM     32  N   UNL     1       5.202   3.796  13.875  0.00  0.00    +0.000 N 
ATOM     33  H   UNL     1       4.557   3.234  14.407  0.00  0.00    +0.000 HD
BRANCH  32  34
ATOM     34  C   UNL     1       5.057   3.753  12.429  0.00  0.00    +0.000 C 
BRANCH  34  35
ATOM     35  C   UNL     1       5.604   2.451  11.832  0.00  0.00    +0.000 C 
BRANCH  35  36
ATOM     36  N   UNL     1       7.068   2.482  11.706  0.00  0.00    +0.000 NA
ATOM     37  H   UNL     1       7.449   1.710  12.252  0.00  0.00    +0.000 HD
ATOM     38  H   UNL     1       7.414   3.333  12.150  0.00  0.00    +0.000 HD
ENDBRANCH  35  36
ENDBRANCH  34  35
ENDBRANCH  32  34
ENDBRANCH  28  30
ENDBRANCH   8  24
TORSDOF 9
ENDMDL
MODEL 8
REMARK VINA RESULT:      -7.2      4.218      9.813
REMARK  Name = 
REMARK  12 active torsions:
REMARK  status: ('A' for Active; 'I' for Inactive)
REMARK    1  A    between atoms: C_1  and  O_2
REMARK    2  A    between atoms: O_2  and  C_3
REMARK    3  A    between atoms: C_5  and  N_6
REMARK    4  A    between atoms: N_13  and  C_14
REMARK    5  A    between atoms: C_18  and  C_19
REMARK    6  A    between atoms: N_21  and  C_22
REMARK    7  A    between atoms: C_22  and  C_23
REMARK    8  A    between atoms: C_23  and  N_24
REMARK    9  A    between atoms: C_29  and  O_30
REMARK   10  A    between atoms: O_30  and  C_31
REMARK   11  A    between atoms: C_32  and  O_33
REMARK   12  A    between atoms: O_33  and  C_34
REMARK                            x       y       z     vdW  Elec       q    Type
REMARK                         _______ _______ _______ _____ _____    ______ ____
ROOT
ATOM      1  N   UNL     1       1.739   8.518  19.149  0.00  0.00    +0.000 N 
ATOM      2  C   UNL     1       0.962   9.129  20.138  0.00  0.00    +0.000 A 
ATOM      3  N   UNL     1       0.373   8.362  21.076  0.00  0.00    +0.000 NA
ATOM      4  C   UNL     1      -0.318   8.926  22.077  0.00  0.00    +0.000 A 
ATOM      5  C   UNL     1      -0.430  10.299  22.133  0.00  0.00    +0.000 A 
ATOM      6  C   UNL     1      -1.058  11.215  23.000  0.00  0.00    +0.000 A 
ATOM      7  C   UNL     1      -0.777  12.469  22.534  0.00  0.00    +0.000 A 
ATOM      8  N   UNL     1      -0.030  12.367  21.368  0.00  0.00    +0.000 N 
ATOM      9  C   UNL     1       0.182  11.018  21.110  0.00  0.00    +0.000 A 
ATOM     10  N   UNL     1       0.886  10.471  20.090  0.00  0.00    +0.000 NA
ATOM     11  H   UNL     1       2.118   9.211  18.523  0.00  0.00    +0.000 HD
ENDROOT
BRANCH   1  14
ATOM     12  C   UNL     1       2.767   5.027  20.084  0.00  0.00    +0.000 A 
ATOM     13  C   UNL     1       2.229   6.324  20.157  0.00  0.00    +0.000 A 
ATOM     14  C   UNL     1       2.334   7.247  19.120  0.00  0.00    +0.000 A 
ATOM     15  C   UNL     1       3.087   6.861  18.016  0.00  0.00    +0.000 A 
ATOM     16  C   UNL     1       3.728   5.609  17.949  0.00  0.00    +0.000 A 
ATOM     17  C   UNL     1       3.566   4.664  18.986  0.00  0.00    +0.000 A 
BRANCH  12  19
ATOM     18  C   UNL     1       1.284   3.410  20.979  0.00  0.00    +0.000 C 
ATOM     19  O   UNL     1       2.515   4.137  21.102  0.00  0.00    +0.000 OA
ENDBRANCH  12  19
BRANCH  16  20
ATOM     20  O   UNL     1       4.444   5.491  16.781  0.00  0.00    +0.000 OA
ATOM     21  C   UNL     1       5.430   6.459  16.459  0.00  0.00    +0.000 C 
ENDBRANCH  16  20
BRANCH  17  22
ATOM     22  O   UNL     1       4.209   3.475  18.800  0.00  0.00    +0.000 OA
ATOM     23  C   UNL     1       3.584   2.358  18.194  0.00  0.00    +0.000 C 
ENDBRANCH  17  22
ENDBRANCH   1  14
BRANCH   8  24
ATOM     24  C   UNL     1       0.340  13.495  20.576  0.00  0.00    +0.000 A 
ATOM     25  C   UNL     1      -0.644  14.149  19.817  0.00  0.00    +0.000 A 
ATOM     26  C   UNL     1      -0.282  15.174  18.947  0.00  0.00    +0.000 A 
ATOM     27  C   UNL     1       1.061  15.520  18.813  0.00  0.00    +0.000 A 
ATOM     28  C   UNL     1       2.053  14.868  19.557  0.00  0.00    +0.000 A 
ATOM     29  C   UNL     1       1.685  13.871  20.478  0.00  0.00    +0.000 A 
BRANCH  28  30
ATOM     30  C   UNL     1       3.473  15.226  19.263  0.00  0.00    +0.000 C 
ATOM     31  O   UNL     1       3.776  15.624  18.140  0.00  0.00    +0.000 OA
ATOM     32  N   UNL     1       4.411  15.061  20.258  0.00  0.00    +0.000 N 
ATOM     33  H   UNL     1       4.154  14.821  21.202  0.00  0.00    +0.000 HD
BRANCH  32  34
ATOM     34  C   UNL     1       5.816  15.348  20.021  0.00  0.00    +0.000 C 
BRANCH  34  35
ATOM     35  C   UNL     1       6.156  16.821  20.280  0.00  0.00    +0.000 C 
BRANCH  35  36
ATOM     36  N   UNL     1       6.123  17.613  19.042  0.00  0.00    +0.000 NA
ATOM     37  H   UNL     1       6.537  18.524  19.239  0.00  0.00    +0.000 HD
ATOM     38  H   UNL     1       5.150  17.796  18.800  0.00  0.00    +0.000 HD
ENDBRANCH  35  36
ENDBRANCH  34  35
ENDBRANCH  32  34
ENDBRANCH  28  30
ENDBRANCH   8  24
TORSDOF 9
ENDMDL
MODEL 9
REMARK VINA RESULT:      -7.1      1.426      1.683
REMARK  Name = 
REMARK  12 active torsions:
REMARK  status: ('A' for Active; 'I' for Inactive)
REMARK    1  A    between atoms: C_1  and  O_2
REMARK    2  A    between atoms: O_2  and  C_3
REMARK    3  A    between atoms: C_5  and  N_6
REMARK    4  A    between atoms: N_13  and  C_14
REMARK    5  A    between atoms: C_18  and  C_19
REMARK    6  A    between atoms: N_21  and  C_22
REMARK    7  A    between atoms: C_22  and  C_23
REMARK    8  A    between atoms: C_23  and  N_24
REMARK    9  A    between atoms: C_29  and  O_30
REMARK   10  A    between atoms: O_30  and  C_31
REMARK   11  A    between atoms: C_32  and  O_33
REMARK   12  A    between atoms: O_33  and  C_34
REMARK                            x       y       z     vdW  Elec       q    Type
REMARK                         _______ _______ _______ _____ _____    ______ ____
ROOT
ATOM      1  N   UNL     1       2.011   8.962  19.423  0.00  0.00    +0.000 N 
ATOM      2  C   UNL     1       2.047   7.635  19.863  0.00  0.00    +0.000 A 
ATOM      3  N   UNL     1       1.112   7.207  20.732  0.00  0.00    +0.000 NA
ATOM      4  C   UNL     1       1.079   5.922  21.116  0.00  0.00    +0.000 A 
ATOM      5  C   UNL     1       2.019   5.044  20.619  0.00  0.00    +0.000 A 
ATOM      6  C   UNL     1       2.293   3.673  20.791  0.00  0.00    +0.000 A 
ATOM      7  C   UNL     1       3.357   3.371  19.989  0.00  0.00    +0.000 A 
ATOM      8  N   UNL     1       3.794   4.525  19.354  0.00  0.00    +0.000 N 
ATOM      9  C   UNL     1       2.969   5.572  19.749  0.00  0.00    +0.000 A 
ATOM     10  N   UNL     1       3.021   6.864  19.346  0.00  0.00    +0.000 NA
ATOM     11  H   UNL     1       2.764   9.137  18.776  0.00  0.00    +0.000 HD
ENDROOT
BRANCH   1  14
ATOM     12  C   UNL     1      -0.267  11.765  20.460  0.00  0.00    +0.000 A 
ATOM     13  C   UNL     1       0.742  10.785  20.488  0.00  0.00    +0.000 A 
ATOM     14  C   UNL     1       0.963   9.895  19.440  0.00  0.00    +0.000 A 
ATOM     15  C   UNL     1       0.070   9.952  18.375  0.00  0.00    +0.000 A 
ATOM     16  C   UNL     1      -1.015  10.850  18.356  0.00  0.00    +0.000 A 
ATOM     17  C   UNL     1      -1.193  11.783  19.402  0.00  0.00    +0.000 A 
BRANCH  12  19
ATOM     18  C   UNL     1      -0.962  12.203  22.681  0.00  0.00    +0.000 C 
ATOM     19  O   UNL     1      -0.340  12.683  21.481  0.00  0.00    +0.000 OA
ENDBRANCH  12  19
BRANCH  16  20
ATOM     20  O   UNL     1      -1.772  10.675  17.222  0.00  0.00    +0.000 OA
ATOM     21  C   UNL     1      -2.860   9.765  17.235  0.00  0.00    +0.000 C 
ENDBRANCH  16  20
BRANCH  17  22
ATOM     22  O   UNL     1      -2.259  12.622  19.264  0.00  0.00    +0.000 OA
ATOM     23  C   UNL     1      -3.509  12.373  19.880  0.00  0.00    +0.000 C 
ENDBRANCH  17  22
ENDBRANCH   1  14
BRANCH   8  24
ATOM     24  C   UNL     1       4.954   4.570  18.524  0.00  0.00    +0.000 A 
ATOM     25  C   UNL     1       6.174   4.989  19.079  0.00  0.00    +0.000 A 
ATOM     26  C   UNL     1       7.289   5.154  18.261  0.00  0.00    +0.000 A 
ATOM     27  C   UNL     1       7.173   4.932  16.890  0.00  0.00    +0.000 A 
ATOM     28  C   UNL     1       5.959   4.523  16.323  0.00  0.00    +0.000 A 
ATOM     29  C   UNL     1       4.848   4.301  17.155  0.00  0.00    +0.000 A 
BRANCH  28  30
ATOM     30  C   UNL     1       5.900   4.422  14.834  0.00  0.00    +0.000 C 
ATOM     31  O   UNL     1       4.817   4.244  14.282  0.00  0.00    +0.000 OA
ATOM     32  N   UNL     1       7.078   4.496  14.125  0.00  0.00    +0.000 N 
ATOM     33  H   UNL     1       7.955   4.730  14.563  0.00  0.00    +0.000 HD
BRANCH  32  34
ATOM     34  C   UNL     1       7.094   4.359  12.678  0.00  0.00    +0.000 C 
BRANCH  34  35
ATOM     35  C   UNL     1       7.949   5.440  12.005  0.00  0.00    +0.000 C 
BRANCH  35  36
ATOM     36  N   UNL     1       8.853   6.094  12.962  0.00  0.00    +0.000 NA
ATOM     37  H   UNL     1       9.560   5.415  13.243  0.00  0.00    +0.000 HD
ATOM     38  H   UNL     1       8.327   6.314  13.808  0.00  0.00    +0.000 HD
ENDBRANCH  35  36
ENDBRANCH  34  35
ENDBRANCH  32  34
ENDBRANCH  28  30
ENDBRANCH   8  24
TORSDOF 9
ENDMDL
