MODEL 1
REMARK VINA RESULT:      -8.1      0.000      0.000
REMARK  Name = 
REMARK  8 active torsions:
REMARK  status: ('A' for Active; 'I' for Inactive)
REMARK    1  A    between atoms: C_1  and  C_2
REMARK    2  A    between atoms: C_2  and  O_3
REMARK    3  A    between atoms: O_3  and  C_4
REMARK    4  A    between atoms: C_4  and  O_5
REMARK    5  A    between atoms: O_5  and  C_6
REMARK    6  A    between atoms: C_6  and  C_7
REMARK    7  A    between atoms: C_7  and  C_8
REMARK    8  A    between atoms: C_8  and  O_9
REMARK                            x       y       z     vdW  Elec       q    Type
REMARK                         _______ _______ _______ _____ _____    ______ ____
ROOT
ATOM      1  C   UNL     1       5.316   5.290  15.571  0.00  0.00    +0.000 C 
ATOM      2  C   UNL     1       6.812   5.245  16.023  0.00  0.00    +0.000 C 
ATOM      3  O   UNL     1       7.710   5.991  15.643  0.00  0.00    +0.000 OA
ATOM      4  O   UNL     1       6.990   4.335  16.995  0.00  0.00    +0.000 OA
ATOM      5  C   UNL     1       6.683   5.068  18.152  0.00  0.00    +0.000 C 
ATOM      6  C   UNL     1       5.393   5.813  18.015  0.00  0.00    +0.000 A 
ATOM      7  C   UNL     1       4.809   6.259  16.850  0.00  0.00    +0.000 A 
ATOM      8  C   UNL     1       3.638   7.298  17.170  0.00  0.00    +0.000 A 
ATOM      9  C   UNL     1       3.035   7.371  18.417  0.00  0.00    +0.000 A 
ATOM     10  N   UNL     1       3.393   6.338  19.266  0.00  0.00    +0.000 N 
ATOM     11  C   UNL     1       4.533   5.611  19.197  0.00  0.00    +0.000 A 
ATOM     12  O   UNL     1       4.830   4.806  20.056  0.00  0.00    +0.000 OA
ATOM     13  C   UNL     1       2.501   6.083  20.358  0.00  0.00    +0.000 C 
ATOM     14  C   UNL     1       1.675   7.299  20.382  0.00  0.00    +0.000 A 
ATOM     15  C   UNL     1       0.813   7.589  21.430  0.00  0.00    +0.000 A 
ATOM     16  C   UNL     1       0.324   8.858  21.537  0.00  0.00    +0.000 A 
ATOM     17  C   UNL     1      -0.521   9.151  22.642  0.00  0.00    +0.000 A 
ATOM     18  C   UNL     1      -0.967  10.431  22.873  0.00  0.00    +0.000 A 
ATOM     19  C   UNL     1      -0.534  11.442  22.011  0.00  0.00    +0.000 A 
ATOM     20  C   UNL     1       0.305  11.123  20.893  0.00  0.00    +0.000 A 
ATOM     21  C   UNL     1       0.753   9.813  20.555  0.00  0.00    +0.000 A 
ATOM     22  N   UNL     1       1.576   9.453  19.441  0.00  0.00    +0.000 NA
ATOM     23  C   UNL     1       1.990   8.162  19.332  0.00  0.00    +0.000 A 
ENDROOT
BRANCH   1  24
ATOM     24  O   UNL     1       4.397   4.201  15.752  0.00  0.00    +0.000 OA
ATOM     25  H   UNL     1       4.038   3.924  14.885  0.00  0.00    +0.000 HD
ENDBRANCH   1  24
BRANCH   1  26
ATOM     26  C   UNL     1       5.783   5.056  14.020  0.00  0.00    +0.000 C 
BRANCH  26  27
ATOM     27  C   UNL     1       6.318   3.512  13.717  0.00  0.00    +0.000 C 
BRANCH  27  28
ATOM     28  O   UNL     1       5.995   3.031  12.397  0.00  0.00    +0.000 OA
BRANCH  28  29
ATOM     29  C   UNL     1       4.662   3.411  11.956  0.00  0.00    +0.000 C 
BRANCH  29  30
ATOM     30  O   UNL     1       4.255   2.860  10.699  0.00  0.00    +0.000 OA
BRANCH  30  32
ATOM     31  C   UNL     1       2.863   4.423   9.471  0.00  0.00    +0.000 C 
ATOM     32  C   UNL     1       2.907   3.196  10.371  0.00  0.00    +0.000 C 
ENDBRANCH  30  32
ENDBRANCH  29  30
ENDBRANCH  28  29
ENDBRANCH  27  28
ENDBRANCH  26  27
ENDBRANCH   1  26
TORSDOF 7
ENDMDL
MODEL 2
REMARK VINA RESULT:      -8.0      2.904      5.081
REMARK  Name = 
REMARK  8 active torsions:
REMARK  status: ('A' for Active; 'I' for Inactive)
REMARK    1  A    between atoms: C_1  and  C_2
REMARK    2  A    between atoms: C_2  and  O_3
REMARK    3  A    between atoms: O_3  and  C_4
REMARK    4  A    between atoms: C_4  and  O_5
REMARK    5  A    between atoms: O_5  and  C_6
REMARK    6  A    between atoms: C_6  and  C_7
REMARK    7  A    between atoms: C_7  and  C_8
REMARK    8  A    between atoms: C_8  and  O_9
REMARK                            x       y       z     vdW  Elec       q    Type
REMARK                         _______ _______ _______ _____ _____    ______ ____
ROOT
ATOM      1  C   UNL     1       2.869   4.969  17.904  0.00  0.00    +0.000 C 
ATOM      2  C   UNL     1       3.539   4.386  19.191  0.00  0.00    +0.000 C 
ATOM      3  O   UNL     1       4.734   4.158  19.349  0.00  0.00    +0.000 OA
ATOM      4  O   UNL     1       2.641   4.261  20.182  0.00  0.00    +0.000 OA
ATOM      5  C   UNL     1       2.665   5.535  20.771  0.00  0.00    +0.000 C 
ATOM      6  C   UNL     1       2.547   6.624  19.751  0.00  0.00    +0.000 A 
ATOM      7  C   UNL     1       2.922   6.567  18.426  0.00  0.00    +0.000 A 
ATOM      8  C   UNL     1       2.953   8.032  17.788  0.00  0.00    +0.000 A 
ATOM      9  C   UNL     1       2.278   9.102  18.358  0.00  0.00    +0.000 A 
ATOM     10  N   UNL     1       1.426   8.734  19.385  0.00  0.00    +0.000 N 
ATOM     11  C   UNL     1       1.537   7.623  20.151  0.00  0.00    +0.000 A 
ATOM     12  O   UNL     1       0.822   7.437  21.115  0.00  0.00    +0.000 OA
ATOM     13  C   UNL     1       0.386   9.666  19.705  0.00  0.00    +0.000 C 
ATOM     14  C   UNL     1       0.840  10.890  19.028  0.00  0.00    +0.000 A 
ATOM     15  C   UNL     1       0.246  12.124  19.253  0.00  0.00    +0.000 A 
ATOM     16  C   UNL     1       0.905  13.246  18.842  0.00  0.00    +0.000 A 
ATOM     17  C   UNL     1       0.306  14.505  19.121  0.00  0.00    +0.000 A 
ATOM     18  C   UNL     1       0.959  15.679  18.830  0.00  0.00    +0.000 A 
ATOM     19  C   UNL     1       2.245  15.600  18.290  0.00  0.00    +0.000 A 
ATOM     20  C   UNL     1       2.825  14.320  18.003  0.00  0.00    +0.000 A 
ATOM     21  C   UNL     1       2.184  13.065  18.215  0.00  0.00    +0.000 A 
ATOM     22  N   UNL     1       2.722  11.771  17.927  0.00  0.00    +0.000 NA
ATOM     23  C   UNL     1       2.005  10.675  18.292  0.00  0.00    +0.000 A 
ENDROOT
BRANCH   1  24
ATOM     24  O   UNL     1       1.461   4.882  17.630  0.00  0.00    +0.000 OA
ATOM     25  H   UNL     1       1.076   4.125  18.115  0.00  0.00    +0.000 HD
ENDBRANCH   1  24
BRANCH   1  26
ATOM     26  C   UNL     1       3.439   3.702  17.039  0.00  0.00    +0.000 C 
BRANCH  26  27
ATOM     27  C   UNL     1       4.762   4.081  16.107  0.00  0.00    +0.000 C 
BRANCH  27  28
ATOM     28  O   UNL     1       5.358   5.354  16.431  0.00  0.00    +0.000 OA
BRANCH  28  29
ATOM     29  C   UNL     1       6.813   5.330  16.417  0.00  0.00    +0.000 C 
BRANCH  29  30
ATOM     30  O   UNL     1       7.442   6.610  16.297  0.00  0.00    +0.000 OA
BRANCH  30  32
ATOM     31  C   UNL     1       7.771   6.358  18.689  0.00  0.00    +0.000 C 
ATOM     32  C   UNL     1       7.479   7.313  17.539  0.00  0.00    +0.000 C 
ENDBRANCH  30  32
ENDBRANCH  29  30
ENDBRANCH  28  29
ENDBRANCH  27  28
ENDBRANCH  26  27
ENDBRANCH   1  26
TORSDOF 7
ENDMDL
MODEL 3
REMARK VINA RESULT:      -7.8      1.487      1.844
REMARK  Name = 
REMARK  8 active torsions:
REMARK  status: ('A' for Active; 'I' for Inactive)
REMARK    1  A    between atoms: C_1  and  C_2
REMARK    2  A    between atoms: C_2  and  O_3
REMARK    3  A    between atoms: O_3  and  C_4
REMARK    4  A    between atoms: C_4  and  O_5
REMARK    5  A    between atoms: O_5  and  C_6
REMARK    6  A    between atoms: C_6  and  C_7
REMARK    7  A    between atoms: C_7  and  C_8
REMARK    8  A    between atoms: C_8  and  O_9
REMARK                            x       y       z     vdW  Elec       q    Type
REMARK                         _______ _______ _______ _____ _____    ______ ____
ROOT
ATOM      1  C   UNL     1       5.953   4.727  15.090  0.00  0.00    +0.000 C 
ATOM      2  C   UNL     1       7.464   4.931  15.439  0.00  0.00    +0.000 C 
ATOM      3  O   UNL     1       8.232   5.727  14.907  0.00  0.00    +0.000 OA
ATOM      4  O   UNL     1       7.813   4.188  16.502  0.00  0.00    +0.000 OA
ATOM      5  C   UNL     1       7.473   5.024  17.577  0.00  0.00    +0.000 C 
ATOM      6  C   UNL     1       6.089   5.576  17.439  0.00  0.00    +0.000 A 
ATOM      7  C   UNL     1       5.390   5.786  16.270  0.00  0.00    +0.000 A 
ATOM      8  C   UNL     1       4.109   6.702  16.539  0.00  0.00    +0.000 A 
ATOM      9  C   UNL     1       3.568   6.864  17.807  0.00  0.00    +0.000 A 
ATOM     10  N   UNL     1       4.106   6.006  18.751  0.00  0.00    +0.000 N 
ATOM     11  C   UNL     1       5.327   5.426  18.694  0.00  0.00    +0.000 A 
ATOM     12  O   UNL     1       5.775   4.786  19.624  0.00  0.00    +0.000 OA
ATOM     13  C   UNL     1       3.316   5.788  19.926  0.00  0.00    +0.000 C 
ATOM     14  C   UNL     1       2.336   6.882  19.856  0.00  0.00    +0.000 A 
ATOM     15  C   UNL     1       1.500   7.198  20.918  0.00  0.00    +0.000 A 
ATOM     16  C   UNL     1       0.851   8.399  20.899  0.00  0.00    +0.000 A 
ATOM     17  C   UNL     1       0.035   8.727  22.016  0.00  0.00    +0.000 A 
ATOM     18  C   UNL     1      -0.566   9.960  22.115  0.00  0.00    +0.000 A 
ATOM     19  C   UNL     1      -0.318  10.894  21.106  0.00  0.00    +0.000 A 
ATOM     20  C   UNL     1       0.496  10.537  19.981  0.00  0.00    +0.000 A 
ATOM     21  C   UNL     1       1.097   9.261  19.778  0.00  0.00    +0.000 A 
ATOM     22  N   UNL     1       1.900   8.862  18.663  0.00  0.00    +0.000 NA
ATOM     23  C   UNL     1       2.477   7.631  18.687  0.00  0.00    +0.000 A 
ENDROOT
BRANCH   1  24
ATOM     24  O   UNL     1       5.199   3.565  15.470  0.00  0.00    +0.000 OA
ATOM     25  H   UNL     1       5.468   2.802  14.920  0.00  0.00    +0.000 HD
ENDBRANCH   1  24
BRANCH   1  26
ATOM     26  C   UNL     1       6.364   4.350  13.552  0.00  0.00    +0.000 C 
BRANCH  26  27
ATOM     27  C   UNL     1       5.073   3.866  12.623  0.00  0.00    +0.000 C 
BRANCH  27  28
ATOM     28  O   UNL     1       5.301   2.638  11.903  0.00  0.00    +0.000 OA
BRANCH  28  29
ATOM     29  C   UNL     1       6.703   2.403  11.592  0.00  0.00    +0.000 C 
BRANCH  29  30
ATOM     30  O   UNL     1       6.987   1.148  10.966  0.00  0.00    +0.000 OA
BRANCH  30  32
ATOM     31  C   UNL     1       6.119  -1.073  11.416  0.00  0.00    +0.000 C 
ATOM     32  C   UNL     1       5.830   0.318  10.869  0.00  0.00    +0.000 C 
ENDBRANCH  30  32
ENDBRANCH  29  30
ENDBRANCH  28  29
ENDBRANCH  27  28
ENDBRANCH  26  27
ENDBRANCH   1  26
TORSDOF 7
ENDMDL
MODEL 4
REMARK VINA RESULT:      -7.6      5.500     10.609
REMARK  Name = 
REMARK  8 active torsions:
REMARK  status: ('A' for Active; 'I' for Inactive)
REMARK    1  A    between atoms: C_1  and  C_2
REMARK    2  A    between atoms: C_2  and  O_3
REMARK    3  A    between atoms: O_3  and  C_4
REMARK    4  A    between atoms: C_4  and  O_5
REMARK    5  A    between atoms: O_5  and  C_6
REMARK    6  A    between atoms: C_6  and  C_7
REMARK    7  A    between atoms: C_7  and  C_8
REMARK    8  A    between atoms: C_8  and  O_9
REMARK                            x       y       z     vdW  Elec       q    Type
REMARK                         _______ _______ _______ _____ _____    ______ ____
ROOT
ATOM      1  C   UNL     1      -1.563  11.976  21.726  0.00  0.00    +0.000 C 
ATOM      2  C   UNL     1      -0.760  13.194  22.288  0.00  0.00    +0.000 C 
ATOM      3  O   UNL     1      -0.455  13.385  23.461  0.00  0.00    +0.000 OA
ATOM      4  O   UNL     1      -0.330  13.983  21.289  0.00  0.00    +0.000 OA
ATOM      5  C   UNL     1       0.883  13.376  20.928  0.00  0.00    +0.000 C 
ATOM      6  C   UNL     1       0.734  11.899  20.739  0.00  0.00    +0.000 A 
ATOM      7  C   UNL     1      -0.198  11.075  21.331  0.00  0.00    +0.000 A 
ATOM      8  C   UNL     1       0.206   9.541  21.138  0.00  0.00    +0.000 A 
ATOM      9  C   UNL     1       1.093   9.128  20.154  0.00  0.00    +0.000 A 
ATOM     10  N   UNL     1       1.418  10.124  19.249  0.00  0.00    +0.000 N 
ATOM     11  C   UNL     1       1.360  11.457  19.479  0.00  0.00    +0.000 A 
ATOM     12  O   UNL     1       1.782  12.263  18.674  0.00  0.00    +0.000 OA
ATOM     13  C   UNL     1       1.936   9.684  17.988  0.00  0.00    +0.000 C 
ATOM     14  C   UNL     1       2.280   8.281  18.259  0.00  0.00    +0.000 A 
ATOM     15  C   UNL     1       3.028   7.517  17.375  0.00  0.00    +0.000 A 
ATOM     16  C   UNL     1       3.567   6.346  17.823  0.00  0.00    +0.000 A 
ATOM     17  C   UNL     1       4.369   5.598  16.918  0.00  0.00    +0.000 A 
ATOM     18  C   UNL     1       5.029   4.464  17.329  0.00  0.00    +0.000 A 
ATOM     19  C   UNL     1       4.922   4.091  18.671  0.00  0.00    +0.000 A 
ATOM     20  C   UNL     1       4.096   4.851  19.563  0.00  0.00    +0.000 A 
ATOM     21  C   UNL     1       3.333   5.997  19.196  0.00  0.00    +0.000 A 
ATOM     22  N   UNL     1       2.486   6.770  20.051  0.00  0.00    +0.000 NA
ATOM     23  C   UNL     1       1.912   7.896  19.549  0.00  0.00    +0.000 A 
ENDROOT
BRANCH   1  24
ATOM     24  O   UNL     1      -2.202  11.968  20.440  0.00  0.00    +0.000 OA
ATOM     25  H   UNL     1      -2.732  11.151  20.339  0.00  0.00    +0.000 HD
ENDBRANCH   1  24
BRANCH   1  26
ATOM     26  C   UNL     1      -2.819  12.360  22.702  0.00  0.00    +0.000 C 
BRANCH  26  27
ATOM     27  C   UNL     1      -4.134  12.960  21.881  0.00  0.00    +0.000 C 
BRANCH  27  28
ATOM     28  O   UNL     1      -5.396  12.433  22.337  0.00  0.00    +0.000 OA
BRANCH  28  29
ATOM     29  C   UNL     1      -6.297  12.073  21.252  0.00  0.00    +0.000 C 
BRANCH  29  30
ATOM     30  O   UNL     1      -7.224  11.025  21.551  0.00  0.00    +0.000 OA
BRANCH  30  32
ATOM     31  C   UNL     1      -6.961   9.592  19.610  0.00  0.00    +0.000 C 
ATOM     32  C   UNL     1      -7.878  10.531  20.382  0.00  0.00    +0.000 C 
ENDBRANCH  30  32
ENDBRANCH  29  30
ENDBRANCH  28  29
ENDBRANCH  27  28
ENDBRANCH  26  27
ENDBRANCH   1  26
TORSDOF 7
ENDMDL
MODEL 5
REMARK VINA RESULT:      -7.5      5.578      9.634
REMARK  Name = 
REMARK  8 active torsions:
REMARK  status: ('A' for Active; 'I' for Inactive)
REMARK    1  A    between atoms: C_1  and  C_2
REMARK    2  A    between atoms: C_2  and  O_3
REMARK    3  A    between atoms: O_3  and  C_4
REMARK    4  A    between atoms: C_4  and  O_5
REMARK    5  A    between atoms: O_5  and  C_6
REMARK    6  A    between atoms: C_6  and  C_7
REMARK    7  A    between atoms: C_7  and  C_8
REMARK    8  A    between atoms: C_8  and  O_9
REMARK                            x       y       z     vdW  Elec       q    Type
REMARK                         _______ _______ _______ _____ _____    ______ ____
ROOT
ATOM      1  C   UNL     1       1.530  12.659  18.888  0.00  0.00    +0.000 C 
ATOM      2  C   UNL     1       0.017  13.055  18.869  0.00  0.00    +0.000 C 
ATOM      3  O   UNL     1      -0.637  13.382  17.884  0.00  0.00    +0.000 OA
ATOM      4  O   UNL     1      -0.535  12.886  20.082  0.00  0.00    +0.000 OA
ATOM      5  C   UNL     1      -0.910  11.533  20.054  0.00  0.00    +0.000 C 
ATOM      6  C   UNL     1       0.205  10.654  19.581  0.00  0.00    +0.000 A 
ATOM      7  C   UNL     1       1.246  11.006  18.750  0.00  0.00    +0.000 A 
ATOM      8  C   UNL     1       2.005   9.704  18.218  0.00  0.00    +0.000 A 
ATOM      9  C   UNL     1       1.902   8.476  18.856  0.00  0.00    +0.000 A 
ATOM     10  N   UNL     1       1.265   8.542  20.083  0.00  0.00    +0.000 N 
ATOM     11  C   UNL     1       0.380   9.490  20.470  0.00  0.00    +0.000 A 
ATOM     12  O   UNL     1      -0.230   9.406  21.517  0.00  0.00    +0.000 OA
ATOM     13  C   UNL     1       1.517   7.455  20.982  0.00  0.00    +0.000 C 
ATOM     14  C   UNL     1       2.110   6.442  20.095  0.00  0.00    +0.000 A 
ATOM     15  C   UNL     1       2.307   5.129  20.498  0.00  0.00    +0.000 A 
ATOM     16  C   UNL     1       2.563   4.188  19.543  0.00  0.00    +0.000 A 
ATOM     17  C   UNL     1       2.718   2.840  19.968  0.00  0.00    +0.000 A 
ATOM     18  C   UNL     1       2.873   1.824  19.055  0.00  0.00    +0.000 A 
ATOM     19  C   UNL     1       2.835   2.150  17.696  0.00  0.00    +0.000 A 
ATOM     20  C   UNL     1       2.693   3.518  17.290  0.00  0.00    +0.000 A 
ATOM     21  C   UNL     1       2.592   4.629  18.177  0.00  0.00    +0.000 A 
ATOM     22  N   UNL     1       2.466   6.006  17.812  0.00  0.00    +0.000 NA
ATOM     23  C   UNL     1       2.279   6.924  18.797  0.00  0.00    +0.000 A 
ENDROOT
BRANCH   1  24
ATOM     24  O   UNL     1       2.333  12.638  20.078  0.00  0.00    +0.000 OA
ATOM     25  H   UNL     1       2.450  13.550  20.415  0.00  0.00    +0.000 HD
ENDBRANCH   1  24
BRANCH   1  26
ATOM     26  C   UNL     1       1.916  14.124  18.270  0.00  0.00    +0.000 C 
BRANCH  26  27
ATOM     27  C   UNL     1       3.186  14.858  19.054  0.00  0.00    +0.000 C 
BRANCH  27  28
ATOM     28  O   UNL     1       2.780  15.764  20.099  0.00  0.00    +0.000 OA
BRANCH  28  29
ATOM     29  C   UNL     1       1.778  16.728  19.669  0.00  0.00    +0.000 C 
BRANCH  29  30
ATOM     30  O   UNL     1       2.174  17.579  18.588  0.00  0.00    +0.000 OA
BRANCH  30  32
ATOM     31  C   UNL     1      -0.175  17.195  18.113  0.00  0.00    +0.000 C 
ATOM     32  C   UNL     1       1.059  18.040  17.826  0.00  0.00    +0.000 C 
ENDBRANCH  30  32
ENDBRANCH  29  30
ENDBRANCH  28  29
ENDBRANCH  27  28
ENDBRANCH  26  27
ENDBRANCH   1  26
TORSDOF 7
ENDMDL
MODEL 6
REMARK VINA RESULT:      -7.5      5.501      9.166
REMARK  Name = 
REMARK  8 active torsions:
REMARK  status: ('A' for Active; 'I' for Inactive)
REMARK    1  A    between atoms: C_1  and  C_2
REMARK    2  A    between atoms: C_2  and  O_3
REMARK    3  A    between atoms: O_3  and  C_4
REMARK    4  A    between atoms: C_4  and  O_5
REMARK    5  A    between atoms: O_5  and  C_6
REMARK    6  A    between atoms: C_6  and  C_7
REMARK    7  A    between atoms: C_7  and  C_8
REMARK    8  A    between atoms: C_8  and  O_9
REMARK                            x       y       z     vdW  Elec       q    Type
REMARK                         _______ _______ _______ _____ _____    ______ ____
ROOT
ATOM      1  C   UNL     1       1.492  12.680  18.952  0.00  0.00    +0.000 C 
ATOM      2  C   UNL     1      -0.023  13.061  18.899  0.00  0.00    +0.000 C 
ATOM      3  O   UNL     1      -0.656  13.391  17.900  0.00  0.00    +0.000 OA
ATOM      4  O   UNL     1      -0.605  12.874  20.095  0.00  0.00    +0.000 OA
ATOM      5  C   UNL     1      -0.965  11.518  20.045  0.00  0.00    +0.000 C 
ATOM      6  C   UNL     1       0.171  10.655  19.592  0.00  0.00    +0.000 A 
ATOM      7  C   UNL     1       1.229  11.026  18.791  0.00  0.00    +0.000 A 
ATOM      8  C   UNL     1       2.015   9.737  18.267  0.00  0.00    +0.000 A 
ATOM      9  C   UNL     1       1.909   8.502  18.890  0.00  0.00    +0.000 A 
ATOM     10  N   UNL     1       1.241   8.549  20.101  0.00  0.00    +0.000 N 
ATOM     11  C   UNL     1       0.336   9.484  20.475  0.00  0.00    +0.000 A 
ATOM     12  O   UNL     1      -0.299   9.384  21.505  0.00  0.00    +0.000 OA
ATOM     13  C   UNL     1       1.481   7.456  20.996  0.00  0.00    +0.000 C 
ATOM     14  C   UNL     1       2.106   6.458  20.115  0.00  0.00    +0.000 A 
ATOM     15  C   UNL     1       2.308   5.144  20.510  0.00  0.00    +0.000 A 
ATOM     16  C   UNL     1       2.597   4.215  19.553  0.00  0.00    +0.000 A 
ATOM     17  C   UNL     1       2.756   2.864  19.969  0.00  0.00    +0.000 A 
ATOM     18  C   UNL     1       2.945   1.859  19.051  0.00  0.00    +0.000 A 
ATOM     19  C   UNL     1       2.937   2.197  17.695  0.00  0.00    +0.000 A 
ATOM     20  C   UNL     1       2.791   3.568  17.298  0.00  0.00    +0.000 A 
ATOM     21  C   UNL     1       2.656   4.669  18.193  0.00  0.00    +0.000 A 
ATOM     22  N   UNL     1       2.525   6.048  17.837  0.00  0.00    +0.000 NA
ATOM     23  C   UNL     1       2.303   6.954  18.826  0.00  0.00    +0.000 A 
ENDROOT
BRANCH   1  24
ATOM     24  O   UNL     1       2.265  12.656  20.162  0.00  0.00    +0.000 OA
ATOM     25  H   UNL     1       2.907  11.919  20.130  0.00  0.00    +0.000 HD
ENDBRANCH   1  24
BRANCH   1  26
ATOM     26  C   UNL     1       1.879  14.155  18.358  0.00  0.00    +0.000 C 
BRANCH  26  27
ATOM     27  C   UNL     1       2.760  15.084  19.418  0.00  0.00    +0.000 C 
BRANCH  27  28
ATOM     28  O   UNL     1       4.163  14.753  19.454  0.00  0.00    +0.000 OA
BRANCH  28  29
ATOM     29  C   UNL     1       4.906  15.264  18.312  0.00  0.00    +0.000 C 
BRANCH  29  30
ATOM     30  O   UNL     1       5.774  14.319  17.677  0.00  0.00    +0.000 OA
BRANCH  30  32
ATOM     31  C   UNL     1       7.282  16.064  18.433  0.00  0.00    +0.000 C 
ATOM     32  C   UNL     1       7.145  14.708  17.755  0.00  0.00    +0.000 C 
ENDBRANCH  30  32
ENDBRANCH  29  30
ENDBRANCH  28  29
ENDBRANCH  27  28
ENDBRANCH  26  27
ENDBRANCH   1  26
TORSDOF 7
ENDMDL
MODEL 7
REMARK VINA RESULT:      -7.4      2.681      4.499
REMARK  Name = 
REMARK  8 active torsions:
REMARK  status: ('A' for Active; 'I' for Inactive)
REMARK    1  A    between atoms: C_1  and  C_2
REMARK    2  A    between atoms: C_2  and  O_3
REMARK    3  A    between atoms: O_3  and  C_4
REMARK    4  A    between atoms: C_4  and  O_5
REMARK    5  A    between atoms: O_5  and  C_6
REMARK    6  A    between atoms: C_6  and  C_7
REMARK    7  A    between atoms: C_7  and  C_8
REMARK    8  A    between atoms: C_8  and  O_9
REMARK                            x       y       z     vdW  Elec       q    Type
REMARK                         _______ _______ _______ _____ _____    ______ ____
ROOT
ATOM      1  C   UNL     1       2.870   5.090  17.943  0.00  0.00    +0.000 C 
ATOM      2  C   UNL     1       3.518   4.512  19.244  0.00  0.00    +0.000 C 
ATOM      3  O   UNL     1       4.711   4.290  19.426  0.00  0.00    +0.000 OA
ATOM      4  O   UNL     1       2.602   4.385  20.218  0.00  0.00    +0.000 OA
ATOM      5  C   UNL     1       2.608   5.660  20.805  0.00  0.00    +0.000 C 
ATOM      6  C   UNL     1       2.505   6.747  19.781  0.00  0.00    +0.000 A 
ATOM      7  C   UNL     1       2.906   6.690  18.464  0.00  0.00    +0.000 A 
ATOM      8  C   UNL     1       2.943   8.153  17.824  0.00  0.00    +0.000 A 
ATOM      9  C   UNL     1       2.252   9.221  18.379  0.00  0.00    +0.000 A 
ATOM     10  N   UNL     1       1.382   8.851  19.390  0.00  0.00    +0.000 N 
ATOM     11  C   UNL     1       1.483   7.742  20.160  0.00  0.00    +0.000 A 
ATOM     12  O   UNL     1       0.750   7.553  21.110  0.00  0.00    +0.000 OA
ATOM     13  C   UNL     1       0.331   9.778  19.688  0.00  0.00    +0.000 C 
ATOM     14  C   UNL     1       0.792  11.003  19.018  0.00  0.00    +0.000 A 
ATOM     15  C   UNL     1       0.188  12.235  19.229  0.00  0.00    +0.000 A 
ATOM     16  C   UNL     1       0.850  13.359  18.829  0.00  0.00    +0.000 A 
ATOM     17  C   UNL     1       0.239  14.615  19.094  0.00  0.00    +0.000 A 
ATOM     18  C   UNL     1       0.892  15.793  18.814  0.00  0.00    +0.000 A 
ATOM     19  C   UNL     1       2.189  15.719  18.299  0.00  0.00    +0.000 A 
ATOM     20  C   UNL     1       2.780  14.441  18.025  0.00  0.00    +0.000 A 
ATOM     21  C   UNL     1       2.142  13.184  18.228  0.00  0.00    +0.000 A 
ATOM     22  N   UNL     1       2.691  11.892  17.952  0.00  0.00    +0.000 NA
ATOM     23  C   UNL     1       1.973  10.793  18.305  0.00  0.00    +0.000 A 
ENDROOT
BRANCH   1  24
ATOM     24  O   UNL     1       1.469   4.996  17.642  0.00  0.00    +0.000 OA
ATOM     25  H   UNL     1       1.053   4.319  18.213  0.00  0.00    +0.000 HD
ENDBRANCH   1  24
BRANCH   1  26
ATOM     26  C   UNL     1       3.464   3.824  17.092  0.00  0.00    +0.000 C 
BRANCH  26  27
ATOM     27  C   UNL     1       4.606   4.263  15.967  0.00  0.00    +0.000 C 
BRANCH  27  28
ATOM     28  O   UNL     1       5.928   3.766  16.255  0.00  0.00    +0.000 OA
BRANCH  28  29
ATOM     29  C   UNL     1       6.990   4.627  15.753  0.00  0.00    +0.000 C 
BRANCH  29  30
ATOM     30  O   UNL     1       6.665   5.374  14.577  0.00  0.00    +0.000 OA
BRANCH  30  32
ATOM     31  C   UNL     1       6.407   3.711  12.829  0.00  0.00    +0.000 C 
ATOM     32  C   UNL     1       7.267   4.828  13.405  0.00  0.00    +0.000 C 
ENDBRANCH  30  32
ENDBRANCH  29  30
ENDBRANCH  28  29
ENDBRANCH  27  28
ENDBRANCH  26  27
ENDBRANCH   1  26
TORSDOF 7
ENDMDL
MODEL 8
REMARK VINA RESULT:      -7.4      5.344     10.211
REMARK  Name = 
REMARK  8 active torsions:
REMARK  status: ('A' for Active; 'I' for Inactive)
REMARK    1  A    between atoms: C_1  and  C_2
REMARK    2  A    between atoms: C_2  and  O_3
REMARK    3  A    between atoms: O_3  and  C_4
REMARK    4  A    between atoms: C_4  and  O_5
REMARK    5  A    between atoms: O_5  and  C_6
REMARK    6  A    between atoms: C_6  and  C_7
REMARK    7  A    between atoms: C_7  and  C_8
REMARK    8  A    between atoms: C_8  and  O_9
REMARK                            x       y       z     vdW  Elec       q    Type
REMARK                         _______ _______ _______ _____ _____    ______ ____
ROOT
ATOM      1  C   UNL     1      -1.380  12.407  21.432  0.00  0.00    +0.000 C 
ATOM      2  C   UNL     1      -0.500  13.615  21.891  0.00  0.00    +0.000 C 
ATOM      3  O   UNL     1      -0.169  13.877  23.044  0.00  0.00    +0.000 OA
ATOM      4  O   UNL     1      -0.038  14.300  20.832  0.00  0.00    +0.000 OA
ATOM      5  C   UNL     1       1.133  13.596  20.508  0.00  0.00    +0.000 C 
ATOM      6  C   UNL     1       0.895  12.121  20.434  0.00  0.00    +0.000 A 
ATOM      7  C   UNL     1      -0.075  11.400  21.095  0.00  0.00    +0.000 A 
ATOM      8  C   UNL     1       0.236   9.835  21.016  0.00  0.00    +0.000 A 
ATOM      9  C   UNL     1       1.085   9.297  20.059  0.00  0.00    +0.000 A 
ATOM     10  N   UNL     1       1.455  10.200  19.078  0.00  0.00    +0.000 N 
ATOM     11  C   UNL     1       1.478  11.548  19.205  0.00  0.00    +0.000 A 
ATOM     12  O   UNL     1       1.936  12.265  18.338  0.00  0.00    +0.000 OA
ATOM     13  C   UNL     1       1.930   9.636  17.849  0.00  0.00    +0.000 C 
ATOM     14  C   UNL     1       2.196   8.240  18.225  0.00  0.00    +0.000 A 
ATOM     15  C   UNL     1       2.886   7.368  17.395  0.00  0.00    +0.000 A 
ATOM     16  C   UNL     1       3.362   6.205  17.927  0.00  0.00    +0.000 A 
ATOM     17  C   UNL     1       4.107   5.344  17.075  0.00  0.00    +0.000 A 
ATOM     18  C   UNL     1       4.705   4.208  17.565  0.00  0.00    +0.000 A 
ATOM     19  C   UNL     1       4.594   3.944  18.933  0.00  0.00    +0.000 A 
ATOM     20  C   UNL     1       3.825   4.818  19.771  0.00  0.00    +0.000 A 
ATOM     21  C   UNL     1       3.125   5.975  19.324  0.00  0.00    +0.000 A 
ATOM     22  N   UNL     1       2.336   6.860  20.124  0.00  0.00    +0.000 NA
ATOM     23  C   UNL     1       1.822   7.976  19.543  0.00  0.00    +0.000 A 
ENDROOT
BRANCH   1  24
ATOM     24  O   UNL     1      -2.035  12.340  20.155  0.00  0.00    +0.000 OA
ATOM     25  H   UNL     1      -1.367  12.291  19.443  0.00  0.00    +0.000 HD
ENDBRANCH   1  24
BRANCH   1  26
ATOM     26  C   UNL     1      -2.599  12.938  22.386  0.00  0.00    +0.000 C 
BRANCH  26  27
ATOM     27  C   UNL     1      -3.974  13.338  21.541  0.00  0.00    +0.000 C 
BRANCH  27  28
ATOM     28  O   UNL     1      -4.912  12.252  21.407  0.00  0.00    +0.000 OA
BRANCH  28  29
ATOM     29  C   UNL     1      -5.605  12.242  20.128  0.00  0.00    +0.000 C 
BRANCH  29  30
ATOM     30  O   UNL     1      -4.785  11.949  18.992  0.00  0.00    +0.000 OA
BRANCH  30  32
ATOM     31  C   UNL     1      -6.798  10.670  18.544  0.00  0.00    +0.000 C 
ATOM     32  C   UNL     1      -5.491  11.219  17.989  0.00  0.00    +0.000 C 
ENDBRANCH  30  32
ENDBRANCH  29  30
ENDBRANCH  28  29
ENDBRANCH  27  28
ENDBRANCH  26  27
ENDBRANCH   1  26
TORSDOF 7
ENDMDL
MODEL 9
REMARK VINA RESULT:      -7.4      1.560      2.067
REMARK  Name = 
REMARK  8 active torsions:
REMARK  status: ('A' for Active; 'I' for Inactive)
REMARK    1  A    between atoms: C_1  and  C_2
REMARK    2  A    between atoms: C_2  and  O_3
REMARK    3  A    between atoms: O_3  and  C_4
REMARK    4  A    between atoms: C_4  and  O_5
REMARK    5  A    between atoms: O_5  and  C_6
REMARK    6  A    between atoms: C_6  and  C_7
REMARK    7  A    between atoms: C_7  and  C_8
REMARK    8  A    between atoms: C_8  and  O_9
REMARK                            x       y       z     vdW  Elec       q    Type
REMARK                         _______ _______ _______ _____ _____    ______ ____
ROOT
ATOM      1  C   UNL     1       5.527   4.694  16.428  0.00  0.00    +0.000 C 
ATOM      2  C   UNL     1       6.625   4.358  17.490  0.00  0.00    +0.000 C 
ATOM      3  O   UNL     1       7.802   4.703  17.453  0.00  0.00    +0.000 OA
ATOM      4  O   UNL     1       6.090   3.718  18.543  0.00  0.00    +0.000 OA
ATOM      5  C   UNL     1       5.661   4.781  19.353  0.00  0.00    +0.000 C 
ATOM      6  C   UNL     1       4.873   5.791  18.579  0.00  0.00    +0.000 A 
ATOM      7  C   UNL     1       4.966   6.062  17.231  0.00  0.00    +0.000 A 
ATOM      8  C   UNL     1       4.217   7.429  16.881  0.00  0.00    +0.000 A 
ATOM      9  C   UNL     1       3.263   7.987  17.721  0.00  0.00    +0.000 A 
ATOM     10  N   UNL     1       2.884   7.152  18.758  0.00  0.00    +0.000 N 
ATOM     11  C   UNL     1       3.625   6.147  19.281  0.00  0.00    +0.000 A 
ATOM     12  O   UNL     1       3.273   5.542  20.274  0.00  0.00    +0.000 OA
ATOM     13  C   UNL     1       1.624   7.444  19.374  0.00  0.00    +0.000 C 
ATOM     14  C   UNL     1       1.343   8.803  18.888  0.00  0.00    +0.000 A 
ATOM     15  C   UNL     1       0.320   9.580  19.413  0.00  0.00    +0.000 A 
ATOM     16  C   UNL     1       0.316  10.918  19.141  0.00  0.00    +0.000 A 
ATOM     17  C   UNL     1      -0.713  11.707  19.724  0.00  0.00    +0.000 A 
ATOM     18  C   UNL     1      -0.722  13.075  19.581  0.00  0.00    +0.000 A 
ATOM     19  C   UNL     1       0.331  13.669  18.881  0.00  0.00    +0.000 A 
ATOM     20  C   UNL     1       1.351  12.852  18.288  0.00  0.00    +0.000 A 
ATOM     21  C   UNL     1       1.391  11.429  18.339  0.00  0.00    +0.000 A 
ATOM     22  N   UNL     1       2.379  10.580  17.748  0.00  0.00    +0.000 NA
ATOM     23  C   UNL     1       2.312   9.243  17.987  0.00  0.00    +0.000 A 
ENDROOT
BRANCH   1  24
ATOM     24  O   UNL     1       4.282   3.986  16.319  0.00  0.00    +0.000 OA
ATOM     25  H   UNL     1       3.636   4.528  15.823  0.00  0.00    +0.000 HD
ENDBRANCH   1  24
BRANCH   1  26
ATOM     26  C   UNL     1       6.419   3.948  15.277  0.00  0.00    +0.000 C 
BRANCH  26  27
ATOM     27  C   UNL     1       6.219   4.600  13.761  0.00  0.00    +0.000 C 
BRANCH  27  28
ATOM     28  O   UNL     1       6.456   3.665  12.689  0.00  0.00    +0.000 OA
BRANCH  28  29
ATOM     29  C   UNL     1       5.237   3.070  12.163  0.00  0.00    +0.000 C 
BRANCH  29  30
ATOM     30  O   UNL     1       4.392   3.959  11.427  0.00  0.00    +0.000 OA
BRANCH  30  32
ATOM     31  C   UNL     1       2.838   4.192   9.577  0.00  0.00    +0.000 C 
ATOM     32  C   UNL     1       3.446   3.261  10.617  0.00  0.00    +0.000 C 
ENDBRANCH  30  32
ENDBRANCH  29  30
ENDBRANCH  28  29
ENDBRANCH  27  28
ENDBRANCH  26  27
ENDBRANCH   1  26
TORSDOF 7
ENDMDL
