MODEL 1
REMARK VINA RESULT:      -9.9      0.000      0.000
REMARK  Name = 
REMARK  1 active torsions:
REMARK  status: ('A' for Active; 'I' for Inactive)
REMARK    1  A    between atoms: C_19  and  C_20
REMARK                            x       y       z     vdW  Elec       q    Type
REMARK                         _______ _______ _______ _____ _____    ______ ____
ROOT
ATOM      1  O   UNL     1       3.472   8.663  17.139  0.00  0.00    +0.000 OA
ATOM      2  C   UNL     1       2.840   8.310  18.114  0.00  0.00    +0.000 C 
ATOM      3  C   UNL     1       1.811   9.153  18.719  0.00  0.00    +0.000 A 
ATOM      4  C   UNL     1       1.440  10.433  18.355  0.00  0.00    +0.000 A 
ATOM      5  C   UNL     1       0.385  11.000  19.051  0.00  0.00    +0.000 A 
ATOM      6  C   UNL     1      -0.264  10.267  20.080  0.00  0.00    +0.000 A 
ATOM      7  C   UNL     1       0.157   8.979  20.432  0.00  0.00    +0.000 A 
ATOM      8  C   UNL     1       1.212   8.418  19.742  0.00  0.00    +0.000 A 
ATOM      9  C   UNL     1       1.875   7.137  19.843  0.00  0.00    +0.000 A 
ATOM     10  N   UNL     1       1.539   6.162  20.700  0.00  0.00    +0.000 NA
ATOM     11  C   UNL     1       2.299   5.044  20.614  0.00  0.00    +0.000 A 
ATOM     12  N   UNL     1       1.912   3.995  21.437  0.00  0.00    +0.000 N 
ATOM     13  C   UNL     1       2.488   2.767  21.421  0.00  0.00    +0.000 A 
ATOM     14  O   UNL     1       2.098   1.858  22.146  0.00  0.00    +0.000 OA
ATOM     15  N   UNL     1       3.543   2.608  20.575  0.00  0.00    +0.000 N 
ATOM     16  C   UNL     1       4.179   3.636  19.928  0.00  0.00    +0.000 A 
ATOM     17  O   UNL     1       5.351   3.530  19.589  0.00  0.00    +0.000 OA
ATOM     18  C   UNL     1       3.390   4.879  19.741  0.00  0.00    +0.000 A 
ATOM     19  C   UNL     1       3.689   5.884  18.792  0.00  0.00    +0.000 A 
ATOM     20  C   UNL     1       2.893   7.034  18.890  0.00  0.00    +0.000 A 
ATOM     21  H   UNL     1       1.116   4.140  22.042  0.00  0.00    +0.000 HD
ATOM     22  H   UNL     1       4.066   1.750  20.687  0.00  0.00    +0.000 HD
ENDROOT
BRANCH  19  23
ATOM     23  C   UNL     1       4.699   5.753  17.726  0.00  0.00    +0.000 A 
ATOM     24  C   UNL     1       5.967   6.365  17.791  0.00  0.00    +0.000 A 
ATOM     25  C   UNL     1       6.908   6.196  16.766  0.00  0.00    +0.000 A 
ATOM     26  C   UNL     1       6.626   5.342  15.704  0.00  0.00    +0.000 A 
ATOM     27  C   UNL     1       5.430   4.646  15.700  0.00  0.00    +0.000 A 
ATOM     28  C   UNL     1       4.447   4.922  16.632  0.00  0.00    +0.000 A 
ATOM     29  O   UNL     1       5.167   3.643  14.812  0.00  0.00    +0.000 OA
ATOM     30  C   UNL     1       5.608   4.076  13.541  0.00  0.00    +0.000 C 
ATOM     31  C   UNL     1       7.068   4.524  13.544  0.00  0.00    +0.000 C 
ATOM     32  O   UNL     1       7.536   5.240  14.696  0.00  0.00    +0.000 OA
ENDBRANCH  19  23
TORSDOF 1
ENDMDL
MODEL 2
REMARK VINA RESULT:      -8.0      7.791      9.985
REMARK  Name = 
REMARK  1 active torsions:
REMARK  status: ('A' for Active; 'I' for Inactive)
REMARK    1  A    between atoms: C_19  and  C_20
REMARK                            x       y       z     vdW  Elec       q    Type
REMARK                         _______ _______ _______ _____ _____    ______ ____
ROOT
ATOM      1  O   UNL     1      -2.934  13.674  22.099  0.00  0.00    +0.000 OA
ATOM      2  C   UNL     1      -3.784  13.277  21.328  0.00  0.00    +0.000 C 
ATOM      3  C   UNL     1      -5.210  13.491  21.569  0.00  0.00    +0.000 A 
ATOM      4  C   UNL     1      -5.807  14.085  22.664  0.00  0.00    +0.000 A 
ATOM      5  C   UNL     1      -7.184  14.226  22.626  0.00  0.00    +0.000 A 
ATOM      6  C   UNL     1      -7.914  13.773  21.496  0.00  0.00    +0.000 A 
ATOM      7  C   UNL     1      -7.274  13.156  20.415  0.00  0.00    +0.000 A 
ATOM      8  C   UNL     1      -5.902  13.011  20.457  0.00  0.00    +0.000 A 
ATOM      9  C   UNL     1      -4.950  12.442  19.528  0.00  0.00    +0.000 A 
ATOM     10  N   UNL     1      -5.261  11.915  18.335  0.00  0.00    +0.000 NA
ATOM     11  C   UNL     1      -4.204  11.443  17.631  0.00  0.00    +0.000 A 
ATOM     12  N   UNL     1      -4.499  10.970  16.359  0.00  0.00    +0.000 N 
ATOM     13  C   UNL     1      -3.562  10.550  15.472  0.00  0.00    +0.000 A 
ATOM     14  O   UNL     1      -3.861  10.164  14.347  0.00  0.00    +0.000 OA
ATOM     15  N   UNL     1      -2.273  10.552  15.910  0.00  0.00    +0.000 N 
ATOM     16  C   UNL     1      -1.899  10.733  17.218  0.00  0.00    +0.000 A 
ATOM     17  O   UNL     1      -0.846  10.269  17.635  0.00  0.00    +0.000 OA
ATOM     18  C   UNL     1      -2.872  11.445  18.084  0.00  0.00    +0.000 A 
ATOM     19  C   UNL     1      -2.548  12.068  19.311  0.00  0.00    +0.000 A 
ATOM     20  C   UNL     1      -3.649  12.554  20.027  0.00  0.00    +0.000 A 
ATOM     21  H   UNL     1      -5.462  10.995  16.058  0.00  0.00    +0.000 HD
ATOM     22  H   UNL     1      -1.607  10.088  15.308  0.00  0.00    +0.000 HD
ENDROOT
BRANCH  19  23
ATOM     23  C   UNL     1      -1.174  12.272  19.806  0.00  0.00    +0.000 A 
ATOM     24  C   UNL     1      -0.531  11.374  20.681  0.00  0.00    +0.000 A 
ATOM     25  C   UNL     1       0.785  11.593  21.110  0.00  0.00    +0.000 A 
ATOM     26  C   UNL     1       1.506  12.668  20.601  0.00  0.00    +0.000 A 
ATOM     27  C   UNL     1       0.917  13.483  19.650  0.00  0.00    +0.000 A 
ATOM     28  C   UNL     1      -0.422  13.352  19.336  0.00  0.00    +0.000 A 
ATOM     29  O   UNL     1       1.620  14.425  18.954  0.00  0.00    +0.000 OA
ATOM     30  C   UNL     1       2.457  15.095  19.876  0.00  0.00    +0.000 C 
ATOM     31  C   UNL     1       3.341  14.137  20.674  0.00  0.00    +0.000 C 
ATOM     32  O   UNL     1       2.763  12.888  21.078  0.00  0.00    +0.000 OA
ENDBRANCH  19  23
TORSDOF 1
ENDMDL
MODEL 3
REMARK VINA RESULT:      -7.4      9.304     11.084
REMARK  Name = 
REMARK  1 active torsions:
REMARK  status: ('A' for Active; 'I' for Inactive)
REMARK    1  A    between atoms: C_19  and  C_20
REMARK                            x       y       z     vdW  Elec       q    Type
REMARK                         _______ _______ _______ _____ _____    ______ ____
ROOT
ATOM      1  O   UNL     1       8.030  14.923  18.557  0.00  0.00    +0.000 OA
ATOM      2  C   UNL     1       8.530  14.131  19.329  0.00  0.00    +0.000 C 
ATOM      3  C   UNL     1       9.732  13.371  18.991  0.00  0.00    +0.000 A 
ATOM      4  C   UNL     1      10.430  13.371  17.799  0.00  0.00    +0.000 A 
ATOM      5  C   UNL     1      11.583  12.605  17.750  0.00  0.00    +0.000 A 
ATOM      6  C   UNL     1      11.999  11.872  18.892  0.00  0.00    +0.000 A 
ATOM      7  C   UNL     1      11.251  11.881  20.076  0.00  0.00    +0.000 A 
ATOM      8  C   UNL     1      10.099  12.640  20.122  0.00  0.00    +0.000 A 
ATOM      9  C   UNL     1       9.123  12.874  21.163  0.00  0.00    +0.000 A 
ATOM     10  N   UNL     1       9.177  12.355  22.399  0.00  0.00    +0.000 NA
ATOM     11  C   UNL     1       8.154  12.714  23.210  0.00  0.00    +0.000 A 
ATOM     12  N   UNL     1       8.240  12.252  24.517  0.00  0.00    +0.000 N 
ATOM     13  C   UNL     1       7.364  12.588  25.497  0.00  0.00    +0.000 A 
ATOM     14  O   UNL     1       7.489  12.180  26.647  0.00  0.00    +0.000 OA
ATOM     15  N   UNL     1       6.319  13.379  25.127  0.00  0.00    +0.000 N 
ATOM     16  C   UNL     1       5.986  13.665  23.827  0.00  0.00    +0.000 A 
ATOM     17  O   UNL     1       4.833  13.950  23.528  0.00  0.00    +0.000 OA
ATOM     18  C   UNL     1       7.075  13.532  22.828  0.00  0.00    +0.000 A 
ATOM     19  C   UNL     1       7.066  14.131  21.547  0.00  0.00    +0.000 A 
ATOM     20  C   UNL     1       8.132  13.753  20.720  0.00  0.00    +0.000 A 
ATOM     21  H   UNL     1       9.034  11.680  24.763  0.00  0.00    +0.000 HD
ATOM     22  H   UNL     1       5.590  13.489  25.817  0.00  0.00    +0.000 HD
ENDROOT
BRANCH  19  23
ATOM     23  C   UNL     1       6.077  15.128  21.098  0.00  0.00    +0.000 A 
ATOM     24  C   UNL     1       6.210  16.508  21.347  0.00  0.00    +0.000 A 
ATOM     25  C   UNL     1       5.258  17.426  20.882  0.00  0.00    +0.000 A 
ATOM     26  C   UNL     1       4.205  16.985  20.088  0.00  0.00    +0.000 A 
ATOM     27  C   UNL     1       4.139  15.646  19.742  0.00  0.00    +0.000 A 
ATOM     28  C   UNL     1       4.992  14.723  20.316  0.00  0.00    +0.000 A 
ATOM     29  O   UNL     1       3.264  15.173  18.806  0.00  0.00    +0.000 OA
ATOM     30  C   UNL     1       2.014  15.788  19.045  0.00  0.00    +0.000 C 
ATOM     31  C   UNL     1       2.105  17.313  19.081  0.00  0.00    +0.000 C 
ATOM     32  O   UNL     1       3.266  17.890  19.697  0.00  0.00    +0.000 OA
ENDBRANCH  19  23
TORSDOF 1
ENDMDL
MODEL 4
REMARK VINA RESULT:      -7.3      8.685     10.805
REMARK  Name = 
REMARK  1 active torsions:
REMARK  status: ('A' for Active; 'I' for Inactive)
REMARK    1  A    between atoms: C_19  and  C_20
REMARK                            x       y       z     vdW  Elec       q    Type
REMARK                         _______ _______ _______ _____ _____    ______ ____
ROOT
ATOM      1  O   UNL     1      -3.162  14.215  22.899  0.00  0.00    +0.000 OA
ATOM      2  C   UNL     1      -3.907  13.552  22.206  0.00  0.00    +0.000 C 
ATOM      3  C   UNL     1      -5.285  13.266  22.602  0.00  0.00    +0.000 A 
ATOM      4  C   UNL     1      -5.922  13.621  23.775  0.00  0.00    +0.000 A 
ATOM      5  C   UNL     1      -7.261  13.284  23.885  0.00  0.00    +0.000 A 
ATOM      6  C   UNL     1      -7.915  12.609  22.820  0.00  0.00    +0.000 A 
ATOM      7  C   UNL     1      -7.227  12.248  21.656  0.00  0.00    +0.000 A 
ATOM      8  C   UNL     1      -5.891  12.580  21.549  0.00  0.00    +0.000 A 
ATOM      9  C   UNL     1      -4.912  12.370  20.506  0.00  0.00    +0.000 A 
ATOM     10  N   UNL     1      -5.155  11.769  19.332  0.00  0.00    +0.000 NA
ATOM     11  C   UNL     1      -4.085  11.686  18.505  0.00  0.00    +0.000 A 
ATOM     12  N   UNL     1      -4.341  11.142  17.254  0.00  0.00    +0.000 N 
ATOM     13  C   UNL     1      -3.421  11.067  16.259  0.00  0.00    +0.000 A 
ATOM     14  O   UNL     1      -3.694  10.602  15.157  0.00  0.00    +0.000 OA
ATOM     15  N   UNL     1      -2.169  11.508  16.561  0.00  0.00    +0.000 N 
ATOM     16  C   UNL     1      -1.737  11.805  17.828  0.00  0.00    +0.000 A 
ATOM     17  O   UNL     1      -0.550  11.729  18.116  0.00  0.00    +0.000 OA
ATOM     18  C   UNL     1      -2.791  12.142  18.817  0.00  0.00    +0.000 A 
ATOM     19  C   UNL     1      -2.564  12.838  20.026  0.00  0.00    +0.000 A 
ATOM     20  C   UNL     1      -3.679  12.919  20.871  0.00  0.00    +0.000 A 
ATOM     21  H   UNL     1      -5.283  10.837  17.056  0.00  0.00    +0.000 HD
ATOM     22  H   UNL     1      -1.457  11.300  15.876  0.00  0.00    +0.000 HD
ENDROOT
BRANCH  19  23
ATOM     23  C   UNL     1      -1.295  13.499  20.384  0.00  0.00    +0.000 A 
ATOM     24  C   UNL     1      -0.312  12.889  21.189  0.00  0.00    +0.000 A 
ATOM     25  C   UNL     1       0.891  13.543  21.486  0.00  0.00    +0.000 A 
ATOM     26  C   UNL     1       1.164  14.780  20.911  0.00  0.00    +0.000 A 
ATOM     27  C   UNL     1       0.252  15.326  20.025  0.00  0.00    +0.000 A 
ATOM     28  C   UNL     1      -0.992  14.752  19.845  0.00  0.00    +0.000 A 
ATOM     29  O   UNL     1       0.535  16.426  19.266  0.00  0.00    +0.000 OA
ATOM     30  C   UNL     1       1.186  17.361  20.102  0.00  0.00    +0.000 C 
ATOM     31  C   UNL     1       2.408  16.774  20.806  0.00  0.00    +0.000 C 
ATOM     32  O   UNL     1       2.317  15.416  21.262  0.00  0.00    +0.000 OA
ENDBRANCH  19  23
TORSDOF 1
ENDMDL
MODEL 5
REMARK VINA RESULT:      -7.2      0.845      1.492
REMARK  Name = 
REMARK  1 active torsions:
REMARK  status: ('A' for Active; 'I' for Inactive)
REMARK    1  A    between atoms: C_19  and  C_20
REMARK                            x       y       z     vdW  Elec       q    Type
REMARK                         _______ _______ _______ _____ _____    ______ ____
ROOT
ATOM      1  O   UNL     1       3.247   8.036  16.804  0.00  0.00    +0.000 OA
ATOM      2  C   UNL     1       2.752   7.869  17.900  0.00  0.00    +0.000 C 
ATOM      3  C   UNL     1       2.039   8.935  18.601  0.00  0.00    +0.000 A 
ATOM      4  C   UNL     1       1.865  10.246  18.200  0.00  0.00    +0.000 A 
ATOM      5  C   UNL     1       1.090  11.052  19.018  0.00  0.00    +0.000 A 
ATOM      6  C   UNL     1       0.515  10.520  20.202  0.00  0.00    +0.000 A 
ATOM      7  C   UNL     1       0.734   9.191  20.584  0.00  0.00    +0.000 A 
ATOM      8  C   UNL     1       1.510   8.390  19.771  0.00  0.00    +0.000 A 
ATOM      9  C   UNL     1       1.916   7.006  19.864  0.00  0.00    +0.000 A 
ATOM     10  N   UNL     1       1.564   6.164  20.846  0.00  0.00    +0.000 NA
ATOM     11  C   UNL     1       2.060   4.910  20.725  0.00  0.00    +0.000 A 
ATOM     12  N   UNL     1       1.636   4.005  21.689  0.00  0.00    +0.000 N 
ATOM     13  C   UNL     1       1.947   2.684  21.677  0.00  0.00    +0.000 A 
ATOM     14  O   UNL     1       1.530   1.912  22.533  0.00  0.00    +0.000 OA
ATOM     15  N   UNL     1       2.774   2.269  20.678  0.00  0.00    +0.000 N 
ATOM     16  C   UNL     1       3.466   3.111  19.844  0.00  0.00    +0.000 A 
ATOM     17  O   UNL     1       4.509   2.747  19.317  0.00  0.00    +0.000 OA
ATOM     18  C   UNL     1       2.914   4.480  19.692  0.00  0.00    +0.000 A 
ATOM     19  C   UNL     1       3.221   5.355  18.625  0.00  0.00    +0.000 A 
ATOM     20  C   UNL     1       2.698   6.648  18.762  0.00  0.00    +0.000 A 
ATOM     21  H   UNL     1       1.012   4.341  22.408  0.00  0.00    +0.000 HD
ATOM     22  H   UNL     1       3.129   1.328  20.769  0.00  0.00    +0.000 HD
ENDROOT
BRANCH  19  23
ATOM     23  C   UNL     1       3.968   4.966  17.415  0.00  0.00    +0.000 A 
ATOM     24  C   UNL     1       3.467   4.057  16.461  0.00  0.00    +0.000 A 
ATOM     25  C   UNL     1       4.199   3.732  15.312  0.00  0.00    +0.000 A 
ATOM     26  C   UNL     1       5.405   4.376  15.057  0.00  0.00    +0.000 A 
ATOM     27  C   UNL     1       5.842   5.357  15.931  0.00  0.00    +0.000 A 
ATOM     28  C   UNL     1       5.194   5.574  17.133  0.00  0.00    +0.000 A 
ATOM     29  O   UNL     1       6.898   6.174  15.648  0.00  0.00    +0.000 OA
ATOM     30  C   UNL     1       7.922   5.369  15.099  0.00  0.00    +0.000 C 
ATOM     31  C   UNL     1       7.447   4.547  13.902  0.00  0.00    +0.000 C 
ATOM     32  O   UNL     1       6.122   4.000  13.961  0.00  0.00    +0.000 OA
ENDBRANCH  19  23
TORSDOF 1
ENDMDL
MODEL 6
REMARK VINA RESULT:      -7.2      9.474     12.098
REMARK  Name = 
REMARK  1 active torsions:
REMARK  status: ('A' for Active; 'I' for Inactive)
REMARK    1  A    between atoms: C_19  and  C_20
REMARK                            x       y       z     vdW  Elec       q    Type
REMARK                         _______ _______ _______ _____ _____    ______ ____
ROOT
ATOM      1  O   UNL     1       9.804  13.434  22.168  0.00  0.00    +0.000 OA
ATOM      2  C   UNL     1       9.501  13.472  20.994  0.00  0.00    +0.000 C 
ATOM      3  C   UNL     1      10.334  12.867  19.956  0.00  0.00    +0.000 A 
ATOM      4  C   UNL     1      11.556  12.240  20.107  0.00  0.00    +0.000 A 
ATOM      5  C   UNL     1      12.120  11.689  18.969  0.00  0.00    +0.000 A 
ATOM      6  C   UNL     1      11.443  11.779  17.724  0.00  0.00    +0.000 A 
ATOM      7  C   UNL     1      10.216  12.442  17.610  0.00  0.00    +0.000 A 
ATOM      8  C   UNL     1       9.657  12.996  18.744  0.00  0.00    +0.000 A 
ATOM      9  C   UNL     1       8.428  13.723  18.973  0.00  0.00    +0.000 A 
ATOM     10  N   UNL     1       7.513  14.003  18.033  0.00  0.00    +0.000 NA
ATOM     11  C   UNL     1       6.436  14.693  18.478  0.00  0.00    +0.000 A 
ATOM     12  N   UNL     1       5.441  14.918  17.536  0.00  0.00    +0.000 N 
ATOM     13  C   UNL     1       4.250  15.504  17.817  0.00  0.00    +0.000 A 
ATOM     14  O   UNL     1       3.386  15.661  16.961  0.00  0.00    +0.000 OA
ATOM     15  N   UNL     1       4.078  15.936  19.097  0.00  0.00    +0.000 N 
ATOM     16  C   UNL     1       5.082  16.015  20.029  0.00  0.00    +0.000 A 
ATOM     17  O   UNL     1       5.012  16.815  20.953  0.00  0.00    +0.000 OA
ATOM     18  C   UNL     1       6.258  15.140  19.801  0.00  0.00    +0.000 A 
ATOM     19  C   UNL     1       7.193  14.777  20.797  0.00  0.00    +0.000 A 
ATOM     20  C   UNL     1       8.301  14.060  20.323  0.00  0.00    +0.000 A 
ATOM     21  H   UNL     1       5.593  14.573  16.599  0.00  0.00    +0.000 HD
ATOM     22  H   UNL     1       3.264  16.512  19.257  0.00  0.00    +0.000 HD
ENDROOT
BRANCH  19  23
ATOM     23  C   UNL     1       7.028  15.048  22.237  0.00  0.00    +0.000 A 
ATOM     24  C   UNL     1       7.535  16.204  22.863  0.00  0.00    +0.000 A 
ATOM     25  C   UNL     1       7.335  16.435  24.231  0.00  0.00    +0.000 A 
ATOM     26  C   UNL     1       6.552  15.557  24.972  0.00  0.00    +0.000 A 
ATOM     27  C   UNL     1       5.953  14.486  24.332  0.00  0.00    +0.000 A 
ATOM     28  C   UNL     1       6.266  14.179  23.021  0.00  0.00    +0.000 A 
ATOM     29  O   UNL     1       5.011  13.704  24.936  0.00  0.00    +0.000 OA
ATOM     30  C   UNL     1       5.461  13.436  26.249  0.00  0.00    +0.000 C 
ATOM     31  C   UNL     1       5.793  14.707  27.029  0.00  0.00    +0.000 C 
ATOM     32  O   UNL     1       6.421  15.778  26.310  0.00  0.00    +0.000 OA
ENDBRANCH  19  23
TORSDOF 1
ENDMDL
MODEL 7
REMARK VINA RESULT:      -7.2      5.556     10.373
REMARK  Name = 
REMARK  1 active torsions:
REMARK  status: ('A' for Active; 'I' for Inactive)
REMARK    1  A    between atoms: C_19  and  C_20
REMARK                            x       y       z     vdW  Elec       q    Type
REMARK                         _______ _______ _______ _____ _____    ______ ____
ROOT
ATOM      1  O   UNL     1      -0.087  15.559  21.928  0.00  0.00    +0.000 OA
ATOM      2  C   UNL     1       0.731  15.214  21.100  0.00  0.00    +0.000 C 
ATOM      3  C   UNL     1       1.867  16.057  20.733  0.00  0.00    +0.000 A 
ATOM      4  C   UNL     1       2.161  17.330  21.184  0.00  0.00    +0.000 A 
ATOM      5  C   UNL     1       3.340  17.897  20.729  0.00  0.00    +0.000 A 
ATOM      6  C   UNL     1       4.183  17.173  19.845  0.00  0.00    +0.000 A 
ATOM      7  C   UNL     1       3.838  15.894  19.394  0.00  0.00    +0.000 A 
ATOM      8  C   UNL     1       2.660  15.331  19.844  0.00  0.00    +0.000 A 
ATOM      9  C   UNL     1       2.025  14.057  19.589  0.00  0.00    +0.000 A 
ATOM     10  N   UNL     1       2.525  13.092  18.804  0.00  0.00    +0.000 NA
ATOM     11  C   UNL     1       1.758  11.979  18.715  0.00  0.00    +0.000 A 
ATOM     12  N   UNL     1       2.302  10.938  17.973  0.00  0.00    +0.000 N 
ATOM     13  C   UNL     1       1.728   9.715  17.852  0.00  0.00    +0.000 A 
ATOM     14  O   UNL     1       2.254   8.813  17.209  0.00  0.00    +0.000 OA
ATOM     15  N   UNL     1       0.520   9.553  18.460  0.00  0.00    +0.000 N 
ATOM     16  C   UNL     1      -0.230  10.577  18.978  0.00  0.00    +0.000 A 
ATOM     17  O   UNL     1      -1.447  10.476  19.067  0.00  0.00    +0.000 OA
ATOM     18  C   UNL     1       0.510  11.811  19.343  0.00  0.00    +0.000 A 
ATOM     19  C   UNL     1       0.028  12.805  20.224  0.00  0.00    +0.000 A 
ATOM     20  C   UNL     1       0.832  13.949  20.309  0.00  0.00    +0.000 A 
ATOM     21  H   UNL     1       3.205  11.085  17.547  0.00  0.00    +0.000 HD
ATOM     22  H   UNL     1       0.028   8.701  18.230  0.00  0.00    +0.000 HD
ENDROOT
BRANCH  19  23
ATOM     23  C   UNL     1      -1.181  12.668  21.057  0.00  0.00    +0.000 A 
ATOM     24  C   UNL     1      -1.174  12.051  22.324  0.00  0.00    +0.000 A 
ATOM     25  C   UNL     1      -2.342  11.962  23.095  0.00  0.00    +0.000 A 
ATOM     26  C   UNL     1      -3.512  12.564  22.646  0.00  0.00    +0.000 A 
ATOM     27  C   UNL     1      -3.491  13.274  21.458  0.00  0.00    +0.000 A 
ATOM     28  C   UNL     1      -2.383  13.240  20.633  0.00  0.00    +0.000 A 
ATOM     29  O   UNL     1      -4.532  14.060  21.055  0.00  0.00    +0.000 OA
ATOM     30  C   UNL     1      -5.725  13.342  21.297  0.00  0.00    +0.000 C 
ATOM     31  C   UNL     1      -5.843  12.866  22.744  0.00  0.00    +0.000 C 
ATOM     32  O   UNL     1      -4.644  12.413  23.390  0.00  0.00    +0.000 OA
ENDBRANCH  19  23
TORSDOF 1
ENDMDL
MODEL 8
REMARK VINA RESULT:      -7.1      6.207     10.729
REMARK  Name = 
REMARK  1 active torsions:
REMARK  status: ('A' for Active; 'I' for Inactive)
REMARK    1  A    between atoms: C_19  and  C_20
REMARK                            x       y       z     vdW  Elec       q    Type
REMARK                         _______ _______ _______ _____ _____    ______ ____
ROOT
ATOM      1  O   UNL     1      -4.430  14.280  21.253  0.00  0.00    +0.000 OA
ATOM      2  C   UNL     1      -4.268  13.394  20.439  0.00  0.00    +0.000 C 
ATOM      3  C   UNL     1      -5.359  12.900  19.601  0.00  0.00    +0.000 A 
ATOM      4  C   UNL     1      -6.686  13.282  19.624  0.00  0.00    +0.000 A 
ATOM      5  C   UNL     1      -7.518  12.705  18.677  0.00  0.00    +0.000 A 
ATOM      6  C   UNL     1      -6.994  11.774  17.742  0.00  0.00    +0.000 A 
ATOM      7  C   UNL     1      -5.646  11.398  17.767  0.00  0.00    +0.000 A 
ATOM      8  C   UNL     1      -4.819  11.969  18.713  0.00  0.00    +0.000 A 
ATOM      9  C   UNL     1      -3.411  11.813  19.002  0.00  0.00    +0.000 A 
ATOM     10  N   UNL     1      -2.570  11.019  18.324  0.00  0.00    +0.000 NA
ATOM     11  C   UNL     1      -1.291  11.035  18.771  0.00  0.00    +0.000 A 
ATOM     12  N   UNL     1      -0.391  10.282  18.027  0.00  0.00    +0.000 N 
ATOM     13  C   UNL     1       0.945  10.253  18.261  0.00  0.00    +0.000 A 
ATOM     14  O   UNL     1       1.711   9.595  17.564  0.00  0.00    +0.000 OA
ATOM     15  N   UNL     1       1.386  10.970  19.331  0.00  0.00    +0.000 N 
ATOM     16  C   UNL     1       0.568  11.519  20.286  0.00  0.00    +0.000 A 
ATOM     17  O   UNL     1       0.981  11.719  21.421  0.00  0.00    +0.000 OA
ATOM     18  C   UNL     1      -0.835  11.776  19.877  0.00  0.00    +0.000 A 
ATOM     19  C   UNL     1      -1.714  12.664  20.538  0.00  0.00    +0.000 A 
ATOM     20  C   UNL     1      -3.032  12.640  20.064  0.00  0.00    +0.000 A 
ATOM     21  H   UNL     1      -0.747   9.773  17.232  0.00  0.00    +0.000 HD
ATOM     22  H   UNL     1       2.349  10.813  19.594  0.00  0.00    +0.000 HD
ENDROOT
BRANCH  19  23
ATOM     23  C   UNL     1      -1.309  13.605  21.598  0.00  0.00    +0.000 A 
ATOM     24  C   UNL     1      -1.555  13.372  22.966  0.00  0.00    +0.000 A 
ATOM     25  C   UNL     1      -1.132  14.282  23.945  0.00  0.00    +0.000 A 
ATOM     26  C   UNL     1      -0.381  15.393  23.576  0.00  0.00    +0.000 A 
ATOM     27  C   UNL     1      -0.035  15.559  22.246  0.00  0.00    +0.000 A 
ATOM     28  C   UNL     1      -0.572  14.744  21.268  0.00  0.00    +0.000 A 
ATOM     29  O   UNL     1       0.865  16.500  21.835  0.00  0.00    +0.000 OA
ATOM     30  C   UNL     1       0.573  17.697  22.528  0.00  0.00    +0.000 C 
ATOM     31  C   UNL     1       0.537  17.507  24.043  0.00  0.00    +0.000 C 
ATOM     32  O   UNL     1      -0.032  16.288  24.542  0.00  0.00    +0.000 OA
ENDBRANCH  19  23
TORSDOF 1
ENDMDL
MODEL 9
REMARK VINA RESULT:      -7.0      9.343     12.017
REMARK  Name = 
REMARK  1 active torsions:
REMARK  status: ('A' for Active; 'I' for Inactive)
REMARK    1  A    between atoms: C_19  and  C_20
REMARK                            x       y       z     vdW  Elec       q    Type
REMARK                         _______ _______ _______ _____ _____    ______ ____
ROOT
ATOM      1  O   UNL     1       9.718  11.857  21.940  0.00  0.00    +0.000 OA
ATOM      2  C   UNL     1       9.468  12.567  20.988  0.00  0.00    +0.000 C 
ATOM      3  C   UNL     1      10.249  12.517  19.754  0.00  0.00    +0.000 A 
ATOM      4  C   UNL     1      11.368  11.751  19.489  0.00  0.00    +0.000 A 
ATOM      5  C   UNL     1      11.895  11.837  18.210  0.00  0.00    +0.000 A 
ATOM      6  C   UNL     1      11.284  12.678  17.244  0.00  0.00    +0.000 A 
ATOM      7  C   UNL     1      10.163  13.455  17.560  0.00  0.00    +0.000 A 
ATOM      8  C   UNL     1       9.642  13.373  18.835  0.00  0.00    +0.000 A 
ATOM      9  C   UNL     1       8.515  14.017  19.474  0.00  0.00    +0.000 A 
ATOM     10  N   UNL     1       7.683  14.882  18.877  0.00  0.00    +0.000 NA
ATOM     11  C   UNL     1       6.694  15.357  19.671  0.00  0.00    +0.000 A 
ATOM     12  N   UNL     1       5.775  16.189  19.045  0.00  0.00    +0.000 N 
ATOM     13  C   UNL     1       4.665  16.682  19.649  0.00  0.00    +0.000 A 
ATOM     14  O   UNL     1       3.863  17.393  19.053  0.00  0.00    +0.000 OA
ATOM     15  N   UNL     1       4.505  16.368  20.965  0.00  0.00    +0.000 N 
ATOM     16  C   UNL     1       5.474  15.793  21.747  0.00  0.00    +0.000 A 
ATOM     17  O   UNL     1       5.479  15.964  22.959  0.00  0.00    +0.000 OA
ATOM     18  C   UNL     1       6.529  15.033  21.030  0.00  0.00    +0.000 A 
ATOM     19  C   UNL     1       7.368  14.066  21.629  0.00  0.00    +0.000 A 
ATOM     20  C   UNL     1       8.384  13.580  20.796  0.00  0.00    +0.000 A 
ATOM     21  H   UNL     1       5.914  16.392  18.065  0.00  0.00    +0.000 HD
ATOM     22  H   UNL     1       3.771  16.868  21.446  0.00  0.00    +0.000 HD
ENDROOT
BRANCH  19  23
ATOM     23  C   UNL     1       7.186  13.531  22.991  0.00  0.00    +0.000 A 
ATOM     24  C   UNL     1       6.345  12.439  23.281  0.00  0.00    +0.000 A 
ATOM     25  C   UNL     1       6.218  11.946  24.587  0.00  0.00    +0.000 A 
ATOM     26  C   UNL     1       6.999  12.483  25.606  0.00  0.00    +0.000 A 
ATOM     27  C   UNL     1       7.914  13.475  25.300  0.00  0.00    +0.000 A 
ATOM     28  C   UNL     1       7.935  14.057  24.046  0.00  0.00    +0.000 A 
ATOM     29  O   UNL     1       8.854  13.906  26.191  0.00  0.00    +0.000 OA
ATOM     30  C   UNL     1       8.215  14.052  27.443  0.00  0.00    +0.000 C 
ATOM     31  C   UNL     1       7.488  12.783  27.886  0.00  0.00    +0.000 C 
ATOM     32  O   UNL     1       6.814  12.022  26.874  0.00  0.00    +0.000 OA
ENDBRANCH  19  23
TORSDOF 1
ENDMDL
