MODEL 1
REMARK VINA RESULT:      -6.2      0.000      0.000
REMARK  Name = 
REMARK  8 active torsions:
REMARK  status: ('A' for Active; 'I' for Inactive)
REMARK    1  A    between atoms: C_1  and  C_2
REMARK    2  A    between atoms: C_5  and  S_6
REMARK    3  A    between atoms: S_6  and  O_9
REMARK    4  A    between atoms: O_9  and  C_10
REMARK    5  A    between atoms: C_10  and  C_11
REMARK    6  A    between atoms: C_11  and  O_12
REMARK    7  A    between atoms: O_12  and  C_13
REMARK    8  A    between atoms: C_13  and  C_14
REMARK                            x       y       z     vdW  Elec       q    Type
REMARK                         _______ _______ _______ _____ _____    ______ ____
ROOT
ATOM      1  S   UNL     1       6.148   5.328  18.460  0.00  0.00    +0.000 S 
ATOM      2  O   UNL     1       5.889   6.575  17.772  0.00  0.00    +0.000 OA
ATOM      3  O   UNL     1       6.744   5.309  19.783  0.00  0.00    +0.000 OA
ENDROOT
BRANCH   1   8
ATOM      4  C   UNL     1       0.789   2.499  18.845  0.00  0.00    +0.000 C 
ATOM      5  C   UNL     1       2.121   3.185  18.753  0.00  0.00    +0.000 A 
ATOM      6  C   UNL     1       3.234   2.691  19.450  0.00  0.00    +0.000 A 
ATOM      7  C   UNL     1       4.471   3.337  19.367  0.00  0.00    +0.000 A 
ATOM      8  C   UNL     1       4.592   4.481  18.578  0.00  0.00    +0.000 A 
ATOM      9  C   UNL     1       3.492   4.989  17.878  0.00  0.00    +0.000 A 
ATOM     10  C   UNL     1       2.259   4.337  17.966  0.00  0.00    +0.000 A 
ENDBRANCH   1   8
BRANCH   1  11
ATOM     11  O   UNL     1       7.084   4.396  17.500  0.00  0.00    +0.000 OA
BRANCH  11  12
ATOM     12  C   UNL     1       6.996   4.652  16.101  0.00  0.00    +0.000 C 
BRANCH  12  13
ATOM     13  C   UNL     1       6.019   3.688  15.434  0.00  0.00    +0.000 C 
BRANCH  13  14
ATOM     14  O   UNL     1       5.572   4.236  14.190  0.00  0.00    +0.000 OA
BRANCH  14  15
ATOM     15  C   UNL     1       6.459   3.902  13.120  0.00  0.00    +0.000 C 
BRANCH  15  16
ATOM     16  C   UNL     1       5.716   3.089  12.075  0.00  0.00    +0.000 C 
ATOM     17  F   UNL     1       4.435   3.536  11.985  0.00  0.00    +0.000 F 
ENDBRANCH  15  16
ENDBRANCH  14  15
ENDBRANCH  13  14
ENDBRANCH  12  13
ENDBRANCH  11  12
ENDBRANCH   1  11
TORSDOF 7
ENDMDL
MODEL 2
REMARK VINA RESULT:      -6.1      3.787      5.539
REMARK  Name = 
REMARK  8 active torsions:
REMARK  status: ('A' for Active; 'I' for Inactive)
REMARK    1  A    between atoms: C_1  and  C_2
REMARK    2  A    between atoms: C_5  and  S_6
REMARK    3  A    between atoms: S_6  and  O_9
REMARK    4  A    between atoms: O_9  and  C_10
REMARK    5  A    between atoms: C_10  and  C_11
REMARK    6  A    between atoms: C_11  and  O_12
REMARK    7  A    between atoms: O_12  and  C_13
REMARK    8  A    between atoms: C_13  and  C_14
REMARK                            x       y       z     vdW  Elec       q    Type
REMARK                         _______ _______ _______ _____ _____    ______ ____
ROOT
ATOM      1  S   UNL     1       5.160   4.309  18.487  0.00  0.00    +0.000 S 
ATOM      2  O   UNL     1       5.380   3.977  17.095  0.00  0.00    +0.000 OA
ATOM      3  O   UNL     1       6.270   4.614  19.371  0.00  0.00    +0.000 OA
ENDROOT
BRANCH   1   8
ATOM      4  C   UNL     1       1.501   9.155  18.515  0.00  0.00    +0.000 C 
ATOM      5  C   UNL     1       2.395   7.949  18.517  0.00  0.00    +0.000 A 
ATOM      6  C   UNL     1       2.333   7.009  19.557  0.00  0.00    +0.000 A 
ATOM      7  C   UNL     1       3.172   5.891  19.558  0.00  0.00    +0.000 A 
ATOM      8  C   UNL     1       4.075   5.714  18.508  0.00  0.00    +0.000 A 
ATOM      9  C   UNL     1       4.152   6.642  17.465  0.00  0.00    +0.000 A 
ATOM     10  C   UNL     1       3.310   7.757  17.471  0.00  0.00    +0.000 A 
ENDBRANCH   1   8
BRANCH   1  11
ATOM     11  O   UNL     1       4.317   3.094  19.179  0.00  0.00    +0.000 OA
BRANCH  11  12
ATOM     12  C   UNL     1       3.667   2.195  18.285  0.00  0.00    +0.000 C 
BRANCH  12  13
ATOM     13  C   UNL     1       2.180   2.523  18.172  0.00  0.00    +0.000 C 
BRANCH  13  14
ATOM     14  O   UNL     1       1.474   1.960  19.281  0.00  0.00    +0.000 OA
BRANCH  14  15
ATOM     15  C   UNL     1       0.985   2.973  20.162  0.00  0.00    +0.000 C 
BRANCH  15  16
ATOM     16  C   UNL     1       1.492   2.715  21.570  0.00  0.00    +0.000 C 
ATOM     17  F   UNL     1       2.334   3.718  21.934  0.00  0.00    +0.000 F 
ENDBRANCH  15  16
ENDBRANCH  14  15
ENDBRANCH  13  14
ENDBRANCH  12  13
ENDBRANCH  11  12
ENDBRANCH   1  11
TORSDOF 7
ENDMDL
MODEL 3
REMARK VINA RESULT:      -5.9      1.414      1.959
REMARK  Name = 
REMARK  8 active torsions:
REMARK  status: ('A' for Active; 'I' for Inactive)
REMARK    1  A    between atoms: C_1  and  C_2
REMARK    2  A    between atoms: C_5  and  S_6
REMARK    3  A    between atoms: S_6  and  O_9
REMARK    4  A    between atoms: O_9  and  C_10
REMARK    5  A    between atoms: C_10  and  C_11
REMARK    6  A    between atoms: C_11  and  O_12
REMARK    7  A    between atoms: O_12  and  C_13
REMARK    8  A    between atoms: C_13  and  C_14
REMARK                            x       y       z     vdW  Elec       q    Type
REMARK                         _______ _______ _______ _____ _____    ______ ____
ROOT
ATOM      1  S   UNL     1       7.243   5.461  17.593  0.00  0.00    +0.000 S 
ATOM      2  O   UNL     1       7.533   6.868  17.776  0.00  0.00    +0.000 OA
ATOM      3  O   UNL     1       8.051   4.439  18.232  0.00  0.00    +0.000 OA
ENDROOT
BRANCH   1   8
ATOM      4  C   UNL     1       1.532   4.542  19.441  0.00  0.00    +0.000 C 
ATOM      5  C   UNL     1       2.941   4.784  18.982  0.00  0.00    +0.000 A 
ATOM      6  C   UNL     1       3.242   5.842  18.111  0.00  0.00    +0.000 A 
ATOM      7  C   UNL     1       4.554   6.060  17.681  0.00  0.00    +0.000 A 
ATOM      8  C   UNL     1       5.569   5.215  18.130  0.00  0.00    +0.000 A 
ATOM      9  C   UNL     1       5.287   4.154  18.996  0.00  0.00    +0.000 A 
ATOM     10  C   UNL     1       3.973   3.943  19.422  0.00  0.00    +0.000 A 
ENDBRANCH   1   8
BRANCH   1  11
ATOM     11  O   UNL     1       7.243   5.140  15.993  0.00  0.00    +0.000 OA
BRANCH  11  12
ATOM     12  C   UNL     1       6.572   3.948  15.593  0.00  0.00    +0.000 C 
BRANCH  12  13
ATOM     13  C   UNL     1       5.890   4.137  14.240  0.00  0.00    +0.000 C 
BRANCH  13  14
ATOM     14  O   UNL     1       6.868   4.459  13.246  0.00  0.00    +0.000 OA
BRANCH  14  15
ATOM     15  C   UNL     1       6.741   3.622  12.095  0.00  0.00    +0.000 C 
BRANCH  15  16
ATOM     16  C   UNL     1       5.306   3.144  11.965  0.00  0.00    +0.000 C 
ATOM     17  F   UNL     1       5.298   1.872  11.486  0.00  0.00    +0.000 F 
ENDBRANCH  15  16
ENDBRANCH  14  15
ENDBRANCH  13  14
ENDBRANCH  12  13
ENDBRANCH  11  12
ENDBRANCH   1  11
TORSDOF 7
ENDMDL
MODEL 4
REMARK VINA RESULT:      -5.9      1.654      2.374
REMARK  Name = 
REMARK  8 active torsions:
REMARK  status: ('A' for Active; 'I' for Inactive)
REMARK    1  A    between atoms: C_1  and  C_2
REMARK    2  A    between atoms: C_5  and  S_6
REMARK    3  A    between atoms: S_6  and  O_9
REMARK    4  A    between atoms: O_9  and  C_10
REMARK    5  A    between atoms: C_10  and  C_11
REMARK    6  A    between atoms: C_11  and  O_12
REMARK    7  A    between atoms: O_12  and  C_13
REMARK    8  A    between atoms: C_13  and  C_14
REMARK                            x       y       z     vdW  Elec       q    Type
REMARK                         _______ _______ _______ _____ _____    ______ ____
ROOT
ATOM      1  S   UNL     1       6.597   5.635  16.373  0.00  0.00    +0.000 S 
ATOM      2  O   UNL     1       6.915   6.997  16.748  0.00  0.00    +0.000 OA
ATOM      3  O   UNL     1       7.531   4.551  16.616  0.00  0.00    +0.000 OA
ENDROOT
BRANCH   1   8
ATOM      4  C   UNL     1       1.439   4.136  19.204  0.00  0.00    +0.000 C 
ATOM      5  C   UNL     1       2.713   4.521  18.509  0.00  0.00    +0.000 A 
ATOM      6  C   UNL     1       2.913   5.831  18.048  0.00  0.00    +0.000 A 
ATOM      7  C   UNL     1       4.097   6.184  17.395  0.00  0.00    +0.000 A 
ATOM      8  C   UNL     1       5.087   5.219  17.207  0.00  0.00    +0.000 A 
ATOM      9  C   UNL     1       4.903   3.907  17.657  0.00  0.00    +0.000 A 
ATOM     10  C   UNL     1       3.717   3.562  18.310  0.00  0.00    +0.000 A 
ENDBRANCH   1   8
BRANCH   1  11
ATOM     11  O   UNL     1       6.241   5.611  14.780  0.00  0.00    +0.000 OA
BRANCH  11  12
ATOM     12  C   UNL     1       5.832   4.353  14.249  0.00  0.00    +0.000 C 
BRANCH  12  13
ATOM     13  C   UNL     1       6.766   3.908  13.126  0.00  0.00    +0.000 C 
BRANCH  13  14
ATOM     14  O   UNL     1       6.009   3.278  12.088  0.00  0.00    +0.000 OA
BRANCH  14  15
ATOM     15  C   UNL     1       4.630   3.646  12.145  0.00  0.00    +0.000 C 
BRANCH  15  16
ATOM     16  C   UNL     1       3.896   3.068  10.949  0.00  0.00    +0.000 C 
ATOM     17  F   UNL     1       3.345   4.081  10.228  0.00  0.00    +0.000 F 
ENDBRANCH  15  16
ENDBRANCH  14  15
ENDBRANCH  13  14
ENDBRANCH  12  13
ENDBRANCH  11  12
ENDBRANCH   1  11
TORSDOF 7
ENDMDL
MODEL 5
REMARK VINA RESULT:      -5.9      1.181      1.217
REMARK  Name = 
REMARK  8 active torsions:
REMARK  status: ('A' for Active; 'I' for Inactive)
REMARK    1  A    between atoms: C_1  and  C_2
REMARK    2  A    between atoms: C_5  and  S_6
REMARK    3  A    between atoms: S_6  and  O_9
REMARK    4  A    between atoms: O_9  and  C_10
REMARK    5  A    between atoms: C_10  and  C_11
REMARK    6  A    between atoms: C_11  and  O_12
REMARK    7  A    between atoms: O_12  and  C_13
REMARK    8  A    between atoms: C_13  and  C_14
REMARK                            x       y       z     vdW  Elec       q    Type
REMARK                         _______ _______ _______ _____ _____    ______ ____
ROOT
ATOM      1  S   UNL     1       6.230   5.397  18.759  0.00  0.00    +0.000 S 
ATOM      2  O   UNL     1       5.923   6.615  18.038  0.00  0.00    +0.000 OA
ATOM      3  O   UNL     1       7.119   5.408  19.906  0.00  0.00    +0.000 OA
ENDROOT
BRANCH   1   8
ATOM      4  C   UNL     1       0.910   3.174  20.664  0.00  0.00    +0.000 C 
ATOM      5  C   UNL     1       2.229   3.711  20.187  0.00  0.00    +0.000 A 
ATOM      6  C   UNL     1       3.308   2.849  19.938  0.00  0.00    +0.000 A 
ATOM      7  C   UNL     1       4.536   3.353  19.500  0.00  0.00    +0.000 A 
ATOM      8  C   UNL     1       4.680   4.727  19.306  0.00  0.00    +0.000 A 
ATOM      9  C   UNL     1       3.616   5.601  19.551  0.00  0.00    +0.000 A 
ATOM     10  C   UNL     1       2.391   5.089  19.989  0.00  0.00    +0.000 A 
ENDBRANCH   1   8
BRANCH   1  11
ATOM     11  O   UNL     1       6.830   4.309  17.700  0.00  0.00    +0.000 OA
BRANCH  11  12
ATOM     12  C   UNL     1       6.262   4.329  16.393  0.00  0.00    +0.000 C 
BRANCH  12  13
ATOM     13  C   UNL     1       7.297   4.759  15.358  0.00  0.00    +0.000 C 
BRANCH  13  14
ATOM     14  O   UNL     1       6.644   5.080  14.125  0.00  0.00    +0.000 OA
BRANCH  14  15
ATOM     15  C   UNL     1       5.868   3.983  13.641  0.00  0.00    +0.000 C 
BRANCH  15  16
ATOM     16  C   UNL     1       6.421   3.515  12.307  0.00  0.00    +0.000 C 
ATOM     17  F   UNL     1       5.764   2.389  11.918  0.00  0.00    +0.000 F 
ENDBRANCH  15  16
ENDBRANCH  14  15
ENDBRANCH  13  14
ENDBRANCH  12  13
ENDBRANCH  11  12
ENDBRANCH   1  11
TORSDOF 7
ENDMDL
MODEL 6
REMARK VINA RESULT:      -5.8      3.053      5.959
REMARK  Name = 
REMARK  8 active torsions:
REMARK  status: ('A' for Active; 'I' for Inactive)
REMARK    1  A    between atoms: C_1  and  C_2
REMARK    2  A    between atoms: C_5  and  S_6
REMARK    3  A    between atoms: S_6  and  O_9
REMARK    4  A    between atoms: O_9  and  C_10
REMARK    5  A    between atoms: C_10  and  C_11
REMARK    6  A    between atoms: C_11  and  O_12
REMARK    7  A    between atoms: O_12  and  C_13
REMARK    8  A    between atoms: C_13  and  C_14
REMARK                            x       y       z     vdW  Elec       q    Type
REMARK                         _______ _______ _______ _____ _____    ______ ____
ROOT
ATOM      1  S   UNL     1       5.512   5.004  19.147  0.00  0.00    +0.000 S 
ATOM      2  O   UNL     1       6.724   5.382  19.843  0.00  0.00    +0.000 OA
ATOM      3  O   UNL     1       4.289   5.770  19.300  0.00  0.00    +0.000 OA
ENDROOT
BRANCH   1   8
ATOM      4  C   UNL     1       6.932   4.946  13.244  0.00  0.00    +0.000 C 
ATOM      5  C   UNL     1       6.566   4.961  14.700  0.00  0.00    +0.000 A 
ATOM      6  C   UNL     1       5.348   5.509  15.130  0.00  0.00    +0.000 A 
ATOM      7  C   UNL     1       5.014   5.526  16.487  0.00  0.00    +0.000 A 
ATOM      8  C   UNL     1       5.905   4.988  17.417  0.00  0.00    +0.000 A 
ATOM      9  C   UNL     1       7.124   4.440  17.006  0.00  0.00    +0.000 A 
ATOM     10  C   UNL     1       7.451   4.426  15.647  0.00  0.00    +0.000 A 
ENDBRANCH   1   8
BRANCH   1  11
ATOM     11  O   UNL     1       5.159   3.458  19.532  0.00  0.00    +0.000 OA
BRANCH  11  12
ATOM     12  C   UNL     1       4.128   2.841  18.766  0.00  0.00    +0.000 C 
BRANCH  12  13
ATOM     13  C   UNL     1       3.112   2.156  19.676  0.00  0.00    +0.000 C 
BRANCH  13  14
ATOM     14  O   UNL     1       3.222   2.678  21.004  0.00  0.00    +0.000 OA
BRANCH  14  15
ATOM     15  C   UNL     1       1.944   3.035  21.536  0.00  0.00    +0.000 C 
BRANCH  15  16
ATOM     16  C   UNL     1       1.451   4.308  20.872  0.00  0.00    +0.000 C 
ATOM     17  F   UNL     1       0.410   4.011  20.050  0.00  0.00    +0.000 F 
ENDBRANCH  15  16
ENDBRANCH  14  15
ENDBRANCH  13  14
ENDBRANCH  12  13
ENDBRANCH  11  12
ENDBRANCH   1  11
TORSDOF 7
ENDMDL
MODEL 7
REMARK VINA RESULT:      -5.8      3.583      5.273
REMARK  Name = 
REMARK  8 active torsions:
REMARK  status: ('A' for Active; 'I' for Inactive)
REMARK    1  A    between atoms: C_1  and  C_2
REMARK    2  A    between atoms: C_5  and  S_6
REMARK    3  A    between atoms: S_6  and  O_9
REMARK    4  A    between atoms: O_9  and  C_10
REMARK    5  A    between atoms: C_10  and  C_11
REMARK    6  A    between atoms: C_11  and  O_12
REMARK    7  A    between atoms: O_12  and  C_13
REMARK    8  A    between atoms: C_13  and  C_14
REMARK                            x       y       z     vdW  Elec       q    Type
REMARK                         _______ _______ _______ _____ _____    ______ ____
ROOT
ATOM      1  S   UNL     1       5.545   4.666  18.562  0.00  0.00    +0.000 S 
ATOM      2  O   UNL     1       6.315   4.652  17.336  0.00  0.00    +0.000 OA
ATOM      3  O   UNL     1       6.189   4.833  19.851  0.00  0.00    +0.000 OA
ENDROOT
BRANCH   1   8
ATOM      4  C   UNL     1       1.424   9.095  18.047  0.00  0.00    +0.000 C 
ATOM      5  C   UNL     1       2.452   8.008  18.166  0.00  0.00    +0.000 A 
ATOM      6  C   UNL     1       3.458   7.861  17.199  0.00  0.00    +0.000 A 
ATOM      7  C   UNL     1       4.410   6.843  17.310  0.00  0.00    +0.000 A 
ATOM      8  C   UNL     1       4.355   5.972  18.399  0.00  0.00    +0.000 A 
ATOM      9  C   UNL     1       3.358   6.104  19.371  0.00  0.00    +0.000 A 
ATOM     10  C   UNL     1       2.410   7.123  19.253  0.00  0.00    +0.000 A 
ENDBRANCH   1   8
BRANCH   1  11
ATOM     11  O   UNL     1       4.675   3.286  18.637  0.00  0.00    +0.000 OA
BRANCH  11  12
ATOM     12  C   UNL     1       3.869   2.991  17.500  0.00  0.00    +0.000 C 
BRANCH  12  13
ATOM     13  C   UNL     1       2.691   2.101  17.886  0.00  0.00    +0.000 C 
BRANCH  13  14
ATOM     14  O   UNL     1       1.491   2.879  17.935  0.00  0.00    +0.000 OA
BRANCH  14  15
ATOM     15  C   UNL     1       0.699   2.552  19.078  0.00  0.00    +0.000 C 
BRANCH  15  16
ATOM     16  C   UNL     1       1.011   3.516  20.209  0.00  0.00    +0.000 C 
ATOM     17  F   UNL     1       0.923   2.858  21.396  0.00  0.00    +0.000 F 
ENDBRANCH  15  16
ENDBRANCH  14  15
ENDBRANCH  13  14
ENDBRANCH  12  13
ENDBRANCH  11  12
ENDBRANCH   1  11
TORSDOF 7
ENDMDL
MODEL 8
REMARK VINA RESULT:      -5.8      2.297      5.235
REMARK  Name = 
REMARK  8 active torsions:
REMARK  status: ('A' for Active; 'I' for Inactive)
REMARK    1  A    between atoms: C_1  and  C_2
REMARK    2  A    between atoms: C_5  and  S_6
REMARK    3  A    between atoms: S_6  and  O_9
REMARK    4  A    between atoms: O_9  and  C_10
REMARK    5  A    between atoms: C_10  and  C_11
REMARK    6  A    between atoms: C_11  and  O_12
REMARK    7  A    between atoms: O_12  and  C_13
REMARK    8  A    between atoms: C_13  and  C_14
REMARK                            x       y       z     vdW  Elec       q    Type
REMARK                         _______ _______ _______ _____ _____    ______ ____
ROOT
ATOM      1  S   UNL     1       7.164   5.671  17.265  0.00  0.00    +0.000 S 
ATOM      2  O   UNL     1       7.825   4.629  18.023  0.00  0.00    +0.000 OA
ATOM      3  O   UNL     1       7.836   6.921  16.964  0.00  0.00    +0.000 OA
ENDROOT
BRANCH   1   8
ATOM      4  C   UNL     1       5.500   3.140  12.003  0.00  0.00    +0.000 C 
ATOM      5  C   UNL     1       5.919   3.776  13.296  0.00  0.00    +0.000 A 
ATOM      6  C   UNL     1       7.064   4.586  13.362  0.00  0.00    +0.000 A 
ATOM      7  C   UNL     1       7.453   5.172  14.570  0.00  0.00    +0.000 A 
ATOM      8  C   UNL     1       6.689   4.948  15.716  0.00  0.00    +0.000 A 
ATOM      9  C   UNL     1       5.546   4.142  15.669  0.00  0.00    +0.000 A 
ATOM     10  C   UNL     1       5.163   3.560  14.458  0.00  0.00    +0.000 A 
ENDBRANCH   1   8
BRANCH   1  11
ATOM     11  O   UNL     1       5.767   6.049  18.021  0.00  0.00    +0.000 OA
BRANCH  11  12
ATOM     12  C   UNL     1       5.557   5.438  19.291  0.00  0.00    +0.000 C 
BRANCH  12  13
ATOM     13  C   UNL     1       4.403   4.441  19.230  0.00  0.00    +0.000 C 
BRANCH  13  14
ATOM     14  O   UNL     1       4.886   3.123  19.506  0.00  0.00    +0.000 OA
BRANCH  14  15
ATOM     15  C   UNL     1       3.829   2.162  19.494  0.00  0.00    +0.000 C 
BRANCH  15  16
ATOM     16  C   UNL     1       3.549   1.728  18.067  0.00  0.00    +0.000 C 
ATOM     17  F   UNL     1       2.423   2.347  17.622  0.00  0.00    +0.000 F 
ENDBRANCH  15  16
ENDBRANCH  14  15
ENDBRANCH  13  14
ENDBRANCH  12  13
ENDBRANCH  11  12
ENDBRANCH   1  11
TORSDOF 7
ENDMDL
MODEL 9
REMARK VINA RESULT:      -5.7      2.509      5.421
REMARK  Name = 
REMARK  8 active torsions:
REMARK  status: ('A' for Active; 'I' for Inactive)
REMARK    1  A    between atoms: C_1  and  C_2
REMARK    2  A    between atoms: C_5  and  S_6
REMARK    3  A    between atoms: S_6  and  O_9
REMARK    4  A    between atoms: O_9  and  C_10
REMARK    5  A    between atoms: C_10  and  C_11
REMARK    6  A    between atoms: C_11  and  O_12
REMARK    7  A    between atoms: O_12  and  C_13
REMARK    8  A    between atoms: C_13  and  C_14
REMARK                            x       y       z     vdW  Elec       q    Type
REMARK                         _______ _______ _______ _____ _____    ______ ____
ROOT
ATOM      1  S   UNL     1       5.143   4.576  19.028  0.00  0.00    +0.000 S 
ATOM      2  O   UNL     1       5.062   3.213  19.510  0.00  0.00    +0.000 OA
ATOM      3  O   UNL     1       6.015   5.546  19.665  0.00  0.00    +0.000 OA
ENDROOT
BRANCH   1   8
ATOM      4  C   UNL     1       6.843   4.306  13.206  0.00  0.00    +0.000 C 
ATOM      5  C   UNL     1       6.411   4.364  14.642  0.00  0.00    +0.000 A 
ATOM      6  C   UNL     1       5.064   4.192  14.995  0.00  0.00    +0.000 A 
ATOM      7  C   UNL     1       4.664   4.253  16.333  0.00  0.00    +0.000 A 
ATOM      8  C   UNL     1       5.622   4.484  17.322  0.00  0.00    +0.000 A 
ATOM      9  C   UNL     1       6.968   4.660  16.988  0.00  0.00    +0.000 A 
ATOM     10  C   UNL     1       7.360   4.597  15.648  0.00  0.00    +0.000 A 
ENDBRANCH   1   8
BRANCH   1  11
ATOM     11  O   UNL     1       3.639   5.212  19.029  0.00  0.00    +0.000 OA
BRANCH  11  12
ATOM     12  C   UNL     1       2.985   5.271  20.294  0.00  0.00    +0.000 C 
BRANCH  12  13
ATOM     13  C   UNL     1       1.615   4.602  20.228  0.00  0.00    +0.000 C 
BRANCH  13  14
ATOM     14  O   UNL     1       1.399   4.068  18.918  0.00  0.00    +0.000 OA
BRANCH  14  15
ATOM     15  C   UNL     1       0.943   2.715  18.970  0.00  0.00    +0.000 C 
BRANCH  15  16
ATOM     16  C   UNL     1       2.090   1.776  18.643  0.00  0.00    +0.000 C 
ATOM     17  F   UNL     1       2.505   2.002  17.368  0.00  0.00    +0.000 F 
ENDBRANCH  15  16
ENDBRANCH  14  15
ENDBRANCH  13  14
ENDBRANCH  12  13
ENDBRANCH  11  12
ENDBRANCH   1  11
TORSDOF 7
ENDMDL
