MODEL 1
REMARK VINA RESULT:      -7.2      0.000      0.000
REMARK  Name = 
REMARK  3 active torsions:
REMARK  status: ('A' for Active; 'I' for Inactive)
REMARK    1  A    between atoms: C_1  and  C_2
REMARK    2  A    between atoms: C_3  and  C_4
REMARK    3  A    between atoms: C_4  and  O_6
REMARK                            x       y       z     vdW  Elec       q    Type
REMARK                         _______ _______ _______ _____ _____    ______ ____
ROOT
ATOM      1  C   UNL     1       3.456   2.031  18.699  0.00  0.00    +0.000 C 
ATOM      2  C   UNL     1       3.267   3.519  18.890  0.00  0.00    +0.000 A 
ATOM      3  C   UNL     1       2.498   4.127  19.845  0.00  0.00    +0.000 A 
ATOM      4  N   UNL     1       2.348   5.528  19.825  0.00  0.00    +0.000 N 
ATOM      5  C   UNL     1       1.667   6.395  20.641  0.00  0.00    +0.000 A 
ATOM      6  N   UNL     1       1.833   7.639  20.235  0.00  0.00    +0.000 NA
ATOM      7  N   UNL     1       2.635   7.607  19.124  0.00  0.00    +0.000 NA
ATOM      8  C   UNL     1       2.939   6.349  18.887  0.00  0.00    +0.000 A 
ATOM      9  C   UNL     1       3.766   5.778  17.846  0.00  0.00    +0.000 A 
ATOM     10  C   UNL     1       4.352   6.598  16.874  0.00  0.00    +0.000 A 
ATOM     11  C   UNL     1       5.142   6.040  15.876  0.00  0.00    +0.000 A 
ATOM     12  C   UNL     1       5.354   4.666  15.854  0.00  0.00    +0.000 A 
ATOM     13  C   UNL     1       4.771   3.843  16.824  0.00  0.00    +0.000 A 
ATOM     14  C   UNL     1       3.955   4.378  17.840  0.00  0.00    +0.000 A 
ENDROOT
BRANCH   3  15
ATOM     15  C   UNL     1       1.722   3.374  20.869  0.00  0.00    +0.000 C 
ATOM     16  O   UNL     1       2.206   3.044  21.943  0.00  0.00    +0.000 OA
BRANCH  15  17
ATOM     17  O   UNL     1       0.480   2.997  20.515  0.00  0.00    +0.000 OA
ATOM     18  H   UNL     1       0.174   2.141  20.864  0.00  0.00    +0.000 HD
ENDBRANCH  15  17
ENDBRANCH   3  15
TORSDOF 2
ENDMDL
MODEL 2
REMARK VINA RESULT:      -7.0      2.189      4.020
REMARK  Name = 
REMARK  3 active torsions:
REMARK  status: ('A' for Active; 'I' for Inactive)
REMARK    1  A    between atoms: C_1  and  C_2
REMARK    2  A    between atoms: C_3  and  C_4
REMARK    3  A    between atoms: C_4  and  O_6
REMARK                            x       y       z     vdW  Elec       q    Type
REMARK                         _______ _______ _______ _____ _____    ______ ____
ROOT
ATOM      1  C   UNL     1       2.232   3.367  21.296  0.00  0.00    +0.000 C 
ATOM      2  C   UNL     1       2.765   4.037  20.049  0.00  0.00    +0.000 A 
ATOM      3  C   UNL     1       3.580   3.475  19.106  0.00  0.00    +0.000 A 
ATOM      4  N   UNL     1       4.070   4.269  18.051  0.00  0.00    +0.000 N 
ATOM      5  C   UNL     1       4.876   3.984  16.977  0.00  0.00    +0.000 A 
ATOM      6  N   UNL     1       5.053   5.059  16.234  0.00  0.00    +0.000 NA
ATOM      7  N   UNL     1       4.359   6.085  16.820  0.00  0.00    +0.000 NA
ATOM      8  C   UNL     1       3.775   5.608  17.897  0.00  0.00    +0.000 A 
ATOM      9  C   UNL     1       2.920   6.273  18.856  0.00  0.00    +0.000 A 
ATOM     10  C   UNL     1       2.632   7.637  18.727  0.00  0.00    +0.000 A 
ATOM     11  C   UNL     1       1.812   8.267  19.655  0.00  0.00    +0.000 A 
ATOM     12  C   UNL     1       1.272   7.535  20.706  0.00  0.00    +0.000 A 
ATOM     13  C   UNL     1       1.556   6.170  20.839  0.00  0.00    +0.000 A 
ATOM     14  C   UNL     1       2.394   5.508  19.921  0.00  0.00    +0.000 A 
ENDROOT
BRANCH   3  15
ATOM     15  C   UNL     1       4.063   2.067  19.180  0.00  0.00    +0.000 C 
ATOM     16  O   UNL     1       3.505   1.154  18.589  0.00  0.00    +0.000 OA
BRANCH  15  17
ATOM     17  O   UNL     1       5.102   1.839  20.005  0.00  0.00    +0.000 OA
ATOM     18  H   UNL     1       4.901   1.838  20.957  0.00  0.00    +0.000 HD
ENDBRANCH  15  17
ENDBRANCH   3  15
TORSDOF 2
ENDMDL
MODEL 3
REMARK VINA RESULT:      -6.7      1.930      3.443
REMARK  Name = 
REMARK  3 active torsions:
REMARK  status: ('A' for Active; 'I' for Inactive)
REMARK    1  A    between atoms: C_1  and  C_2
REMARK    2  A    between atoms: C_3  and  C_4
REMARK    3  A    between atoms: C_4  and  O_6
REMARK                            x       y       z     vdW  Elec       q    Type
REMARK                         _______ _______ _______ _____ _____    ______ ____
ROOT
ATOM      1  C   UNL     1       2.731   7.210  18.931  0.00  0.00    +0.000 C 
ATOM      2  C   UNL     1       3.032   5.776  18.555  0.00  0.00    +0.000 A 
ATOM      3  C   UNL     1       2.620   4.655  19.222  0.00  0.00    +0.000 A 
ATOM      4  N   UNL     1       3.072   3.390  18.796  0.00  0.00    +0.000 N 
ATOM      5  C   UNL     1       2.823   2.119  19.250  0.00  0.00    +0.000 A 
ATOM      6  N   UNL     1       3.463   1.232  18.514  0.00  0.00    +0.000 NA
ATOM      7  N   UNL     1       4.159   1.918  17.553  0.00  0.00    +0.000 NA
ATOM      8  C   UNL     1       3.920   3.199  17.724  0.00  0.00    +0.000 A 
ATOM      9  C   UNL     1       4.398   4.338  16.971  0.00  0.00    +0.000 A 
ATOM     10  C   UNL     1       5.278   4.161  15.897  0.00  0.00    +0.000 A 
ATOM     11  C   UNL     1       5.734   5.261  15.180  0.00  0.00    +0.000 A 
ATOM     12  C   UNL     1       5.306   6.537  15.531  0.00  0.00    +0.000 A 
ATOM     13  C   UNL     1       4.425   6.719  16.604  0.00  0.00    +0.000 A 
ATOM     14  C   UNL     1       3.956   5.624  17.356  0.00  0.00    +0.000 A 
ENDROOT
BRANCH   3  15
ATOM     15  C   UNL     1       1.780   4.699  20.451  0.00  0.00    +0.000 C 
ATOM     16  O   UNL     1       0.574   4.496  20.425  0.00  0.00    +0.000 OA
BRANCH  15  17
ATOM     17  O   UNL     1       2.406   5.061  21.586  0.00  0.00    +0.000 OA
ATOM     18  H   UNL     1       3.160   4.507  21.855  0.00  0.00    +0.000 HD
ENDBRANCH  15  17
ENDBRANCH   3  15
TORSDOF 2
ENDMDL
MODEL 4
REMARK VINA RESULT:      -6.7      2.354      3.878
REMARK  Name = 
REMARK  3 active torsions:
REMARK  status: ('A' for Active; 'I' for Inactive)
REMARK    1  A    between atoms: C_1  and  C_2
REMARK    2  A    between atoms: C_3  and  C_4
REMARK    3  A    between atoms: C_4  and  O_6
REMARK                            x       y       z     vdW  Elec       q    Type
REMARK                         _______ _______ _______ _____ _____    ______ ____
ROOT
ATOM      1  C   UNL     1       2.199   4.473  21.126  0.00  0.00    +0.000 C 
ATOM      2  C   UNL     1       2.837   4.816  19.799  0.00  0.00    +0.000 A 
ATOM      3  C   UNL     1       3.651   4.008  19.052  0.00  0.00    +0.000 A 
ATOM      4  N   UNL     1       4.247   4.517  17.881  0.00  0.00    +0.000 N 
ATOM      5  C   UNL     1       5.077   3.951  16.947  0.00  0.00    +0.000 A 
ATOM      6  N   UNL     1       5.367   4.821  15.999  0.00  0.00    +0.000 NA
ATOM      7  N   UNL     1       4.726   5.993  16.304  0.00  0.00    +0.000 NA
ATOM      8  C   UNL     1       4.059   5.804  17.422  0.00  0.00    +0.000 A 
ATOM      9  C   UNL     1       3.213   6.717  18.159  0.00  0.00    +0.000 A 
ATOM     10  C   UNL     1       3.034   8.034  17.718  0.00  0.00    +0.000 A 
ATOM     11  C   UNL     1       2.221   8.905  18.434  0.00  0.00    +0.000 A 
ATOM     12  C   UNL     1       1.581   8.458  19.585  0.00  0.00    +0.000 A 
ATOM     13  C   UNL     1       1.756   7.142  20.029  0.00  0.00    +0.000 A 
ATOM     14  C   UNL     1       2.584   6.242  19.331  0.00  0.00    +0.000 A 
ENDROOT
BRANCH   3  15
ATOM     15  C   UNL     1       4.024   2.625  19.460  0.00  0.00    +0.000 C 
ATOM     16  O   UNL     1       4.982   2.394  20.184  0.00  0.00    +0.000 OA
BRANCH  15  17
ATOM     17  O   UNL     1       3.298   1.630  18.917  0.00  0.00    +0.000 OA
ATOM     18  H   UNL     1       2.386   1.537  19.243  0.00  0.00    +0.000 HD
ENDBRANCH  15  17
ENDBRANCH   3  15
TORSDOF 2
ENDMDL
MODEL 5
REMARK VINA RESULT:      -6.6      1.862      3.305
REMARK  Name = 
REMARK  3 active torsions:
REMARK  status: ('A' for Active; 'I' for Inactive)
REMARK    1  A    between atoms: C_1  and  C_2
REMARK    2  A    between atoms: C_3  and  C_4
REMARK    3  A    between atoms: C_4  and  O_6
REMARK                            x       y       z     vdW  Elec       q    Type
REMARK                         _______ _______ _______ _____ _____    ______ ____
ROOT
ATOM      1  C   UNL     1       2.353   6.857  19.810  0.00  0.00    +0.000 C 
ATOM      2  C   UNL     1       2.781   5.562  19.157  0.00  0.00    +0.000 A 
ATOM      3  C   UNL     1       2.503   4.297  19.595  0.00  0.00    +0.000 A 
ATOM      4  N   UNL     1       3.063   3.192  18.923  0.00  0.00    +0.000 N 
ATOM      5  C   UNL     1       2.954   1.838  19.121  0.00  0.00    +0.000 A 
ATOM      6  N   UNL     1       3.656   1.181  18.218  0.00  0.00    +0.000 NA
ATOM      7  N   UNL     1       4.250   2.108  17.403  0.00  0.00    +0.000 NA
ATOM      8  C   UNL     1       3.892   3.301  17.825  0.00  0.00    +0.000 A 
ATOM      9  C   UNL     1       4.232   4.607  17.305  0.00  0.00    +0.000 A 
ATOM     10  C   UNL     1       5.091   4.733  16.208  0.00  0.00    +0.000 A 
ATOM     11  C   UNL     1       5.415   5.993  15.716  0.00  0.00    +0.000 A 
ATOM     12  C   UNL     1       4.874   7.125  16.316  0.00  0.00    +0.000 A 
ATOM     13  C   UNL     1       4.013   7.003  17.413  0.00  0.00    +0.000 A 
ATOM     14  C   UNL     1       3.678   5.741  17.940  0.00  0.00    +0.000 A 
ENDROOT
BRANCH   3  15
ATOM     15  C   UNL     1       1.700   4.014  20.818  0.00  0.00    +0.000 C 
ATOM     16  O   UNL     1       2.211   3.911  21.924  0.00  0.00    +0.000 OA
BRANCH  15  17
ATOM     17  O   UNL     1       0.387   3.792  20.627  0.00  0.00    +0.000 OA
ATOM     18  H   UNL     1      -0.010   4.210  19.843  0.00  0.00    +0.000 HD
ENDBRANCH  15  17
ENDBRANCH   3  15
TORSDOF 2
ENDMDL
MODEL 6
REMARK VINA RESULT:      -6.6      0.838      1.218
REMARK  Name = 
REMARK  3 active torsions:
REMARK  status: ('A' for Active; 'I' for Inactive)
REMARK    1  A    between atoms: C_1  and  C_2
REMARK    2  A    between atoms: C_3  and  C_4
REMARK    3  A    between atoms: C_4  and  O_6
REMARK                            x       y       z     vdW  Elec       q    Type
REMARK                         _______ _______ _______ _____ _____    ______ ____
ROOT
ATOM      1  C   UNL     1       3.620   2.018  18.267  0.00  0.00    +0.000 C 
ATOM      2  C   UNL     1       3.541   3.528  18.285  0.00  0.00    +0.000 A 
ATOM      3  C   UNL     1       2.765   4.294  19.112  0.00  0.00    +0.000 A 
ATOM      4  N   UNL     1       2.731   5.691  18.932  0.00  0.00    +0.000 N 
ATOM      5  C   UNL     1       2.073   6.693  19.600  0.00  0.00    +0.000 A 
ATOM      6  N   UNL     1       2.366   7.868  19.078  0.00  0.00    +0.000 NA
ATOM      7  N   UNL     1       3.231   7.652  18.037  0.00  0.00    +0.000 NA
ATOM      8  C   UNL     1       3.447   6.357  17.958  0.00  0.00    +0.000 A 
ATOM      9  C   UNL     1       4.289   5.614  17.047  0.00  0.00    +0.000 A 
ATOM     10  C   UNL     1       5.001   6.274  16.038  0.00  0.00    +0.000 A 
ATOM     11  C   UNL     1       5.805   5.551  15.165  0.00  0.00    +0.000 A 
ATOM     12  C   UNL     1       5.904   4.171  15.304  0.00  0.00    +0.000 A 
ATOM     13  C   UNL     1       5.195   3.507  16.312  0.00  0.00    +0.000 A 
ATOM     14  C   UNL     1       4.363   4.212  17.202  0.00  0.00    +0.000 A 
ENDROOT
BRANCH   3  15
ATOM     15  C   UNL     1       1.866   3.720  20.151  0.00  0.00    +0.000 C 
ATOM     16  O   UNL     1       0.717   3.382  19.907  0.00  0.00    +0.000 OA
BRANCH  15  17
ATOM     17  O   UNL     1       2.360   3.673  21.403  0.00  0.00    +0.000 OA
ATOM     18  H   UNL     1       2.309   4.499  21.915  0.00  0.00    +0.000 HD
ENDBRANCH  15  17
ENDBRANCH   3  15
TORSDOF 2
ENDMDL
MODEL 7
REMARK VINA RESULT:      -6.5      2.941      4.454
REMARK  Name = 
REMARK  3 active torsions:
REMARK  status: ('A' for Active; 'I' for Inactive)
REMARK    1  A    between atoms: C_1  and  C_2
REMARK    2  A    between atoms: C_3  and  C_4
REMARK    3  A    between atoms: C_4  and  O_6
REMARK                            x       y       z     vdW  Elec       q    Type
REMARK                         _______ _______ _______ _____ _____    ______ ____
ROOT
ATOM      1  C   UNL     1       5.310   3.591  16.281  0.00  0.00    +0.000 C 
ATOM      2  C   UNL     1       4.353   4.515  17.000  0.00  0.00    +0.000 A 
ATOM      3  C   UNL     1       4.360   5.882  16.968  0.00  0.00    +0.000 A 
ATOM      4  N   UNL     1       3.458   6.600  17.777  0.00  0.00    +0.000 N 
ATOM      5  C   UNL     1       3.230   7.943  17.941  0.00  0.00    +0.000 A 
ATOM      6  N   UNL     1       2.257   8.145  18.808  0.00  0.00    +0.000 NA
ATOM      7  N   UNL     1       1.826   6.917  19.238  0.00  0.00    +0.000 NA
ATOM      8  C   UNL     1       2.542   6.004  18.620  0.00  0.00    +0.000 A 
ATOM      9  C   UNL     1       2.476   4.561  18.708  0.00  0.00    +0.000 A 
ATOM     10  C   UNL     1       1.569   3.943  19.577  0.00  0.00    +0.000 A 
ATOM     11  C   UNL     1       1.514   2.556  19.658  0.00  0.00    +0.000 A 
ATOM     12  C   UNL     1       2.359   1.788  18.865  0.00  0.00    +0.000 A 
ATOM     13  C   UNL     1       3.267   2.401  17.994  0.00  0.00    +0.000 A 
ATOM     14  C   UNL     1       3.354   3.804  17.901  0.00  0.00    +0.000 A 
ENDROOT
BRANCH   3  15
ATOM     15  C   UNL     1       5.346   6.675  16.180  0.00  0.00    +0.000 C 
ATOM     16  O   UNL     1       5.175   6.942  15.000  0.00  0.00    +0.000 OA
BRANCH  15  17
ATOM     17  O   UNL     1       6.483   7.011  16.818  0.00  0.00    +0.000 OA
ATOM     18  H   UNL     1       7.055   6.273  17.092  0.00  0.00    +0.000 HD
ENDBRANCH  15  17
ENDBRANCH   3  15
TORSDOF 2
ENDMDL
MODEL 8
REMARK VINA RESULT:      -6.4      2.057      3.264
REMARK  Name = 
REMARK  3 active torsions:
REMARK  status: ('A' for Active; 'I' for Inactive)
REMARK    1  A    between atoms: C_1  and  C_2
REMARK    2  A    between atoms: C_3  and  C_4
REMARK    3  A    between atoms: C_4  and  O_6
REMARK                            x       y       z     vdW  Elec       q    Type
REMARK                         _______ _______ _______ _____ _____    ______ ____
ROOT
ATOM      1  C   UNL     1       5.428   4.018  17.062  0.00  0.00    +0.000 C 
ATOM      2  C   UNL     1       4.345   4.212  18.099  0.00  0.00    +0.000 A 
ATOM      3  C   UNL     1       3.833   3.254  18.931  0.00  0.00    +0.000 A 
ATOM      4  N   UNL     1       2.752   3.576  19.776  0.00  0.00    +0.000 N 
ATOM      5  C   UNL     1       2.056   2.844  20.705  0.00  0.00    +0.000 A 
ATOM      6  N   UNL     1       1.123   3.584  21.272  0.00  0.00    +0.000 NA
ATOM      7  N   UNL     1       1.190   4.833  20.712  0.00  0.00    +0.000 NA
ATOM      8  C   UNL     1       2.162   4.822  19.826  0.00  0.00    +0.000 A 
ATOM      9  C   UNL     1       2.649   5.886  18.974  0.00  0.00    +0.000 A 
ATOM     10  C   UNL     1       2.044   7.147  18.996  0.00  0.00    +0.000 A 
ATOM     11  C   UNL     1       2.516   8.162  18.173  0.00  0.00    +0.000 A 
ATOM     12  C   UNL     1       3.598   7.919  17.334  0.00  0.00    +0.000 A 
ATOM     13  C   UNL     1       4.208   6.659  17.309  0.00  0.00    +0.000 A 
ATOM     14  C   UNL     1       3.742   5.609  18.123  0.00  0.00    +0.000 A 
ENDROOT
BRANCH   3  15
ATOM     15  C   UNL     1       4.299   1.839  18.932  0.00  0.00    +0.000 C 
ATOM     16  O   UNL     1       3.836   0.999  18.175  0.00  0.00    +0.000 OA
BRANCH  15  17
ATOM     17  O   UNL     1       5.202   1.512  19.875  0.00  0.00    +0.000 OA
ATOM     18  H   UNL     1       6.007   1.064  19.562  0.00  0.00    +0.000 HD
ENDBRANCH  15  17
ENDBRANCH   3  15
TORSDOF 2
ENDMDL
MODEL 9
REMARK VINA RESULT:      -6.4      2.945      4.540
REMARK  Name = 
REMARK  3 active torsions:
REMARK  status: ('A' for Active; 'I' for Inactive)
REMARK    1  A    between atoms: C_1  and  C_2
REMARK    2  A    between atoms: C_3  and  C_4
REMARK    3  A    between atoms: C_4  and  O_6
REMARK                            x       y       z     vdW  Elec       q    Type
REMARK                         _______ _______ _______ _____ _____    ______ ____
ROOT
ATOM      1  C   UNL     1       5.653   3.952  17.679  0.00  0.00    +0.000 C 
ATOM      2  C   UNL     1       4.581   4.956  18.038  0.00  0.00    +0.000 A 
ATOM      3  C   UNL     1       4.429   6.209  17.511  0.00  0.00    +0.000 A 
ATOM      4  N   UNL     1       3.433   7.062  18.029  0.00  0.00    +0.000 N 
ATOM      5  C   UNL     1       3.046   8.337  17.699  0.00  0.00    +0.000 A 
ATOM      6  N   UNL     1       2.040   8.725  18.458  0.00  0.00    +0.000 NA
ATOM      7  N   UNL     1       1.749   7.697  19.316  0.00  0.00    +0.000 NA
ATOM      8  C   UNL     1       2.578   6.710  19.053  0.00  0.00    +0.000 A 
ATOM      9  C   UNL     1       2.680   5.401  19.660  0.00  0.00    +0.000 A 
ATOM     10  C   UNL     1       1.836   5.040  20.717  0.00  0.00    +0.000 A 
ATOM     11  C   UNL     1       1.943   3.782  21.297  0.00  0.00    +0.000 A 
ATOM     12  C   UNL     1       2.887   2.881  20.816  0.00  0.00    +0.000 A 
ATOM     13  C   UNL     1       3.733   3.237  19.758  0.00  0.00    +0.000 A 
ATOM     14  C   UNL     1       3.656   4.510  19.161  0.00  0.00    +0.000 A 
ENDROOT
BRANCH   3  15
ATOM     15  C   UNL     1       5.329   6.770  16.465  0.00  0.00    +0.000 C 
ATOM     16  O   UNL     1       5.079   6.678  15.272  0.00  0.00    +0.000 OA
BRANCH  15  17
ATOM     17  O   UNL     1       6.481   7.312  16.902  0.00  0.00    +0.000 OA
ATOM     18  H   UNL     1       7.289   6.798  16.729  0.00  0.00    +0.000 HD
ENDBRANCH  15  17
ENDBRANCH   3  15
TORSDOF 2
ENDMDL
