MODEL 1
REMARK VINA RESULT:      -8.4      0.000      0.000
REMARK  Name = 
REMARK  6 active torsions:
REMARK  status: ('A' for Active; 'I' for Inactive)
REMARK    1  A    between atoms: C_1  and  C_2
REMARK    2  A    between atoms: C_5  and  C_6
REMARK    3  A    between atoms: C_6  and  C_8
REMARK    4  A    between atoms: C_9  and  O_10
REMARK    5  A    between atoms: N_13  and  C_14
REMARK    6  A    between atoms: C_15  and  C_16
REMARK                            x       y       z     vdW  Elec       q    Type
REMARK                         _______ _______ _______ _____ _____    ______ ____
ROOT
ATOM      1  C   UNL     1       3.798   3.899  18.507  0.00  0.00    +0.000 C 
ATOM      2  C   UNL     1       4.098   3.203  19.616  0.00  0.00    +0.000 C 
ATOM      3  C   UNL     1       2.857   3.075  20.408  0.00  0.00    +0.000 C 
ATOM      4  O   UNL     1       2.734   2.465  21.454  0.00  0.00    +0.000 OA
ATOM      5  N   UNL     1       1.832   3.622  19.631  0.00  0.00    +0.000 N 
ATOM      6  C   UNL     1       0.688   2.750  19.464  0.00  0.00    +0.000 C 
ATOM      7  C   UNL     1       2.387   4.373  18.507  0.00  0.00    +0.000 C 
ENDROOT
BRANCH   7   8
ATOM      8  C   UNL     1       2.247   5.880  18.740  0.00  0.00    +0.000 A 
ATOM      9  C   UNL     1       1.990   6.412  20.022  0.00  0.00    +0.000 A 
ATOM     10  C   UNL     1       1.782   7.781  20.214  0.00  0.00    +0.000 A 
ATOM     11  C   UNL     1       1.840   8.638  19.126  0.00  0.00    +0.000 A 
ATOM     12 BR   UNL     1       1.469  10.482  19.366  0.00  0.00    +0.000 Br
ATOM     13  C   UNL     1       2.146   8.155  17.856  0.00  0.00    +0.000 A 
ATOM     14  C   UNL     1       2.354   6.783  17.669  0.00  0.00    +0.000 A 
ENDBRANCH   7   8
BRANCH   1  15
ATOM     15  C   UNL     1       4.837   4.087  17.481  0.00  0.00    +0.000 C 
ATOM     16  O   UNL     1       4.815   3.362  16.478  0.00  0.00    +0.000 OA
BRANCH  15  21
ATOM     17  C   UNL     1       8.282   8.673  18.139  0.00  0.00    +0.000 C 
ATOM     18  C   UNL     1       7.514   7.413  17.863  0.00  0.00    +0.000 A 
ATOM     19  C   UNL     1       7.770   6.245  18.590  0.00  0.00    +0.000 A 
ATOM     20  C   UNL     1       6.954   5.108  18.441  0.00  0.00    +0.000 A 
ATOM     21  C   UNL     1       5.886   5.133  17.543  0.00  0.00    +0.000 A 
ATOM     22  C   UNL     1       5.644   6.298  16.793  0.00  0.00    +0.000 A 
ATOM     23  C   UNL     1       6.451   7.427  16.955  0.00  0.00    +0.000 A 
ENDBRANCH  15  21
ENDBRANCH   1  15
BRANCH   2  24
ATOM     24  O   UNL     1       5.264   2.562  19.937  0.00  0.00    +0.000 OA
ATOM     25  H   UNL     1       5.074   1.599  19.932  0.00  0.00    +0.000 HD
ENDBRANCH   2  24
TORSDOF 4
ENDMDL
MODEL 2
REMARK VINA RESULT:      -8.2      1.627      2.384
REMARK  Name = 
REMARK  6 active torsions:
REMARK  status: ('A' for Active; 'I' for Inactive)
REMARK    1  A    between atoms: C_1  and  C_2
REMARK    2  A    between atoms: C_5  and  C_6
REMARK    3  A    between atoms: C_6  and  C_8
REMARK    4  A    between atoms: C_9  and  O_10
REMARK    5  A    between atoms: N_13  and  C_14
REMARK    6  A    between atoms: C_15  and  C_16
REMARK                            x       y       z     vdW  Elec       q    Type
REMARK                         _______ _______ _______ _____ _____    ______ ____
ROOT
ATOM      1  C   UNL     1       4.013   3.897  19.090  0.00  0.00    +0.000 C 
ATOM      2  C   UNL     1       3.946   3.004  20.090  0.00  0.00    +0.000 C 
ATOM      3  C   UNL     1       2.516   2.727  20.340  0.00  0.00    +0.000 C 
ATOM      4  O   UNL     1       2.070   1.930  21.146  0.00  0.00    +0.000 OA
ATOM      5  N   UNL     1       1.800   3.409  19.352  0.00  0.00    +0.000 N 
ATOM      6  C   UNL     1       0.856   2.583  18.630  0.00  0.00    +0.000 C 
ATOM      7  C   UNL     1       2.666   4.360  18.658  0.00  0.00    +0.000 C 
ENDROOT
BRANCH   7   8
ATOM      8  C   UNL     1       2.346   5.796  19.085  0.00  0.00    +0.000 A 
ATOM      9  C   UNL     1       1.859   6.095  20.375  0.00  0.00    +0.000 A 
ATOM     10  C   UNL     1       1.491   7.396  20.731  0.00  0.00    +0.000 A 
ATOM     11  C   UNL     1       1.617   8.418  19.802  0.00  0.00    +0.000 A 
ATOM     12 BR   UNL     1       1.036  10.167  20.249  0.00  0.00    +0.000 Br
ATOM     13  C   UNL     1       2.147   8.168  18.539  0.00  0.00    +0.000 A 
ATOM     14  C   UNL     1       2.514   6.863  18.187  0.00  0.00    +0.000 A 
ENDBRANCH   7   8
BRANCH   1  15
ATOM     15  C   UNL     1       5.335   4.277  18.563  0.00  0.00    +0.000 C 
ATOM     16  O   UNL     1       6.281   4.373  19.353  0.00  0.00    +0.000 OA
BRANCH  15  21
ATOM     17  C   UNL     1       7.027   4.430  13.045  0.00  0.00    +0.000 C 
ATOM     18  C   UNL     1       6.507   4.548  14.449  0.00  0.00    +0.000 A 
ATOM     19  C   UNL     1       5.197   4.168  14.760  0.00  0.00    +0.000 A 
ATOM     20  C   UNL     1       4.754   4.133  16.096  0.00  0.00    +0.000 A 
ATOM     21  C   UNL     1       5.622   4.499  17.125  0.00  0.00    +0.000 A 
ATOM     22  C   UNL     1       6.931   4.906  16.810  0.00  0.00    +0.000 A 
ATOM     23  C   UNL     1       7.369   4.927  15.483  0.00  0.00    +0.000 A 
ENDBRANCH  15  21
ENDBRANCH   1  15
BRANCH   2  24
ATOM     24  O   UNL     1       4.962   2.317  20.696  0.00  0.00    +0.000 OA
ATOM     25  H   UNL     1       5.568   2.984  21.085  0.00  0.00    +0.000 HD
ENDBRANCH   2  24
TORSDOF 4
ENDMDL
MODEL 3
REMARK VINA RESULT:      -8.2      2.207      2.858
REMARK  Name = 
REMARK  6 active torsions:
REMARK  status: ('A' for Active; 'I' for Inactive)
REMARK    1  A    between atoms: C_1  and  C_2
REMARK    2  A    between atoms: C_5  and  C_6
REMARK    3  A    between atoms: C_6  and  C_8
REMARK    4  A    between atoms: C_9  and  O_10
REMARK    5  A    between atoms: N_13  and  C_14
REMARK    6  A    between atoms: C_15  and  C_16
REMARK                            x       y       z     vdW  Elec       q    Type
REMARK                         _______ _______ _______ _____ _____    ______ ____
ROOT
ATOM      1  C   UNL     1       4.214   5.099  17.985  0.00  0.00    +0.000 C 
ATOM      2  C   UNL     1       4.630   4.191  18.883  0.00  0.00    +0.000 C 
ATOM      3  C   UNL     1       3.429   3.640  19.544  0.00  0.00    +0.000 C 
ATOM      4  O   UNL     1       3.413   2.757  20.383  0.00  0.00    +0.000 OA
ATOM      5  N   UNL     1       2.325   4.190  18.886  0.00  0.00    +0.000 N 
ATOM      6  C   UNL     1       1.360   3.211  18.432  0.00  0.00    +0.000 C 
ATOM      7  C   UNL     1       2.740   5.303  18.034  0.00  0.00    +0.000 C 
ENDROOT
BRANCH   7   8
ATOM      8  C   UNL     1       2.327   6.642  18.651  0.00  0.00    +0.000 A 
ATOM      9  C   UNL     1       2.035   6.767  20.026  0.00  0.00    +0.000 A 
ATOM     10  C   UNL     1       1.579   7.972  20.567  0.00  0.00    +0.000 A 
ATOM     11  C   UNL     1       1.420   9.073  19.739  0.00  0.00    +0.000 A 
ATOM     12 BR   UNL     1       0.716  10.684  20.451  0.00  0.00    +0.000 Br
ATOM     13  C   UNL     1       1.751   9.001  18.389  0.00  0.00    +0.000 A 
ATOM     14  C   UNL     1       2.207   7.791  17.851  0.00  0.00    +0.000 A 
ENDBRANCH   7   8
BRANCH   1  15
ATOM     15  C   UNL     1       5.207   5.735  17.104  0.00  0.00    +0.000 C 
ATOM     16  O   UNL     1       5.621   6.864  17.397  0.00  0.00    +0.000 OA
BRANCH  15  21
ATOM     17  C   UNL     1       6.935   3.755  11.963  0.00  0.00    +0.000 C 
ATOM     18  C   UNL     1       6.576   4.133  13.371  0.00  0.00    +0.000 A 
ATOM     19  C   UNL     1       7.463   4.874  14.161  0.00  0.00    +0.000 A 
ATOM     20  C   UNL     1       7.072   5.359  15.423  0.00  0.00    +0.000 A 
ATOM     21  C   UNL     1       5.793   5.084  15.907  0.00  0.00    +0.000 A 
ATOM     22  C   UNL     1       4.910   4.317  15.125  0.00  0.00    +0.000 A 
ATOM     23  C   UNL     1       5.300   3.849  13.868  0.00  0.00    +0.000 A 
ENDBRANCH  15  21
ENDBRANCH   1  15
BRANCH   2  24
ATOM     24  O   UNL     1       5.891   3.701  19.086  0.00  0.00    +0.000 OA
ATOM     25  H   UNL     1       6.518   4.360  18.716  0.00  0.00    +0.000 HD
ENDBRANCH   2  24
TORSDOF 4
ENDMDL
MODEL 4
REMARK VINA RESULT:      -8.1      2.635      3.461
REMARK  Name = 
REMARK  6 active torsions:
REMARK  status: ('A' for Active; 'I' for Inactive)
REMARK    1  A    between atoms: C_1  and  C_2
REMARK    2  A    between atoms: C_5  and  C_6
REMARK    3  A    between atoms: C_6  and  C_8
REMARK    4  A    between atoms: C_9  and  O_10
REMARK    5  A    between atoms: N_13  and  C_14
REMARK    6  A    between atoms: C_15  and  C_16
REMARK                            x       y       z     vdW  Elec       q    Type
REMARK                         _______ _______ _______ _____ _____    ______ ____
ROOT
ATOM      1  C   UNL     1       4.967   5.036  17.379  0.00  0.00    +0.000 C 
ATOM      2  C   UNL     1       5.702   4.326  18.251  0.00  0.00    +0.000 C 
ATOM      3  C   UNL     1       4.765   3.636  19.162  0.00  0.00    +0.000 C 
ATOM      4  O   UNL     1       5.068   2.864  20.053  0.00  0.00    +0.000 OA
ATOM      5  N   UNL     1       3.479   3.895  18.679  0.00  0.00    +0.000 N 
ATOM      6  C   UNL     1       2.671   2.710  18.486  0.00  0.00    +0.000 C 
ATOM      7  C   UNL     1       3.511   4.965  17.684  0.00  0.00    +0.000 C 
ENDROOT
BRANCH   7   8
ATOM      8  C   UNL     1       2.943   6.263  18.264  0.00  0.00    +0.000 A 
ATOM      9  C   UNL     1       2.496   6.345  19.600  0.00  0.00    +0.000 A 
ATOM     10  C   UNL     1       1.903   7.509  20.099  0.00  0.00    +0.000 A 
ATOM     11  C   UNL     1       1.759   8.610  19.270  0.00  0.00    +0.000 A 
ATOM     12 BR   UNL     1       0.874  10.159  19.914  0.00  0.00    +0.000 Br
ATOM     13  C   UNL     1       2.240   8.582  17.963  0.00  0.00    +0.000 A 
ATOM     14  C   UNL     1       2.833   7.415  17.468  0.00  0.00    +0.000 A 
ENDBRANCH   7   8
BRANCH   1  15
ATOM     15  C   UNL     1       5.649   5.745  16.284  0.00  0.00    +0.000 C 
ATOM     16  O   UNL     1       6.111   6.871  16.507  0.00  0.00    +0.000 OA
BRANCH  15  21
ATOM     17  C   UNL     1       7.088   2.933  11.451  0.00  0.00    +0.000 C 
ATOM     18  C   UNL     1       6.633   3.784  12.602  0.00  0.00    +0.000 A 
ATOM     19  C   UNL     1       5.337   3.658  13.116  0.00  0.00    +0.000 A 
ATOM     20  C   UNL     1       4.956   4.342  14.286  0.00  0.00    +0.000 A 
ATOM     21  C   UNL     1       5.871   5.172  14.935  0.00  0.00    +0.000 A 
ATOM     22  C   UNL     1       7.165   5.318  14.404  0.00  0.00    +0.000 A 
ATOM     23  C   UNL     1       7.541   4.627  13.250  0.00  0.00    +0.000 A 
ENDBRANCH  15  21
ENDBRANCH   1  15
BRANCH   2  24
ATOM     24  O   UNL     1       7.052   4.105  18.253  0.00  0.00    +0.000 OA
ATOM     25  H   UNL     1       7.264   3.615  17.430  0.00  0.00    +0.000 HD
ENDBRANCH   2  24
TORSDOF 4
ENDMDL
MODEL 5
REMARK VINA RESULT:      -8.0      1.718      2.256
REMARK  Name = 
REMARK  6 active torsions:
REMARK  status: ('A' for Active; 'I' for Inactive)
REMARK    1  A    between atoms: C_1  and  C_2
REMARK    2  A    between atoms: C_5  and  C_6
REMARK    3  A    between atoms: C_6  and  C_8
REMARK    4  A    between atoms: C_9  and  O_10
REMARK    5  A    between atoms: N_13  and  C_14
REMARK    6  A    between atoms: C_15  and  C_16
REMARK                            x       y       z     vdW  Elec       q    Type
REMARK                         _______ _______ _______ _____ _____    ______ ____
ROOT
ATOM      1  C   UNL     1       3.989   4.062  19.293  0.00  0.00    +0.000 C 
ATOM      2  C   UNL     1       3.852   3.142  20.261  0.00  0.00    +0.000 C 
ATOM      3  C   UNL     1       2.409   2.848  20.393  0.00  0.00    +0.000 C 
ATOM      4  O   UNL     1       1.910   2.027  21.140  0.00  0.00    +0.000 OA
ATOM      5  N   UNL     1       1.766   3.552  19.371  0.00  0.00    +0.000 N 
ATOM      6  C   UNL     1       0.888   2.739  18.556  0.00  0.00    +0.000 C 
ATOM      7  C   UNL     1       2.674   4.528  18.771  0.00  0.00    +0.000 C 
ENDROOT
BRANCH   7   8
ATOM      8  C   UNL     1       2.310   5.949  19.209  0.00  0.00    +0.000 A 
ATOM      9  C   UNL     1       1.794   6.220  20.494  0.00  0.00    +0.000 A 
ATOM     10  C   UNL     1       1.387   7.506  20.859  0.00  0.00    +0.000 A 
ATOM     11  C   UNL     1       1.502   8.542  19.945  0.00  0.00    +0.000 A 
ATOM     12 BR   UNL     1       0.868  10.270  20.403  0.00  0.00    +0.000 Br
ATOM     13  C   UNL     1       2.059   8.322  18.688  0.00  0.00    +0.000 A 
ATOM     14  C   UNL     1       2.466   7.031  18.327  0.00  0.00    +0.000 A 
ENDBRANCH   7   8
BRANCH   1  15
ATOM     15  C   UNL     1       5.343   4.465  18.880  0.00  0.00    +0.000 C 
ATOM     16  O   UNL     1       6.117   4.905  19.739  0.00  0.00    +0.000 OA
BRANCH  15  21
ATOM     17  C   UNL     1       6.864   4.649  13.313  0.00  0.00    +0.000 C 
ATOM     18  C   UNL     1       6.550   4.442  14.767  0.00  0.00    +0.000 A 
ATOM     19  C   UNL     1       7.497   4.741  15.753  0.00  0.00    +0.000 A 
ATOM     20  C   UNL     1       7.156   4.692  17.118  0.00  0.00    +0.000 A 
ATOM     21  C   UNL     1       5.866   4.323  17.499  0.00  0.00    +0.000 A 
ATOM     22  C   UNL     1       4.922   3.997  16.509  0.00  0.00    +0.000 A 
ATOM     23  C   UNL     1       5.262   4.059  15.156  0.00  0.00    +0.000 A 
ENDBRANCH  15  21
ENDBRANCH   1  15
BRANCH   2  24
ATOM     24  O   UNL     1       4.824   2.445  20.926  0.00  0.00    +0.000 OA
ATOM     25  H   UNL     1       5.663   2.941  20.809  0.00  0.00    +0.000 HD
ENDBRANCH   2  24
TORSDOF 4
ENDMDL
MODEL 6
REMARK VINA RESULT:      -7.9      2.146      2.867
REMARK  Name = 
REMARK  6 active torsions:
REMARK  status: ('A' for Active; 'I' for Inactive)
REMARK    1  A    between atoms: C_1  and  C_2
REMARK    2  A    between atoms: C_5  and  C_6
REMARK    3  A    between atoms: C_6  and  C_8
REMARK    4  A    between atoms: C_9  and  O_10
REMARK    5  A    between atoms: N_13  and  C_14
REMARK    6  A    between atoms: C_15  and  C_16
REMARK                            x       y       z     vdW  Elec       q    Type
REMARK                         _______ _______ _______ _____ _____    ______ ____
ROOT
ATOM      1  C   UNL     1       4.247   4.963  18.119  0.00  0.00    +0.000 C 
ATOM      2  C   UNL     1       4.551   4.056  19.061  0.00  0.00    +0.000 C 
ATOM      3  C   UNL     1       3.278   3.564  19.629  0.00  0.00    +0.000 C 
ATOM      4  O   UNL     1       3.158   2.698  20.476  0.00  0.00    +0.000 OA
ATOM      5  N   UNL     1       2.256   4.146  18.874  0.00  0.00    +0.000 N 
ATOM      6  C   UNL     1       1.292   3.197  18.357  0.00  0.00    +0.000 C 
ATOM      7  C   UNL     1       2.783   5.225  18.043  0.00  0.00    +0.000 C 
ENDROOT
BRANCH   7   8
ATOM      8  C   UNL     1       2.376   6.591  18.604  0.00  0.00    +0.000 A 
ATOM      9  C   UNL     1       2.064   6.769  19.969  0.00  0.00    +0.000 A 
ATOM     10  C   UNL     1       1.614   7.998  20.459  0.00  0.00    +0.000 A 
ATOM     11  C   UNL     1       1.480   9.070  19.589  0.00  0.00    +0.000 A 
ATOM     12 BR   UNL     1       0.784  10.714  20.230  0.00  0.00    +0.000 Br
ATOM     13  C   UNL     1       1.832   8.945  18.248  0.00  0.00    +0.000 A 
ATOM     14  C   UNL     1       2.283   7.711  17.762  0.00  0.00    +0.000 A 
ENDBRANCH   7   8
BRANCH   1  15
ATOM     15  C   UNL     1       5.334   5.544  17.313  0.00  0.00    +0.000 C 
ATOM     16  O   UNL     1       6.106   6.346  17.852  0.00  0.00    +0.000 OA
BRANCH  15  21
ATOM     17  C   UNL     1       6.963   3.536  12.150  0.00  0.00    +0.000 C 
ATOM     18  C   UNL     1       6.455   4.190  13.404  0.00  0.00    +0.000 A 
ATOM     19  C   UNL     1       5.157   3.943  13.863  0.00  0.00    +0.000 A 
ATOM     20  C   UNL     1       4.730   4.431  15.113  0.00  0.00    +0.000 A 
ATOM     21  C   UNL     1       5.600   5.186  15.898  0.00  0.00    +0.000 A 
ATOM     22  C   UNL     1       6.897   5.456  15.425  0.00  0.00    +0.000 A 
ATOM     23  C   UNL     1       7.320   4.959  14.189  0.00  0.00    +0.000 A 
ENDBRANCH  15  21
ENDBRANCH   1  15
BRANCH   2  24
ATOM     24  O   UNL     1       5.771   3.520  19.374  0.00  0.00    +0.000 OA
ATOM     25  H   UNL     1       6.211   4.147  19.987  0.00  0.00    +0.000 HD
ENDBRANCH   2  24
TORSDOF 4
ENDMDL
MODEL 7
REMARK VINA RESULT:      -7.9      2.449      3.371
REMARK  Name = 
REMARK  6 active torsions:
REMARK  status: ('A' for Active; 'I' for Inactive)
REMARK    1  A    between atoms: C_1  and  C_2
REMARK    2  A    between atoms: C_5  and  C_6
REMARK    3  A    between atoms: C_6  and  C_8
REMARK    4  A    between atoms: C_9  and  O_10
REMARK    5  A    between atoms: N_13  and  C_14
REMARK    6  A    between atoms: C_15  and  C_16
REMARK                            x       y       z     vdW  Elec       q    Type
REMARK                         _______ _______ _______ _____ _____    ______ ____
ROOT
ATOM      1  C   UNL     1       4.705   4.902  17.705  0.00  0.00    +0.000 C 
ATOM      2  C   UNL     1       5.479   4.169  18.522  0.00  0.00    +0.000 C 
ATOM      3  C   UNL     1       4.582   3.362  19.375  0.00  0.00    +0.000 C 
ATOM      4  O   UNL     1       4.929   2.542  20.206  0.00  0.00    +0.000 OA
ATOM      5  N   UNL     1       3.283   3.586  18.910  0.00  0.00    +0.000 N 
ATOM      6  C   UNL     1       2.542   2.376  18.625  0.00  0.00    +0.000 C 
ATOM      7  C   UNL     1       3.256   4.729  18.000  0.00  0.00    +0.000 C 
ENDROOT
BRANCH   7   8
ATOM      8  C   UNL     1       2.618   5.946  18.675  0.00  0.00    +0.000 A 
ATOM      9  C   UNL     1       2.477   7.178  18.003  0.00  0.00    +0.000 A 
ATOM     10  C   UNL     1       1.969   8.308  18.651  0.00  0.00    +0.000 A 
ATOM     11  C   UNL     1       1.585   8.215  19.980  0.00  0.00    +0.000 A 
ATOM     12 BR   UNL     1       0.981   9.765  20.890  0.00  0.00    +0.000 Br
ATOM     13  C   UNL     1       1.659   7.001  20.658  0.00  0.00    +0.000 A 
ATOM     14  C   UNL     1       2.168   5.872  20.004  0.00  0.00    +0.000 A 
ENDBRANCH   7   8
BRANCH   1  15
ATOM     15  C   UNL     1       5.346   5.729  16.670  0.00  0.00    +0.000 C 
ATOM     16  O   UNL     1       5.691   6.881  16.962  0.00  0.00    +0.000 OA
BRANCH  15  21
ATOM     17  C   UNL     1       7.145   3.279  11.761  0.00  0.00    +0.000 C 
ATOM     18  C   UNL     1       6.598   4.040  12.934  0.00  0.00    +0.000 A 
ATOM     19  C   UNL     1       5.282   3.838  13.367  0.00  0.00    +0.000 A 
ATOM     20  C   UNL     1       4.814   4.432  14.554  0.00  0.00    +0.000 A 
ATOM     21  C   UNL     1       5.661   5.250  15.302  0.00  0.00    +0.000 A 
ATOM     22  C   UNL     1       6.975   5.474  14.854  0.00  0.00    +0.000 A 
ATOM     23  C   UNL     1       7.438   4.871  13.682  0.00  0.00    +0.000 A 
ENDBRANCH  15  21
ENDBRANCH   1  15
BRANCH   2  24
ATOM     24  O   UNL     1       6.839   4.023  18.512  0.00  0.00    +0.000 OA
ATOM     25  H   UNL     1       7.052   3.275  19.110  0.00  0.00    +0.000 HD
ENDBRANCH   2  24
TORSDOF 4
ENDMDL
MODEL 8
REMARK VINA RESULT:      -7.8      0.494      1.102
REMARK  Name = 
REMARK  6 active torsions:
REMARK  status: ('A' for Active; 'I' for Inactive)
REMARK    1  A    between atoms: C_1  and  C_2
REMARK    2  A    between atoms: C_5  and  C_6
REMARK    3  A    between atoms: C_6  and  C_8
REMARK    4  A    between atoms: C_9  and  O_10
REMARK    5  A    between atoms: N_13  and  C_14
REMARK    6  A    between atoms: C_15  and  C_16
REMARK                            x       y       z     vdW  Elec       q    Type
REMARK                         _______ _______ _______ _____ _____    ______ ____
ROOT
ATOM      1  C   UNL     1       3.924   3.983  18.476  0.00  0.00    +0.000 C 
ATOM      2  C   UNL     1       4.100   3.109  19.480  0.00  0.00    +0.000 C 
ATOM      3  C   UNL     1       2.767   2.809  20.044  0.00  0.00    +0.000 C 
ATOM      4  O   UNL     1       2.529   2.020  20.940  0.00  0.00    +0.000 OA
ATOM      5  N   UNL     1       1.835   3.457  19.229  0.00  0.00    +0.000 N 
ATOM      6  C   UNL     1       0.775   2.599  18.746  0.00  0.00    +0.000 C 
ATOM      7  C   UNL     1       2.504   4.411  18.346  0.00  0.00    +0.000 C 
ENDROOT
BRANCH   7   8
ATOM      8  C   UNL     1       2.253   5.849  18.811  0.00  0.00    +0.000 A 
ATOM      9  C   UNL     1       1.972   6.154  20.159  0.00  0.00    +0.000 A 
ATOM     10  C   UNL     1       1.663   7.456  20.562  0.00  0.00    +0.000 A 
ATOM     11  C   UNL     1       1.642   8.473  19.621  0.00  0.00    +0.000 A 
ATOM     12 BR   UNL     1       1.135  10.224  20.145  0.00  0.00    +0.000 Br
ATOM     13  C   UNL     1       1.969   8.218  18.291  0.00  0.00    +0.000 A 
ATOM     14  C   UNL     1       2.278   6.912  17.893  0.00  0.00    +0.000 A 
ENDBRANCH   7   8
BRANCH   1  15
ATOM     15  C   UNL     1       5.087   4.378  17.663  0.00  0.00    +0.000 C 
ATOM     16  O   UNL     1       5.436   3.640  16.734  0.00  0.00    +0.000 OA
BRANCH  15  21
ATOM     17  C   UNL     1       8.692   8.880  17.927  0.00  0.00    +0.000 C 
ATOM     18  C   UNL     1       7.653   7.797  17.977  0.00  0.00    +0.000 A 
ATOM     19  C   UNL     1       6.488   7.888  17.206  0.00  0.00    +0.000 A 
ATOM     20  C   UNL     1       5.586   6.809  17.134  0.00  0.00    +0.000 A 
ATOM     21  C   UNL     1       5.841   5.641  17.852  0.00  0.00    +0.000 A 
ATOM     22  C   UNL     1       6.998   5.559  18.647  0.00  0.00    +0.000 A 
ATOM     23  C   UNL     1       7.896   6.628  18.705  0.00  0.00    +0.000 A 
ENDBRANCH  15  21
ENDBRANCH   1  15
BRANCH   2  24
ATOM     24  O   UNL     1       5.240   2.454  19.857  0.00  0.00    +0.000 OA
ATOM     25  H   UNL     1       5.171   2.287  20.821  0.00  0.00    +0.000 HD
ENDBRANCH   2  24
TORSDOF 4
ENDMDL
MODEL 9
REMARK VINA RESULT:      -7.6      2.073      5.130
REMARK  Name = 
REMARK  6 active torsions:
REMARK  status: ('A' for Active; 'I' for Inactive)
REMARK    1  A    between atoms: C_1  and  C_2
REMARK    2  A    between atoms: C_5  and  C_6
REMARK    3  A    between atoms: C_6  and  C_8
REMARK    4  A    between atoms: C_9  and  O_10
REMARK    5  A    between atoms: N_13  and  C_14
REMARK    6  A    between atoms: C_15  and  C_16
REMARK                            x       y       z     vdW  Elec       q    Type
REMARK                         _______ _______ _______ _____ _____    ______ ____
ROOT
ATOM      1  C   UNL     1       5.091   4.329  17.359  0.00  0.00    +0.000 C 
ATOM      2  C   UNL     1       5.874   4.513  16.285  0.00  0.00    +0.000 C 
ATOM      3  C   UNL     1       6.727   5.689  16.555  0.00  0.00    +0.000 C 
ATOM      4  O   UNL     1       7.597   6.127  15.824  0.00  0.00    +0.000 OA
ATOM      5  N   UNL     1       6.470   6.072  17.874  0.00  0.00    +0.000 N 
ATOM      6  C   UNL     1       7.657   6.213  18.690  0.00  0.00    +0.000 C 
ATOM      7  C   UNL     1       5.275   5.398  18.378  0.00  0.00    +0.000 C 
ENDROOT
BRANCH   7   8
ATOM      8  C   UNL     1       4.097   6.374  18.462  0.00  0.00    +0.000 A 
ATOM      9  C   UNL     1       3.881   7.362  17.478  0.00  0.00    +0.000 A 
ATOM     10  C   UNL     1       2.853   8.301  17.603  0.00  0.00    +0.000 A 
ATOM     11  C   UNL     1       2.020   8.256  18.710  0.00  0.00    +0.000 A 
ATOM     12 BR   UNL     1       0.682   9.582  18.929  0.00  0.00    +0.000 Br
ATOM     13  C   UNL     1       2.170   7.260  19.672  0.00  0.00    +0.000 A 
ATOM     14  C   UNL     1       3.201   6.322  19.543  0.00  0.00    +0.000 A 
ENDBRANCH   7   8
BRANCH   1  15
ATOM     15  C   UNL     1       4.206   3.152  17.403  0.00  0.00    +0.000 C 
ATOM     16  O   UNL     1       4.223   2.365  16.449  0.00  0.00    +0.000 OA
BRANCH  15  21
ATOM     17  C   UNL     1       1.109   2.615  22.246  0.00  0.00    +0.000 C 
ATOM     18  C   UNL     1       1.864   2.587  20.948  0.00  0.00    +0.000 A 
ATOM     19  C   UNL     1       1.214   2.851  19.737  0.00  0.00    +0.000 A 
ATOM     20  C   UNL     1       1.943   2.976  18.539  0.00  0.00    +0.000 A 
ATOM     21  C   UNL     1       3.329   2.815  18.550  0.00  0.00    +0.000 A 
ATOM     22  C   UNL     1       3.980   2.524  19.763  0.00  0.00    +0.000 A 
ATOM     23  C   UNL     1       3.252   2.414  20.950  0.00  0.00    +0.000 A 
ENDBRANCH  15  21
ENDBRANCH   1  15
BRANCH   2  24
ATOM     24  O   UNL     1       6.026   3.710  15.187  0.00  0.00    +0.000 OA
ATOM     25  H   UNL     1       5.779   4.246  14.403  0.00  0.00    +0.000 HD
ENDBRANCH   2  24
TORSDOF 4
ENDMDL
