MODEL 1
REMARK VINA RESULT:      -8.5      0.000      0.000
REMARK  Name = 
REMARK  2 active torsions:
REMARK  status: ('A' for Active; 'I' for Inactive)
REMARK    1  A    between atoms: N_4  and  C_5
REMARK    2  A    between atoms: C_7  and  C_8
REMARK                            x       y       z     vdW  Elec       q    Type
REMARK                         _______ _______ _______ _____ _____    ______ ____
ROOT
ATOM      1  C   UNL     1       4.179   5.793  17.547  0.00  0.00    +0.000 A 
ATOM      2  N   UNL     1       3.617   6.976  17.920  0.00  0.00    +0.000 NA
ATOM      3  C   UNL     1       2.378   7.001  18.475  0.00  0.00    +0.000 A 
ATOM      4  C   UNL     1       1.631   5.843  18.623  0.00  0.00    +0.000 A 
ATOM      5  C   UNL     1       2.199   4.616  18.290  0.00  0.00    +0.000 A 
ATOM      6  C   UNL     1       1.504   3.420  18.482  0.00  0.00    +0.000 A 
ATOM      7  N   UNL     1       2.006   2.191  18.239  0.00  0.00    +0.000 NA
ATOM      8  C   UNL     1       3.277   2.142  17.810  0.00  0.00    +0.000 A 
ATOM      9  C   UNL     1       4.052   3.268  17.584  0.00  0.00    +0.000 A 
ATOM     10  C   UNL     1       3.508   4.559  17.778  0.00  0.00    +0.000 A 
ENDROOT
BRANCH   1  14
ATOM     11  O   UNL     1       6.942   4.625  13.792  0.00  0.00    +0.000 OA
ATOM     12  C   UNL     1       6.766   4.889  14.982  0.00  0.00    +0.000 C 
ATOM     13  C   UNL     1       5.510   5.632  15.478  0.00  0.00    +0.000 C 
ATOM     14  N   UNL     1       5.426   5.849  16.937  0.00  0.00    +0.000 N 
ATOM     15  C   UNL     1       6.661   5.777  17.718  0.00  0.00    +0.000 C 
ATOM     16  C   UNL     1       7.496   4.569  17.302  0.00  0.00    +0.000 C 
ATOM     17  N   UNL     1       7.743   4.555  15.882  0.00  0.00    +0.000 N 
ATOM     18  H   UNL     1       8.496   3.996  15.500  0.00  0.00    +0.000 HD
ENDBRANCH   1  14
BRANCH   3  19
ATOM     19  C   UNL     1       1.870   8.320  18.919  0.00  0.00    +0.000 A 
ATOM     20  C   UNL     1       1.847   9.424  18.056  0.00  0.00    +0.000 A 
ATOM     21  C   UNL     1       1.340  10.634  18.511  0.00  0.00    +0.000 A 
ATOM     22  N   UNL     1       0.860  10.832  19.756  0.00  0.00    +0.000 NA
ATOM     23  C   UNL     1       0.905   9.776  20.588  0.00  0.00    +0.000 A 
ATOM     24  C   UNL     1       1.393   8.529  20.223  0.00  0.00    +0.000 A 
ENDBRANCH   3  19
TORSDOF 2
ENDMDL
MODEL 2
REMARK VINA RESULT:      -8.4      1.402      1.402
REMARK  Name = 
REMARK  2 active torsions:
REMARK  status: ('A' for Active; 'I' for Inactive)
REMARK    1  A    between atoms: N_4  and  C_5
REMARK    2  A    between atoms: C_7  and  C_8
REMARK                            x       y       z     vdW  Elec       q    Type
REMARK                         _______ _______ _______ _____ _____    ______ ____
ROOT
ATOM      1  C   UNL     1       4.183   5.730  18.506  0.00  0.00    +0.000 A 
ATOM      2  N   UNL     1       3.458   6.877  18.611  0.00  0.00    +0.000 NA
ATOM      3  C   UNL     1       2.401   6.945  19.461  0.00  0.00    +0.000 A 
ATOM      4  C   UNL     1       1.996   5.842  20.194  0.00  0.00    +0.000 A 
ATOM      5  C   UNL     1       2.745   4.670  20.138  0.00  0.00    +0.000 A 
ATOM      6  C   UNL     1       2.407   3.556  20.911  0.00  0.00    +0.000 A 
ATOM      7  N   UNL     1       3.114   2.407  20.955  0.00  0.00    +0.000 NA
ATOM      8  C   UNL     1       4.235   2.371  20.216  0.00  0.00    +0.000 A 
ATOM      9  C   UNL     1       4.658   3.418  19.415  0.00  0.00    +0.000 A 
ATOM     10  C   UNL     1       3.885   4.599  19.318  0.00  0.00    +0.000 A 
ENDROOT
BRANCH   1  14
ATOM     11  O   UNL     1       6.216   3.630  14.690  0.00  0.00    +0.000 OA
ATOM     12  C   UNL     1       6.259   4.286  15.732  0.00  0.00    +0.000 C 
ATOM     13  C   UNL     1       5.016   4.994  16.305  0.00  0.00    +0.000 C 
ATOM     14  N   UNL     1       5.217   5.716  17.578  0.00  0.00    +0.000 N 
ATOM     15  C   UNL     1       6.581   6.092  17.950  0.00  0.00    +0.000 C 
ATOM     16  C   UNL     1       7.546   4.932  17.719  0.00  0.00    +0.000 C 
ATOM     17  N   UNL     1       7.463   4.431  16.369  0.00  0.00    +0.000 N 
ATOM     18  H   UNL     1       8.214   3.871  15.985  0.00  0.00    +0.000 HD
ENDBRANCH   1  14
BRANCH   3  19
ATOM     19  C   UNL     1       1.712   8.252  19.568  0.00  0.00    +0.000 A 
ATOM     20  C   UNL     1       1.624   9.126  18.476  0.00  0.00    +0.000 A 
ATOM     21  C   UNL     1       0.947  10.330  18.619  0.00  0.00    +0.000 A 
ATOM     22  N   UNL     1       0.357  10.733  19.763  0.00  0.00    +0.000 NA
ATOM     23  C   UNL     1       0.462   9.902  20.815  0.00  0.00    +0.000 A 
ATOM     24  C   UNL     1       1.118   8.680  20.767  0.00  0.00    +0.000 A 
ENDBRANCH   3  19
TORSDOF 2
ENDMDL
MODEL 3
REMARK VINA RESULT:      -8.3      1.869      2.327
REMARK  Name = 
REMARK  2 active torsions:
REMARK  status: ('A' for Active; 'I' for Inactive)
REMARK    1  A    between atoms: N_4  and  C_5
REMARK    2  A    between atoms: C_7  and  C_8
REMARK                            x       y       z     vdW  Elec       q    Type
REMARK                         _______ _______ _______ _____ _____    ______ ____
ROOT
ATOM      1  C   UNL     1       3.984   5.247  18.871  0.00  0.00    +0.000 A 
ATOM      2  N   UNL     1       3.382   6.467  18.810  0.00  0.00    +0.000 NA
ATOM      3  C   UNL     1       2.329   6.752  19.618  0.00  0.00    +0.000 A 
ATOM      4  C   UNL     1       1.802   5.802  20.477  0.00  0.00    +0.000 A 
ATOM      5  C   UNL     1       2.425   4.562  20.590  0.00  0.00    +0.000 A 
ATOM      6  C   UNL     1       1.965   3.598  21.491  0.00  0.00    +0.000 A 
ATOM      7  N   UNL     1       2.547   2.399  21.699  0.00  0.00    +0.000 NA
ATOM      8  C   UNL     1       3.666   2.152  20.999  0.00  0.00    +0.000 A 
ATOM      9  C   UNL     1       4.205   3.038  20.080  0.00  0.00    +0.000 A 
ATOM     10  C   UNL     1       3.560   4.269  19.814  0.00  0.00    +0.000 A 
ENDROOT
BRANCH   1  14
ATOM     11  O   UNL     1       7.869   6.916  16.585  0.00  0.00    +0.000 OA
ATOM     12  C   UNL     1       6.881   6.185  16.676  0.00  0.00    +0.000 C 
ATOM     13  C   UNL     1       6.215   5.876  18.031  0.00  0.00    +0.000 C 
ATOM     14  N   UNL     1       5.020   5.008  17.978  0.00  0.00    +0.000 N 
ATOM     15  C   UNL     1       4.830   4.169  16.795  0.00  0.00    +0.000 C 
ATOM     16  C   UNL     1       5.098   4.961  15.518  0.00  0.00    +0.000 C 
ATOM     17  N   UNL     1       6.395   5.590  15.542  0.00  0.00    +0.000 N 
ATOM     18  H   UNL     1       6.827   5.904  14.682  0.00  0.00    +0.000 HD
ENDBRANCH   1  14
BRANCH   3  19
ATOM     19  C   UNL     1       1.778   8.126  19.540  0.00  0.00    +0.000 A 
ATOM     20  C   UNL     1       1.163   8.732  20.644  0.00  0.00    +0.000 A 
ATOM     21  C   UNL     1       0.683  10.030  20.529  0.00  0.00    +0.000 A 
ATOM     22  N   UNL     1       0.763  10.768  19.403  0.00  0.00    +0.000 NA
ATOM     23  C   UNL     1       1.335  10.175  18.339  0.00  0.00    +0.000 A 
ATOM     24  C   UNL     1       1.842   8.884  18.359  0.00  0.00    +0.000 A 
ENDBRANCH   3  19
TORSDOF 2
ENDMDL
MODEL 4
REMARK VINA RESULT:      -8.1      1.909      2.192
REMARK  Name = 
REMARK  2 active torsions:
REMARK  status: ('A' for Active; 'I' for Inactive)
REMARK    1  A    between atoms: N_4  and  C_5
REMARK    2  A    between atoms: C_7  and  C_8
REMARK                            x       y       z     vdW  Elec       q    Type
REMARK                         _______ _______ _______ _____ _____    ______ ____
ROOT
ATOM      1  C   UNL     1       3.824   4.887  18.643  0.00  0.00    +0.000 A 
ATOM      2  N   UNL     1       3.328   6.147  18.511  0.00  0.00    +0.000 NA
ATOM      3  C   UNL     1       2.413   6.620  19.396  0.00  0.00    +0.000 A 
ATOM      4  C   UNL     1       1.918   5.823  20.415  0.00  0.00    +0.000 A 
ATOM      5  C   UNL     1       2.441   4.545  20.599  0.00  0.00    +0.000 A 
ATOM      6  C   UNL     1       2.016   3.733  21.653  0.00  0.00    +0.000 A 
ATOM      7  N   UNL     1       2.514   2.510  21.932  0.00  0.00    +0.000 NA
ATOM      8  C   UNL     1       3.511   2.081  21.141  0.00  0.00    +0.000 A 
ATOM      9  C   UNL     1       4.004   2.806  20.069  0.00  0.00    +0.000 A 
ATOM     10  C   UNL     1       3.440   4.060  19.737  0.00  0.00    +0.000 A 
ENDROOT
BRANCH   1  14
ATOM     11  O   UNL     1       8.390   4.306  17.259  0.00  0.00    +0.000 OA
ATOM     12  C   UNL     1       7.193   4.491  17.036  0.00  0.00    +0.000 C 
ATOM     13  C   UNL     1       6.105   4.145  18.071  0.00  0.00    +0.000 C 
ATOM     14  N   UNL     1       4.716   4.452  17.671  0.00  0.00    +0.000 N 
ATOM     15  C   UNL     1       4.428   4.611  16.245  0.00  0.00    +0.000 C 
ATOM     16  C   UNL     1       5.489   5.475  15.570  0.00  0.00    +0.000 C 
ATOM     17  N   UNL     1       6.818   4.970  15.809  0.00  0.00    +0.000 N 
ATOM     18  H   UNL     1       7.587   5.254  15.213  0.00  0.00    +0.000 HD
ENDBRANCH   1  14
BRANCH   3  19
ATOM     19  C   UNL     1       1.978   8.026  19.222  0.00  0.00    +0.000 A 
ATOM     20  C   UNL     1       2.247   8.735  18.043  0.00  0.00    +0.000 A 
ATOM     21  C   UNL     1       1.799  10.044  17.918  0.00  0.00    +0.000 A 
ATOM     22  N   UNL     1       1.109  10.701  18.873  0.00  0.00    +0.000 NA
ATOM     23  C   UNL     1       0.872  10.024  20.011  0.00  0.00    +0.000 A 
ATOM     24  C   UNL     1       1.281   8.715  20.227  0.00  0.00    +0.000 A 
ENDBRANCH   3  19
TORSDOF 2
ENDMDL
MODEL 5
REMARK VINA RESULT:      -8.1      2.170      4.049
REMARK  Name = 
REMARK  2 active torsions:
REMARK  status: ('A' for Active; 'I' for Inactive)
REMARK    1  A    between atoms: N_4  and  C_5
REMARK    2  A    between atoms: C_7  and  C_8
REMARK                            x       y       z     vdW  Elec       q    Type
REMARK                         _______ _______ _______ _____ _____    ______ ____
ROOT
ATOM      1  C   UNL     1       3.429   4.942  18.309  0.00  0.00    +0.000 A 
ATOM      2  N   UNL     1       2.691   5.952  18.846  0.00  0.00    +0.000 NA
ATOM      3  C   UNL     1       2.810   7.217  18.367  0.00  0.00    +0.000 A 
ATOM      4  C   UNL     1       3.717   7.526  17.367  0.00  0.00    +0.000 A 
ATOM      5  C   UNL     1       4.452   6.504  16.770  0.00  0.00    +0.000 A 
ATOM      6  C   UNL     1       5.331   6.764  15.716  0.00  0.00    +0.000 A 
ATOM      7  N   UNL     1       6.033   5.823  15.050  0.00  0.00    +0.000 NA
ATOM      8  C   UNL     1       5.829   4.551  15.429  0.00  0.00    +0.000 A 
ATOM      9  C   UNL     1       4.983   4.186  16.462  0.00  0.00    +0.000 A 
ATOM     10  C   UNL     1       4.295   5.176  17.203  0.00  0.00    +0.000 A 
ENDROOT
BRANCH   1  14
ATOM     11  O   UNL     1       5.418   1.394  20.871  0.00  0.00    +0.000 OA
ATOM     12  C   UNL     1       4.638   1.828  20.021  0.00  0.00    +0.000 C 
ATOM     13  C   UNL     1       4.212   3.309  19.982  0.00  0.00    +0.000 C 
ATOM     14  N   UNL     1       3.296   3.685  18.885  0.00  0.00    +0.000 N 
ATOM     15  C   UNL     1       2.527   2.624  18.233  0.00  0.00    +0.000 C 
ATOM     16  C   UNL     1       3.413   1.417  17.936  0.00  0.00    +0.000 C 
ATOM     17  N   UNL     1       4.097   0.953  19.117  0.00  0.00    +0.000 N 
ATOM     18  H   UNL     1       4.485   0.018  19.148  0.00  0.00    +0.000 HD
ENDBRANCH   1  14
BRANCH   3  19
ATOM     19  C   UNL     1       1.920   8.243  18.958  0.00  0.00    +0.000 A 
ATOM     20  C   UNL     1       1.551   8.202  20.310  0.00  0.00    +0.000 A 
ATOM     21  C   UNL     1       0.733   9.199  20.824  0.00  0.00    +0.000 A 
ATOM     22  N   UNL     1       0.250  10.229  20.099  0.00  0.00    +0.000 NA
ATOM     23  C   UNL     1       0.588  10.252  18.797  0.00  0.00    +0.000 A 
ATOM     24  C   UNL     1       1.399   9.301  18.195  0.00  0.00    +0.000 A 
ENDBRANCH   3  19
TORSDOF 2
ENDMDL
MODEL 6
REMARK VINA RESULT:      -7.8      2.208      4.271
REMARK  Name = 
REMARK  2 active torsions:
REMARK  status: ('A' for Active; 'I' for Inactive)
REMARK    1  A    between atoms: N_4  and  C_5
REMARK    2  A    between atoms: C_7  and  C_8
REMARK                            x       y       z     vdW  Elec       q    Type
REMARK                         _______ _______ _______ _____ _____    ______ ____
ROOT
ATOM      1  C   UNL     1       3.520   4.931  17.509  0.00  0.00    +0.000 A 
ATOM      2  N   UNL     1       2.750   5.924  18.034  0.00  0.00    +0.000 NA
ATOM      3  C   UNL     1       3.218   7.198  18.088  0.00  0.00    +0.000 A 
ATOM      4  C   UNL     1       4.500   7.512  17.670  0.00  0.00    +0.000 A 
ATOM      5  C   UNL     1       5.292   6.524  17.089  0.00  0.00    +0.000 A 
ATOM      6  C   UNL     1       6.567   6.814  16.597  0.00  0.00    +0.000 A 
ATOM      7  N   UNL     1       7.370   5.928  15.971  0.00  0.00    +0.000 NA
ATOM      8  C   UNL     1       6.870   4.694  15.796  0.00  0.00    +0.000 A 
ATOM      9  C   UNL     1       5.620   4.303  16.247  0.00  0.00    +0.000 A 
ATOM     10  C   UNL     1       4.803   5.213  16.959  0.00  0.00    +0.000 A 
ENDROOT
BRANCH   1  14
ATOM     11  O   UNL     1       0.002   1.982  18.933  0.00  0.00    +0.000 OA
ATOM     12  C   UNL     1       1.169   2.226  18.624  0.00  0.00    +0.000 C 
ATOM     13  C   UNL     1       1.555   3.471  17.802  0.00  0.00    +0.000 C 
ATOM     14  N   UNL     1       2.998   3.644  17.536  0.00  0.00    +0.000 N 
ATOM     15  C   UNL     1       3.865   2.471  17.645  0.00  0.00    +0.000 C 
ATOM     16  C   UNL     1       3.543   1.673  18.906  0.00  0.00    +0.000 C 
ATOM     17  N   UNL     1       2.144   1.332  18.978  0.00  0.00    +0.000 N 
ATOM     18  H   UNL     1       1.831   0.584  19.586  0.00  0.00    +0.000 HD
ENDBRANCH   1  14
BRANCH   3  19
ATOM     19  C   UNL     1       2.290   8.230  18.606  0.00  0.00    +0.000 A 
ATOM     20  C   UNL     1       1.877   9.309  17.813  0.00  0.00    +0.000 A 
ATOM     21  C   UNL     1       0.987  10.238  18.336  0.00  0.00    +0.000 A 
ATOM     22  N   UNL     1       0.482  10.180  19.586  0.00  0.00    +0.000 NA
ATOM     23  C   UNL     1       0.898   9.155  20.351  0.00  0.00    +0.000 A 
ATOM     24  C   UNL     1       1.784   8.180  19.916  0.00  0.00    +0.000 A 
ENDBRANCH   3  19
TORSDOF 2
ENDMDL
MODEL 7
REMARK VINA RESULT:      -7.8      1.823      2.036
REMARK  Name = 
REMARK  2 active torsions:
REMARK  status: ('A' for Active; 'I' for Inactive)
REMARK    1  A    between atoms: N_4  and  C_5
REMARK    2  A    between atoms: C_7  and  C_8
REMARK                            x       y       z     vdW  Elec       q    Type
REMARK                         _______ _______ _______ _____ _____    ______ ____
ROOT
ATOM      1  C   UNL     1       3.825   5.633  18.710  0.00  0.00    +0.000 A 
ATOM      2  N   UNL     1       3.187   6.829  18.829  0.00  0.00    +0.000 NA
ATOM      3  C   UNL     1       2.208   6.995  19.756  0.00  0.00    +0.000 A 
ATOM      4  C   UNL     1       1.794   5.946  20.560  0.00  0.00    +0.000 A 
ATOM      5  C   UNL     1       2.459   4.725  20.489  0.00  0.00    +0.000 A 
ATOM      6  C   UNL     1       2.114   3.662  21.327  0.00  0.00    +0.000 A 
ATOM      7  N   UNL     1       2.747   2.470  21.358  0.00  0.00    +0.000 NA
ATOM      8  C   UNL     1       3.800   2.335  20.536  0.00  0.00    +0.000 A 
ATOM      9  C   UNL     1       4.223   3.325  19.665  0.00  0.00    +0.000 A 
ATOM     10  C   UNL     1       3.522   4.552  19.585  0.00  0.00    +0.000 A 
ENDROOT
BRANCH   1  14
ATOM     11  O   UNL     1       8.211   4.177  17.386  0.00  0.00    +0.000 OA
ATOM     12  C   UNL     1       7.230   4.917  17.300  0.00  0.00    +0.000 C 
ATOM     13  C   UNL     1       5.850   4.514  17.855  0.00  0.00    +0.000 C 
ATOM     14  N   UNL     1       4.777   5.520  17.704  0.00  0.00    +0.000 N 
ATOM     15  C   UNL     1       4.948   6.565  16.695  0.00  0.00    +0.000 C 
ATOM     16  C   UNL     1       6.360   7.144  16.746  0.00  0.00    +0.000 C 
ATOM     17  N   UNL     1       7.362   6.113  16.645  0.00  0.00    +0.000 N 
ATOM     18  H   UNL     1       8.312   6.348  16.383  0.00  0.00    +0.000 HD
ENDBRANCH   1  14
BRANCH   3  19
ATOM     19  C   UNL     1       1.615   8.348  19.868  0.00  0.00    +0.000 A 
ATOM     20  C   UNL     1       1.504   9.193  18.755  0.00  0.00    +0.000 A 
ATOM     21  C   UNL     1       0.919  10.444  18.906  0.00  0.00    +0.000 A 
ATOM     22  N   UNL     1       0.442  10.920  20.075  0.00  0.00    +0.000 NA
ATOM     23  C   UNL     1       0.572  10.114  21.144  0.00  0.00    +0.000 A 
ATOM     24  C   UNL     1       1.141   8.850  21.091  0.00  0.00    +0.000 A 
ENDBRANCH   3  19
TORSDOF 2
ENDMDL
MODEL 8
REMARK VINA RESULT:      -7.8      2.651      4.341
REMARK  Name = 
REMARK  2 active torsions:
REMARK  status: ('A' for Active; 'I' for Inactive)
REMARK    1  A    between atoms: N_4  and  C_5
REMARK    2  A    between atoms: C_7  and  C_8
REMARK                            x       y       z     vdW  Elec       q    Type
REMARK                         _______ _______ _______ _____ _____    ______ ____
ROOT
ATOM      1  C   UNL     1       3.161   5.012  18.469  0.00  0.00    +0.000 A 
ATOM      2  N   UNL     1       2.474   6.086  18.946  0.00  0.00    +0.000 NA
ATOM      3  C   UNL     1       2.678   7.320  18.416  0.00  0.00    +0.000 A 
ATOM      4  C   UNL     1       3.623   7.531  17.426  0.00  0.00    +0.000 A 
ATOM      5  C   UNL     1       4.308   6.443  16.890  0.00  0.00    +0.000 A 
ATOM      6  C   UNL     1       5.223   6.604  15.847  0.00  0.00    +0.000 A 
ATOM      7  N   UNL     1       5.881   5.596  15.239  0.00  0.00    +0.000 NA
ATOM      8  C   UNL     1       5.594   4.355  15.666  0.00  0.00    +0.000 A 
ATOM      9  C   UNL     1       4.705   4.086  16.693  0.00  0.00    +0.000 A 
ATOM     10  C   UNL     1       4.062   5.146  17.375  0.00  0.00    +0.000 A 
ENDROOT
BRANCH   1  14
ATOM     11  O   UNL     1       1.366   2.619  22.231  0.00  0.00    +0.000 OA
ATOM     12  C   UNL     1       2.162   2.761  21.303  0.00  0.00    +0.000 C 
ATOM     13  C   UNL     1       1.875   3.702  20.116  0.00  0.00    +0.000 C 
ATOM     14  N   UNL     1       2.940   3.791  19.094  0.00  0.00    +0.000 N 
ATOM     15  C   UNL     1       3.923   2.710  19.026  0.00  0.00    +0.000 C 
ATOM     16  C   UNL     1       4.411   2.330  20.421  0.00  0.00    +0.000 C 
ATOM     17  N   UNL     1       3.315   2.021  21.304  0.00  0.00    +0.000 N 
ATOM     18  H   UNL     1       3.475   1.491  22.153  0.00  0.00    +0.000 HD
ENDBRANCH   1  14
BRANCH   3  19
ATOM     19  C   UNL     1       1.838   8.421  18.943  0.00  0.00    +0.000 A 
ATOM     20  C   UNL     1       1.394   9.463  18.117  0.00  0.00    +0.000 A 
ATOM     21  C   UNL     1       0.589  10.460  18.651  0.00  0.00    +0.000 A 
ATOM     22  N   UNL     1       0.198  10.505  19.942  0.00  0.00    +0.000 NA
ATOM     23  C   UNL     1       0.645   9.516  20.736  0.00  0.00    +0.000 A 
ATOM     24  C   UNL     1       1.451   8.478  20.292  0.00  0.00    +0.000 A 
ENDBRANCH   3  19
TORSDOF 2
ENDMDL
MODEL 9
REMARK VINA RESULT:      -7.7      2.282      4.417
REMARK  Name = 
REMARK  2 active torsions:
REMARK  status: ('A' for Active; 'I' for Inactive)
REMARK    1  A    between atoms: N_4  and  C_5
REMARK    2  A    between atoms: C_7  and  C_8
REMARK                            x       y       z     vdW  Elec       q    Type
REMARK                         _______ _______ _______ _____ _____    ______ ____
ROOT
ATOM      1  C   UNL     1       3.479   4.942  17.944  0.00  0.00    +0.000 A 
ATOM      2  N   UNL     1       2.780   6.006  18.425  0.00  0.00    +0.000 NA
ATOM      3  C   UNL     1       3.115   7.269  18.056  0.00  0.00    +0.000 A 
ATOM      4  C   UNL     1       4.202   7.515  17.235  0.00  0.00    +0.000 A 
ATOM      5  C   UNL     1       4.907   6.443  16.694  0.00  0.00    +0.000 A 
ATOM      6  C   UNL     1       5.970   6.646  15.811  0.00  0.00    +0.000 A 
ATOM      7  N   UNL     1       6.664   5.661  15.202  0.00  0.00    +0.000 NA
ATOM      8  C   UNL     1       6.261   4.405  15.458  0.00  0.00    +0.000 A 
ATOM      9  C   UNL     1       5.221   4.095  16.318  0.00  0.00    +0.000 A 
ATOM     10  C   UNL     1       4.535   5.123  17.006  0.00  0.00    +0.000 A 
ENDROOT
BRANCH   1  14
ATOM     11  O   UNL     1       0.023   1.655  18.538  0.00  0.00    +0.000 OA
ATOM     12  C   UNL     1       1.075   2.208  18.860  0.00  0.00    +0.000 C 
ATOM     13  C   UNL     1       1.890   3.058  17.865  0.00  0.00    +0.000 C 
ATOM     14  N   UNL     1       3.115   3.684  18.406  0.00  0.00    +0.000 N 
ATOM     15  C   UNL     1       3.696   3.120  19.625  0.00  0.00    +0.000 C 
ATOM     16  C   UNL     1       2.614   2.840  20.664  0.00  0.00    +0.000 C 
ATOM     17  N   UNL     1       1.560   2.016  20.127  0.00  0.00    +0.000 N 
ATOM     18  H   UNL     1       0.933   1.519  20.748  0.00  0.00    +0.000 HD
ENDBRANCH   1  14
BRANCH   3  19
ATOM     19  C   UNL     1       2.258   8.365  18.568  0.00  0.00    +0.000 A 
ATOM     20  C   UNL     1       1.668   8.301  19.838  0.00  0.00    +0.000 A 
ATOM     21  C   UNL     1       0.893   9.364  20.283  0.00  0.00    +0.000 A 
ATOM     22  N   UNL     1       0.655  10.479  19.562  0.00  0.00    +0.000 NA
ATOM     23  C   UNL     1       1.204  10.526  18.336  0.00  0.00    +0.000 A 
ATOM     24  C   UNL     1       1.993   9.515  17.806  0.00  0.00    +0.000 A 
ENDBRANCH   3  19
TORSDOF 2
ENDMDL
