MODEL 1
REMARK VINA RESULT:      -8.5      0.000      0.000
REMARK  Name = 
REMARK  9 active torsions:
REMARK  status: ('A' for Active; 'I' for Inactive)
REMARK    1  A    between atoms: C_1  and  C_2
REMARK    2  A    between atoms: C_5  and  N_6
REMARK    3  A    between atoms: N_6  and  C_7
REMARK    4  A    between atoms: N_6  and  S_20
REMARK    5  A    between atoms: C_7  and  C_8
REMARK    6  A    between atoms: N_10  and  N_11
REMARK    7  A    between atoms: C_12  and  C_13
REMARK    8  A    between atoms: C_18  and  O_19
REMARK    9  A    between atoms: S_20  and  C_23
REMARK                            x       y       z     vdW  Elec       q    Type
REMARK                         _______ _______ _______ _____ _____    ______ ____
ROOT
ATOM      1  N   UNL     1       4.232   4.494  17.566  0.00  0.00    +0.000 N 
ENDROOT
BRANCH   1   6
ATOM      2  C   UNL     1       7.950   5.095  13.249  0.00  0.00    +0.000 C 
ATOM      3  C   UNL     1       6.970   4.946  14.376  0.00  0.00    +0.000 A 
ATOM      4  C   UNL     1       5.659   4.518  14.138  0.00  0.00    +0.000 A 
ATOM      5  C   UNL     1       4.762   4.371  15.200  0.00  0.00    +0.000 A 
ATOM      6  C   UNL     1       5.173   4.640  16.508  0.00  0.00    +0.000 A 
ATOM      7  C   UNL     1       6.484   5.041  16.756  0.00  0.00    +0.000 A 
ATOM      8  C   UNL     1       7.376   5.200  15.693  0.00  0.00    +0.000 A 
ENDBRANCH   1   6
BRANCH   1   9
ATOM      9  S   UNL     1       3.301   3.081  17.634  0.00  0.00    +0.000 S 
ATOM     10  O   UNL     1       2.192   3.232  16.713  0.00  0.00    +0.000 OA
ATOM     11  O   UNL     1       4.174   1.927  17.525  0.00  0.00    +0.000 OA
BRANCH   9  12
ATOM     12  C   UNL     1       2.624   3.075  19.279  0.00  0.00    +0.000 A 
ATOM     13  C   UNL     1       1.286   3.435  19.476  0.00  0.00    +0.000 A 
ATOM     14  C   UNL     1       0.724   3.336  20.750  0.00  0.00    +0.000 A 
ATOM     15  C   UNL     1       1.489   2.864  21.817  0.00  0.00    +0.000 A 
ATOM     16  C   UNL     1       2.816   2.481  21.614  0.00  0.00    +0.000 A 
ATOM     17  C   UNL     1       3.385   2.578  20.342  0.00  0.00    +0.000 A 
ENDBRANCH   9  12
ENDBRANCH   1   9
BRANCH   1  18
ATOM     18  C   UNL     1       4.210   5.426  18.708  0.00  0.00    +0.000 C 
BRANCH  18  19
ATOM     19  C   UNL     1       3.205   6.555  18.699  0.00  0.00    +0.000 C 
ATOM     20  O   UNL     1       2.995   7.198  17.668  0.00  0.00    +0.000 OA
ATOM     21  N   UNL     1       2.593   6.825  19.923  0.00  0.00    +0.000 N 
ATOM     22  H   UNL     1       2.693   6.204  20.719  0.00  0.00    +0.000 HD
BRANCH  21  23
ATOM     23  N   UNL     1       1.748   7.887  19.987  0.00  0.00    +0.000 NA
ATOM     24  C   UNL     1       1.371   8.325  21.146  0.00  0.00    +0.000 C 
BRANCH  24  25
ATOM     25  C   UNL     1       0.460   9.497  21.219  0.00  0.00    +0.000 A 
ATOM     26  C   UNL     1      -0.049  10.036  20.028  0.00  0.00    +0.000 A 
ATOM     27  C   UNL     1      -0.904  11.138  20.057  0.00  0.00    +0.000 A 
ATOM     28  C   UNL     1      -1.254  11.715  21.275  0.00  0.00    +0.000 A 
ATOM     29  C   UNL     1      -0.750  11.186  22.466  0.00  0.00    +0.000 A 
ATOM     30  C   UNL     1       0.104  10.078  22.440  0.00  0.00    +0.000 A 
BRANCH  30  31
ATOM     31  O   UNL     1       0.581   9.568  23.615  0.00  0.00    +0.000 OA
ATOM     32  H   UNL     1       1.351   9.004  23.422  0.00  0.00    +0.000 HD
ENDBRANCH  30  31
ENDBRANCH  24  25
ENDBRANCH  21  23
ENDBRANCH  18  19
ENDBRANCH   1  18
TORSDOF 8
ENDMDL
MODEL 2
REMARK VINA RESULT:      -8.4      0.869      1.507
REMARK  Name = 
REMARK  9 active torsions:
REMARK  status: ('A' for Active; 'I' for Inactive)
REMARK    1  A    between atoms: C_1  and  C_2
REMARK    2  A    between atoms: C_5  and  N_6
REMARK    3  A    between atoms: N_6  and  C_7
REMARK    4  A    between atoms: N_6  and  S_20
REMARK    5  A    between atoms: C_7  and  C_8
REMARK    6  A    between atoms: N_10  and  N_11
REMARK    7  A    between atoms: C_12  and  C_13
REMARK    8  A    between atoms: C_18  and  O_19
REMARK    9  A    between atoms: S_20  and  C_23
REMARK                            x       y       z     vdW  Elec       q    Type
REMARK                         _______ _______ _______ _____ _____    ______ ____
ROOT
ATOM      1  N   UNL     1       4.236   4.424  17.557  0.00  0.00    +0.000 N 
ENDROOT
BRANCH   1   6
ATOM      2  C   UNL     1       7.893   5.048  13.192  0.00  0.00    +0.000 C 
ATOM      3  C   UNL     1       6.941   4.876  14.339  0.00  0.00    +0.000 A 
ATOM      4  C   UNL     1       7.345   5.135  15.654  0.00  0.00    +0.000 A 
ATOM      5  C   UNL     1       6.442   4.983  16.710  0.00  0.00    +0.000 A 
ATOM      6  C   UNL     1       5.128   4.583  16.458  0.00  0.00    +0.000 A 
ATOM      7  C   UNL     1       4.711   4.349  15.150  0.00  0.00    +0.000 A 
ATOM      8  C   UNL     1       5.617   4.489  14.096  0.00  0.00    +0.000 A 
ENDBRANCH   1   6
BRANCH   1   9
ATOM      9  S   UNL     1       3.251   3.048  17.609  0.00  0.00    +0.000 S 
ATOM     10  O   UNL     1       2.143   3.257  16.697  0.00  0.00    +0.000 OA
ATOM     11  O   UNL     1       4.076   1.862  17.477  0.00  0.00    +0.000 OA
BRANCH   9  12
ATOM     12  C   UNL     1       2.582   3.043  19.258  0.00  0.00    +0.000 A 
ATOM     13  C   UNL     1       1.241   3.389  19.460  0.00  0.00    +0.000 A 
ATOM     14  C   UNL     1       0.688   3.290  20.737  0.00  0.00    +0.000 A 
ATOM     15  C   UNL     1       1.464   2.833  21.803  0.00  0.00    +0.000 A 
ATOM     16  C   UNL     1       2.794   2.464  21.595  0.00  0.00    +0.000 A 
ATOM     17  C   UNL     1       3.355   2.561  20.319  0.00  0.00    +0.000 A 
ENDBRANCH   9  12
ENDBRANCH   1   9
BRANCH   1  18
ATOM     18  C   UNL     1       4.313   5.299  18.740  0.00  0.00    +0.000 C 
BRANCH  18  19
ATOM     19  C   UNL     1       3.380   6.487  18.820  0.00  0.00    +0.000 C 
ATOM     20  O   UNL     1       3.340   7.314  17.906  0.00  0.00    +0.000 OA
ATOM     21  N   UNL     1       2.632   6.586  19.994  0.00  0.00    +0.000 N 
ATOM     22  H   UNL     1       2.596   5.830  20.669  0.00  0.00    +0.000 HD
BRANCH  21  23
ATOM     23  N   UNL     1       1.847   7.682  20.152  0.00  0.00    +0.000 NA
ATOM     24  C   UNL     1       1.373   7.956  21.326  0.00  0.00    +0.000 C 
BRANCH  24  25
ATOM     25  C   UNL     1       0.526   9.164  21.505  0.00  0.00    +0.000 A 
ATOM     26  C   UNL     1      -0.041   9.414  22.764  0.00  0.00    +0.000 A 
ATOM     27  C   UNL     1      -0.844  10.537  22.970  0.00  0.00    +0.000 A 
ATOM     28  C   UNL     1      -1.092  11.416  21.919  0.00  0.00    +0.000 A 
ATOM     29  C   UNL     1      -0.533  11.174  20.662  0.00  0.00    +0.000 A 
ATOM     30  C   UNL     1       0.276  10.051  20.454  0.00  0.00    +0.000 A 
BRANCH  30  31
ATOM     31  O   UNL     1       0.823   9.834  19.220  0.00  0.00    +0.000 OA
ATOM     32  H   UNL     1       0.551  10.557  18.626  0.00  0.00    +0.000 HD
ENDBRANCH  30  31
ENDBRANCH  24  25
ENDBRANCH  21  23
ENDBRANCH  18  19
ENDBRANCH   1  18
TORSDOF 8
ENDMDL
MODEL 3
REMARK VINA RESULT:      -8.4      0.953      1.369
REMARK  Name = 
REMARK  9 active torsions:
REMARK  status: ('A' for Active; 'I' for Inactive)
REMARK    1  A    between atoms: C_1  and  C_2
REMARK    2  A    between atoms: C_5  and  N_6
REMARK    3  A    between atoms: N_6  and  C_7
REMARK    4  A    between atoms: N_6  and  S_20
REMARK    5  A    between atoms: C_7  and  C_8
REMARK    6  A    between atoms: N_10  and  N_11
REMARK    7  A    between atoms: C_12  and  C_13
REMARK    8  A    between atoms: C_18  and  O_19
REMARK    9  A    between atoms: S_20  and  C_23
REMARK                            x       y       z     vdW  Elec       q    Type
REMARK                         _______ _______ _______ _____ _____    ______ ____
ROOT
ATOM      1  N   UNL     1       3.502   5.042  17.703  0.00  0.00    +0.000 N 
ENDROOT
BRANCH   1   6
ATOM      2  C   UNL     1       7.501   4.892  13.603  0.00  0.00    +0.000 C 
ATOM      3  C   UNL     1       6.447   4.925  14.671  0.00  0.00    +0.000 A 
ATOM      4  C   UNL     1       6.137   3.779  15.411  0.00  0.00    +0.000 A 
ATOM      5  C   UNL     1       5.162   3.828  16.412  0.00  0.00    +0.000 A 
ATOM      6  C   UNL     1       4.500   5.027  16.687  0.00  0.00    +0.000 A 
ATOM      7  C   UNL     1       4.822   6.179  15.973  0.00  0.00    +0.000 A 
ATOM      8  C   UNL     1       5.787   6.125  14.964  0.00  0.00    +0.000 A 
ENDBRANCH   1   6
BRANCH   1   9
ATOM      9  S   UNL     1       2.262   3.892  17.638  0.00  0.00    +0.000 S 
ATOM     10  O   UNL     1       1.016   4.592  17.395  0.00  0.00    +0.000 OA
ATOM     11  O   UNL     1       2.660   2.808  16.760  0.00  0.00    +0.000 OA
BRANCH   9  12
ATOM     12  C   UNL     1       2.183   3.231  19.288  0.00  0.00    +0.000 A 
ATOM     13  C   UNL     1       3.319   2.636  19.848  0.00  0.00    +0.000 A 
ATOM     14  C   UNL     1       3.289   2.205  21.175  0.00  0.00    +0.000 A 
ATOM     15  C   UNL     1       2.138   2.383  21.943  0.00  0.00    +0.000 A 
ATOM     16  C   UNL     1       1.015   3.000  21.391  0.00  0.00    +0.000 A 
ATOM     17  C   UNL     1       1.036   3.432  20.063  0.00  0.00    +0.000 A 
ENDBRANCH   9  12
ENDBRANCH   1   9
BRANCH   1  18
ATOM     18  C   UNL     1       3.649   5.876  18.910  0.00  0.00    +0.000 C 
BRANCH  18  19
ATOM     19  C   UNL     1       2.791   7.114  19.040  0.00  0.00    +0.000 C 
ATOM     20  O   UNL     1       2.626   7.866  18.077  0.00  0.00    +0.000 OA
ATOM     21  N   UNL     1       2.260   7.346  20.309  0.00  0.00    +0.000 N 
ATOM     22  H   UNL     1       2.310   6.650  21.045  0.00  0.00    +0.000 HD
BRANCH  21  23
ATOM     23  N   UNL     1       1.556   8.492  20.499  0.00  0.00    +0.000 NA
ATOM     24  C   UNL     1       0.553   8.489  21.319  0.00  0.00    +0.000 C 
BRANCH  24  25
ATOM     25  C   UNL     1      -0.208   9.746  21.542  0.00  0.00    +0.000 A 
ATOM     26  C   UNL     1      -0.620  10.495  20.429  0.00  0.00    +0.000 A 
ATOM     27  C   UNL     1      -1.335  11.681  20.598  0.00  0.00    +0.000 A 
ATOM     28  C   UNL     1      -1.639  12.133  21.881  0.00  0.00    +0.000 A 
ATOM     29  C   UNL     1      -1.231  11.395  22.994  0.00  0.00    +0.000 A 
ATOM     30  C   UNL     1      -0.518  10.202  22.826  0.00  0.00    +0.000 A 
BRANCH  30  31
ATOM     31  O   UNL     1      -0.134   9.487  23.927  0.00  0.00    +0.000 OA
ATOM     32  H   UNL     1       0.829   9.573  24.036  0.00  0.00    +0.000 HD
ENDBRANCH  30  31
ENDBRANCH  24  25
ENDBRANCH  21  23
ENDBRANCH  18  19
ENDBRANCH   1  18
TORSDOF 8
ENDMDL
MODEL 4
REMARK VINA RESULT:      -8.3      0.137      1.256
REMARK  Name = 
REMARK  9 active torsions:
REMARK  status: ('A' for Active; 'I' for Inactive)
REMARK    1  A    between atoms: C_1  and  C_2
REMARK    2  A    between atoms: C_5  and  N_6
REMARK    3  A    between atoms: N_6  and  C_7
REMARK    4  A    between atoms: N_6  and  S_20
REMARK    5  A    between atoms: C_7  and  C_8
REMARK    6  A    between atoms: N_10  and  N_11
REMARK    7  A    between atoms: C_12  and  C_13
REMARK    8  A    between atoms: C_18  and  O_19
REMARK    9  A    between atoms: S_20  and  C_23
REMARK                            x       y       z     vdW  Elec       q    Type
REMARK                         _______ _______ _______ _____ _____    ______ ____
ROOT
ATOM      1  N   UNL     1       4.140   4.385  17.582  0.00  0.00    +0.000 N 
ENDROOT
BRANCH   1   6
ATOM      2  C   UNL     1       7.945   5.142  13.365  0.00  0.00    +0.000 C 
ATOM      3  C   UNL     1       6.954   4.935  14.474  0.00  0.00    +0.000 A 
ATOM      4  C   UNL     1       7.295   5.209  15.803  0.00  0.00    +0.000 A 
ATOM      5  C   UNL     1       6.357   5.024  16.823  0.00  0.00    +0.000 A 
ATOM      6  C   UNL     1       5.069   4.576  16.519  0.00  0.00    +0.000 A 
ATOM      7  C   UNL     1       4.714   4.328  15.195  0.00  0.00    +0.000 A 
ATOM      8  C   UNL     1       5.656   4.500  14.179  0.00  0.00    +0.000 A 
ENDBRANCH   1   6
BRANCH   1   9
ATOM      9  S   UNL     1       3.203   2.976  17.595  0.00  0.00    +0.000 S 
ATOM     10  O   UNL     1       2.100   3.163  16.673  0.00  0.00    +0.000 OA
ATOM     11  O   UNL     1       4.071   1.822  17.451  0.00  0.00    +0.000 OA
BRANCH   9  12
ATOM     12  C   UNL     1       2.515   2.915  19.235  0.00  0.00    +0.000 A 
ATOM     13  C   UNL     1       3.313   2.492  20.303  0.00  0.00    +0.000 A 
ATOM     14  C   UNL     1       2.808   2.537  21.603  0.00  0.00    +0.000 A 
ATOM     15  C   UNL     1       1.520   3.019  21.836  0.00  0.00    +0.000 A 
ATOM     16  C   UNL     1       0.734   3.465  20.773  0.00  0.00    +0.000 A 
ATOM     17  C   UNL     1       1.232   3.422  19.469  0.00  0.00    +0.000 A 
ENDBRANCH   9  12
ENDBRANCH   1   9
BRANCH   1  18
ATOM     18  C   UNL     1       4.139   5.262  18.766  0.00  0.00    +0.000 C 
BRANCH  18  19
ATOM     19  C   UNL     1       3.250   6.485  18.757  0.00  0.00    +0.000 C 
ATOM     20  O   UNL     1       3.195   7.212  17.762  0.00  0.00    +0.000 OA
ATOM     21  N   UNL     1       2.560   6.736  19.943  0.00  0.00    +0.000 N 
ATOM     22  H   UNL     1       2.530   6.058  20.697  0.00  0.00    +0.000 HD
BRANCH  21  23
ATOM     23  N   UNL     1       1.818   7.871  20.015  0.00  0.00    +0.000 NA
ATOM     24  C   UNL     1       1.170   8.135  21.105  0.00  0.00    +0.000 C 
BRANCH  24  25
ATOM     25  C   UNL     1       0.372   9.385  21.193  0.00  0.00    +0.000 A 
ATOM     26  C   UNL     1      -0.165   9.931  20.016  0.00  0.00    +0.000 A 
ATOM     27  C   UNL     1      -0.918  11.104  20.058  0.00  0.00    +0.000 A 
ATOM     28  C   UNL     1      -1.137  11.747  21.275  0.00  0.00    +0.000 A 
ATOM     29  C   UNL     1      -0.605  11.212  22.450  0.00  0.00    +0.000 A 
ATOM     30  C   UNL     1       0.147  10.032  22.411  0.00  0.00    +0.000 A 
BRANCH  30  31
ATOM     31  O   UNL     1       0.653   9.517  23.573  0.00  0.00    +0.000 OA
ATOM     32  H   UNL     1       1.476   9.040  23.370  0.00  0.00    +0.000 HD
ENDBRANCH  30  31
ENDBRANCH  24  25
ENDBRANCH  21  23
ENDBRANCH  18  19
ENDBRANCH   1  18
TORSDOF 8
ENDMDL
MODEL 5
REMARK VINA RESULT:      -8.3      4.568      6.905
REMARK  Name = 
REMARK  9 active torsions:
REMARK  status: ('A' for Active; 'I' for Inactive)
REMARK    1  A    between atoms: C_1  and  C_2
REMARK    2  A    between atoms: C_5  and  N_6
REMARK    3  A    between atoms: N_6  and  C_7
REMARK    4  A    between atoms: N_6  and  S_20
REMARK    5  A    between atoms: C_7  and  C_8
REMARK    6  A    between atoms: N_10  and  N_11
REMARK    7  A    between atoms: C_12  and  C_13
REMARK    8  A    between atoms: C_18  and  O_19
REMARK    9  A    between atoms: S_20  and  C_23
REMARK                            x       y       z     vdW  Elec       q    Type
REMARK                         _______ _______ _______ _____ _____    ______ ____
ROOT
ATOM      1  N   UNL     1       4.969   5.787  17.977  0.00  0.00    +0.000 N 
ENDROOT
BRANCH   1   6
ATOM      2  C   UNL     1       0.593   9.045  19.725  0.00  0.00    +0.000 C 
ATOM      3  C   UNL     1       1.732   8.187  19.260  0.00  0.00    +0.000 A 
ATOM      4  C   UNL     1       2.287   8.356  17.986  0.00  0.00    +0.000 A 
ATOM      5  C   UNL     1       3.357   7.557  17.572  0.00  0.00    +0.000 A 
ATOM      6  C   UNL     1       3.887   6.593  18.433  0.00  0.00    +0.000 A 
ATOM      7  C   UNL     1       3.359   6.438  19.712  0.00  0.00    +0.000 A 
ATOM      8  C   UNL     1       2.281   7.227  20.120  0.00  0.00    +0.000 A 
ENDBRANCH   1   6
BRANCH   1   9
ATOM      9  S   UNL     1       4.900   4.116  18.241  0.00  0.00    +0.000 S 
ATOM     10  O   UNL     1       5.076   3.454  16.963  0.00  0.00    +0.000 OA
ATOM     11  O   UNL     1       5.765   3.771  19.354  0.00  0.00    +0.000 OA
BRANCH   9  12
ATOM     12  C   UNL     1       3.226   3.817  18.763  0.00  0.00    +0.000 A 
ATOM     13  C   UNL     1       2.194   3.840  17.819  0.00  0.00    +0.000 A 
ATOM     14  C   UNL     1       0.894   3.509  18.207  0.00  0.00    +0.000 A 
ATOM     15  C   UNL     1       0.631   3.142  19.527  0.00  0.00    +0.000 A 
ATOM     16  C   UNL     1       1.666   3.095  20.462  0.00  0.00    +0.000 A 
ATOM     17  C   UNL     1       2.968   3.425  20.081  0.00  0.00    +0.000 A 
ENDBRANCH   9  12
ENDBRANCH   1   9
BRANCH   1  18
ATOM     18  C   UNL     1       6.018   6.334  17.099  0.00  0.00    +0.000 C 
BRANCH  18  19
ATOM     19  C   UNL     1       7.229   6.976  17.737  0.00  0.00    +0.000 C 
ATOM     20  O   UNL     1       7.933   6.340  18.525  0.00  0.00    +0.000 OA
ATOM     21  N   UNL     1       7.447   8.313  17.403  0.00  0.00    +0.000 N 
ATOM     22  H   UNL     1       6.927   8.770  16.662  0.00  0.00    +0.000 HD
BRANCH  21  23
ATOM     23  N   UNL     1       8.470   8.960  18.019  0.00  0.00    +0.000 NA
ATOM     24  C   UNL     1       8.602  10.238  17.852  0.00  0.00    +0.000 C 
BRANCH  24  25
ATOM     25  C   UNL     1       9.711  10.950  18.538  0.00  0.00    +0.000 A 
ATOM     26  C   UNL     1      10.669  11.620  17.761  0.00  0.00    +0.000 A 
ATOM     27  C   UNL     1      11.726  12.298  18.369  0.00  0.00    +0.000 A 
ATOM     28  C   UNL     1      11.839  12.308  19.758  0.00  0.00    +0.000 A 
ATOM     29  C   UNL     1      10.891  11.642  20.538  0.00  0.00    +0.000 A 
ATOM     30  C   UNL     1       9.827  10.966  19.931  0.00  0.00    +0.000 A 
BRANCH  30  31
ATOM     31  O   UNL     1       8.903  10.327  20.710  0.00  0.00    +0.000 OA
ATOM     32  H   UNL     1       9.247   9.447  20.946  0.00  0.00    +0.000 HD
ENDBRANCH  30  31
ENDBRANCH  24  25
ENDBRANCH  21  23
ENDBRANCH  18  19
ENDBRANCH   1  18
TORSDOF 8
ENDMDL
MODEL 6
REMARK VINA RESULT:      -8.3      0.883      1.509
REMARK  Name = 
REMARK  9 active torsions:
REMARK  status: ('A' for Active; 'I' for Inactive)
REMARK    1  A    between atoms: C_1  and  C_2
REMARK    2  A    between atoms: C_5  and  N_6
REMARK    3  A    between atoms: N_6  and  C_7
REMARK    4  A    between atoms: N_6  and  S_20
REMARK    5  A    between atoms: C_7  and  C_8
REMARK    6  A    between atoms: N_10  and  N_11
REMARK    7  A    between atoms: C_12  and  C_13
REMARK    8  A    between atoms: C_18  and  O_19
REMARK    9  A    between atoms: S_20  and  C_23
REMARK                            x       y       z     vdW  Elec       q    Type
REMARK                         _______ _______ _______ _____ _____    ______ ____
ROOT
ATOM      1  N   UNL     1       4.206   4.330  17.653  0.00  0.00    +0.000 N 
ENDROOT
BRANCH   1   6
ATOM      2  C   UNL     1       7.936   5.183  13.389  0.00  0.00    +0.000 C 
ATOM      3  C   UNL     1       6.953   4.968  14.502  0.00  0.00    +0.000 A 
ATOM      4  C   UNL     1       5.649   4.536  14.237  0.00  0.00    +0.000 A 
ATOM      5  C   UNL     1       4.749   4.328  15.286  0.00  0.00    +0.000 A 
ATOM      6  C   UNL     1       5.150   4.538  16.607  0.00  0.00    +0.000 A 
ATOM      7  C   UNL     1       6.455   4.942  16.882  0.00  0.00    +0.000 A 
ATOM      8  C   UNL     1       7.349   5.163  15.832  0.00  0.00    +0.000 A 
ENDBRANCH   1   6
BRANCH   1   9
ATOM      9  S   UNL     1       3.241   2.939  17.608  0.00  0.00    +0.000 S 
ATOM     10  O   UNL     1       2.162   3.174  16.669  0.00  0.00    +0.000 OA
ATOM     11  O   UNL     1       4.090   1.773  17.450  0.00  0.00    +0.000 OA
BRANCH   9  12
ATOM     12  C   UNL     1       2.518   2.848  19.231  0.00  0.00    +0.000 A 
ATOM     13  C   UNL     1       3.327   2.540  20.331  0.00  0.00    +0.000 A 
ATOM     14  C   UNL     1       2.784   2.565  21.616  0.00  0.00    +0.000 A 
ATOM     15  C   UNL     1       1.446   2.912  21.804  0.00  0.00    +0.000 A 
ATOM     16  C   UNL     1       0.647   3.244  20.709  0.00  0.00    +0.000 A 
ATOM     17  C   UNL     1       1.183   3.221  19.419  0.00  0.00    +0.000 A 
ENDBRANCH   9  12
ENDBRANCH   1   9
BRANCH   1  18
ATOM     18  C   UNL     1       4.207   5.166  18.866  0.00  0.00    +0.000 C 
BRANCH  18  19
ATOM     19  C   UNL     1       3.233   6.319  18.949  0.00  0.00    +0.000 C 
ATOM     20  O   UNL     1       3.169   7.152  18.042  0.00  0.00    +0.000 OA
ATOM     21  N   UNL     1       2.472   6.380  20.117  0.00  0.00    +0.000 N 
ATOM     22  H   UNL     1       2.458   5.618  20.786  0.00  0.00    +0.000 HD
BRANCH  21  23
ATOM     23  N   UNL     1       1.646   7.446  20.278  0.00  0.00    +0.000 NA
ATOM     24  C   UNL     1       1.602   8.044  21.427  0.00  0.00    +0.000 C 
BRANCH  24  25
ATOM     25  C   UNL     1       0.711   9.220  21.601  0.00  0.00    +0.000 A 
ATOM     26  C   UNL     1       0.024   9.377  22.815  0.00  0.00    +0.000 A 
ATOM     27  C   UNL     1      -0.822  10.468  23.014  0.00  0.00    +0.000 A 
ATOM     28  C   UNL     1      -0.995  11.408  22.001  0.00  0.00    +0.000 A 
ATOM     29  C   UNL     1      -0.317  11.259  20.789  0.00  0.00    +0.000 A 
ATOM     30  C   UNL     1       0.536  10.168  20.589  0.00  0.00    +0.000 A 
BRANCH  30  31
ATOM     31  O   UNL     1       1.200  10.042  19.400  0.00  0.00    +0.000 OA
ATOM     32  H   UNL     1       0.617   9.594  18.762  0.00  0.00    +0.000 HD
ENDBRANCH  30  31
ENDBRANCH  24  25
ENDBRANCH  21  23
ENDBRANCH  18  19
ENDBRANCH   1  18
TORSDOF 8
ENDMDL
MODEL 7
REMARK VINA RESULT:      -8.3      1.244      1.791
REMARK  Name = 
REMARK  9 active torsions:
REMARK  status: ('A' for Active; 'I' for Inactive)
REMARK    1  A    between atoms: C_1  and  C_2
REMARK    2  A    between atoms: C_5  and  N_6
REMARK    3  A    between atoms: N_6  and  C_7
REMARK    4  A    between atoms: N_6  and  S_20
REMARK    5  A    between atoms: C_7  and  C_8
REMARK    6  A    between atoms: N_10  and  N_11
REMARK    7  A    between atoms: C_12  and  C_13
REMARK    8  A    between atoms: C_18  and  O_19
REMARK    9  A    between atoms: S_20  and  C_23
REMARK                            x       y       z     vdW  Elec       q    Type
REMARK                         _______ _______ _______ _____ _____    ______ ____
ROOT
ATOM      1  N   UNL     1       3.515   5.031  17.683  0.00  0.00    +0.000 N 
ENDROOT
BRANCH   1   6
ATOM      2  C   UNL     1       7.586   4.959  13.652  0.00  0.00    +0.000 C 
ATOM      3  C   UNL     1       6.526   4.984  14.715  0.00  0.00    +0.000 A 
ATOM      4  C   UNL     1       5.884   6.178  15.063  0.00  0.00    +0.000 A 
ATOM      5  C   UNL     1       4.889   6.182  16.045  0.00  0.00    +0.000 A 
ATOM      6  C   UNL     1       4.522   4.991  16.677  0.00  0.00    +0.000 A 
ATOM      7  C   UNL     1       5.137   3.795  16.317  0.00  0.00    +0.000 A 
ATOM      8  C   UNL     1       6.140   3.794  15.345  0.00  0.00    +0.000 A 
ENDBRANCH   1   6
BRANCH   1   9
ATOM      9  S   UNL     1       2.276   3.877  17.635  0.00  0.00    +0.000 S 
ATOM     10  O   UNL     1       1.026   4.573  17.400  0.00  0.00    +0.000 OA
ATOM     11  O   UNL     1       2.669   2.789  16.760  0.00  0.00    +0.000 OA
BRANCH   9  12
ATOM     12  C   UNL     1       2.214   3.225  19.290  0.00  0.00    +0.000 A 
ATOM     13  C   UNL     1       3.353   2.627  19.839  0.00  0.00    +0.000 A 
ATOM     14  C   UNL     1       3.338   2.204  21.169  0.00  0.00    +0.000 A 
ATOM     15  C   UNL     1       2.197   2.391  21.950  0.00  0.00    +0.000 A 
ATOM     16  C   UNL     1       1.070   3.011  21.408  0.00  0.00    +0.000 A 
ATOM     17  C   UNL     1       1.078   3.437  20.078  0.00  0.00    +0.000 A 
ENDBRANCH   9  12
ENDBRANCH   1   9
BRANCH   1  18
ATOM     18  C   UNL     1       3.649   5.895  18.869  0.00  0.00    +0.000 C 
BRANCH  18  19
ATOM     19  C   UNL     1       2.635   6.997  19.077  0.00  0.00    +0.000 C 
ATOM     20  O   UNL     1       2.421   7.826  18.190  0.00  0.00    +0.000 OA
ATOM     21  N   UNL     1       2.019   7.019  20.329  0.00  0.00    +0.000 N 
ATOM     22  H   UNL     1       2.123   6.256  20.989  0.00  0.00    +0.000 HD
BRANCH  21  23
ATOM     23  N   UNL     1       1.166   8.042  20.596  0.00  0.00    +0.000 NA
ATOM     24  C   UNL     1       1.379   8.788  21.633  0.00  0.00    +0.000 C 
BRANCH  24  25
ATOM     25  C   UNL     1       0.457   9.918  21.918  0.00  0.00    +0.000 A 
ATOM     26  C   UNL     1      -0.424   9.816  23.006  0.00  0.00    +0.000 A 
ATOM     27  C   UNL     1      -1.305  10.856  23.304  0.00  0.00    +0.000 A 
ATOM     28  C   UNL     1      -1.320  12.003  22.513  0.00  0.00    +0.000 A 
ATOM     29  C   UNL     1      -0.448  12.112  21.428  0.00  0.00    +0.000 A 
ATOM     30  C   UNL     1       0.441  11.072  21.130  0.00  0.00    +0.000 A 
BRANCH  30  31
ATOM     31  O   UNL     1       1.294  11.199  20.069  0.00  0.00    +0.000 OA
ATOM     32  H   UNL     1       1.774  12.041  20.152  0.00  0.00    +0.000 HD
ENDBRANCH  30  31
ENDBRANCH  24  25
ENDBRANCH  21  23
ENDBRANCH  18  19
ENDBRANCH   1  18
TORSDOF 8
ENDMDL
MODEL 8
REMARK VINA RESULT:      -8.2      4.992      6.543
REMARK  Name = 
REMARK  9 active torsions:
REMARK  status: ('A' for Active; 'I' for Inactive)
REMARK    1  A    between atoms: C_1  and  C_2
REMARK    2  A    between atoms: C_5  and  N_6
REMARK    3  A    between atoms: N_6  and  C_7
REMARK    4  A    between atoms: N_6  and  S_20
REMARK    5  A    between atoms: C_7  and  C_8
REMARK    6  A    between atoms: N_10  and  N_11
REMARK    7  A    between atoms: C_12  and  C_13
REMARK    8  A    between atoms: C_18  and  O_19
REMARK    9  A    between atoms: S_20  and  C_23
REMARK                            x       y       z     vdW  Elec       q    Type
REMARK                         _______ _______ _______ _____ _____    ______ ____
ROOT
ATOM      1  N   UNL     1       6.415   5.248  17.536  0.00  0.00    +0.000 N 
ENDROOT
BRANCH   1   6
ATOM      2  C   UNL     1       6.111   3.504  12.087  0.00  0.00    +0.000 C 
ATOM      3  C   UNL     1       6.198   3.953  13.517  0.00  0.00    +0.000 A 
ATOM      4  C   UNL     1       7.365   4.542  14.016  0.00  0.00    +0.000 A 
ATOM      5  C   UNL     1       7.426   4.967  15.346  0.00  0.00    +0.000 A 
ATOM      6  C   UNL     1       6.317   4.817  16.182  0.00  0.00    +0.000 A 
ATOM      7  C   UNL     1       5.143   4.256  15.686  0.00  0.00    +0.000 A 
ATOM      8  C   UNL     1       5.087   3.820  14.360  0.00  0.00    +0.000 A 
ENDBRANCH   1   6
BRANCH   1   9
ATOM      9  S   UNL     1       5.256   4.707  18.645  0.00  0.00    +0.000 S 
ATOM     10  O   UNL     1       4.591   3.554  18.070  0.00  0.00    +0.000 OA
ATOM     11  O   UNL     1       5.862   4.604  19.960  0.00  0.00    +0.000 OA
BRANCH   9  12
ATOM     12  C   UNL     1       4.062   6.023  18.717  0.00  0.00    +0.000 A 
ATOM     13  C   UNL     1       3.967   6.928  17.654  0.00  0.00    +0.000 A 
ATOM     14  C   UNL     1       2.966   7.901  17.662  0.00  0.00    +0.000 A 
ATOM     15  C   UNL     1       2.056   7.959  18.718  0.00  0.00    +0.000 A 
ATOM     16  C   UNL     1       2.136   7.040  19.765  0.00  0.00    +0.000 A 
ATOM     17  C   UNL     1       3.135   6.064  19.764  0.00  0.00    +0.000 A 
ENDBRANCH   9  12
ENDBRANCH   1   9
BRANCH   1  18
ATOM     18  C   UNL     1       7.608   5.959  18.031  0.00  0.00    +0.000 C 
BRANCH  18  19
ATOM     19  C   UNL     1       7.689   7.456  17.833  0.00  0.00    +0.000 C 
ATOM     20  O   UNL     1       7.057   8.003  16.928  0.00  0.00    +0.000 OA
ATOM     21  N   UNL     1       8.544   8.131  18.705  0.00  0.00    +0.000 N 
ATOM     22  H   UNL     1       8.953   7.674  19.513  0.00  0.00    +0.000 HD
BRANCH  21  23
ATOM     23  N   UNL     1       8.720   9.464  18.511  0.00  0.00    +0.000 NA
ATOM     24  C   UNL     1       9.376  10.150  19.393  0.00  0.00    +0.000 C 
BRANCH  24  25
ATOM     25  C   UNL     1       9.584  11.605  19.176  0.00  0.00    +0.000 A 
ATOM     26  C   UNL     1       8.991  12.515  20.065  0.00  0.00    +0.000 A 
ATOM     27  C   UNL     1       9.162  13.889  19.891  0.00  0.00    +0.000 A 
ATOM     28  C   UNL     1       9.920  14.366  18.825  0.00  0.00    +0.000 A 
ATOM     29  C   UNL     1      10.512  13.468  17.934  0.00  0.00    +0.000 A 
ATOM     30  C   UNL     1      10.346  12.089  18.109  0.00  0.00    +0.000 A 
BRANCH  30  31
ATOM     31  O   UNL     1      10.940  11.223  17.233  0.00  0.00    +0.000 OA
ATOM     32  H   UNL     1      11.017  10.351  17.658  0.00  0.00    +0.000 HD
ENDBRANCH  30  31
ENDBRANCH  24  25
ENDBRANCH  21  23
ENDBRANCH  18  19
ENDBRANCH   1  18
TORSDOF 8
ENDMDL
MODEL 9
REMARK VINA RESULT:      -8.1      5.049      6.738
REMARK  Name = 
REMARK  9 active torsions:
REMARK  status: ('A' for Active; 'I' for Inactive)
REMARK    1  A    between atoms: C_1  and  C_2
REMARK    2  A    between atoms: C_5  and  N_6
REMARK    3  A    between atoms: N_6  and  C_7
REMARK    4  A    between atoms: N_6  and  S_20
REMARK    5  A    between atoms: C_7  and  C_8
REMARK    6  A    between atoms: N_10  and  N_11
REMARK    7  A    between atoms: C_12  and  C_13
REMARK    8  A    between atoms: C_18  and  O_19
REMARK    9  A    between atoms: S_20  and  C_23
REMARK                            x       y       z     vdW  Elec       q    Type
REMARK                         _______ _______ _______ _____ _____    ______ ____
ROOT
ATOM      1  N   UNL     1       6.440   5.333  17.548  0.00  0.00    +0.000 N 
ENDROOT
BRANCH   1   6
ATOM      2  C   UNL     1       6.071   3.477  12.141  0.00  0.00    +0.000 C 
ATOM      3  C   UNL     1       6.160   3.971  13.555  0.00  0.00    +0.000 A 
ATOM      4  C   UNL     1       5.094   3.800  14.445  0.00  0.00    +0.000 A 
ATOM      5  C   UNL     1       5.197   4.254  15.763  0.00  0.00    +0.000 A 
ATOM      6  C   UNL     1       6.371   4.870  16.203  0.00  0.00    +0.000 A 
ATOM      7  C   UNL     1       7.447   5.019  15.331  0.00  0.00    +0.000 A 
ATOM      8  C   UNL     1       7.338   4.577  14.011  0.00  0.00    +0.000 A 
ENDBRANCH   1   6
BRANCH   1   9
ATOM      9  S   UNL     1       5.305   4.756  18.663  0.00  0.00    +0.000 S 
ATOM     10  O   UNL     1       4.748   3.525  18.138  0.00  0.00    +0.000 OA
ATOM     11  O   UNL     1       5.888   4.771  19.992  0.00  0.00    +0.000 OA
BRANCH   9  12
ATOM     12  C   UNL     1       4.007   5.973  18.645  0.00  0.00    +0.000 A 
ATOM     13  C   UNL     1       3.117   6.049  19.722  0.00  0.00    +0.000 A 
ATOM     14  C   UNL     1       2.161   7.065  19.757  0.00  0.00    +0.000 A 
ATOM     15  C   UNL     1       2.104   8.008  18.731  0.00  0.00    +0.000 A 
ATOM     16  C   UNL     1       3.008   7.946  17.670  0.00  0.00    +0.000 A 
ATOM     17  C   UNL     1       3.968   6.932  17.627  0.00  0.00    +0.000 A 
ENDBRANCH   9  12
ENDBRANCH   1   9
BRANCH   1  18
ATOM     18  C   UNL     1       7.592   6.114  18.033  0.00  0.00    +0.000 C 
BRANCH  18  19
ATOM     19  C   UNL     1       7.630   7.598  17.745  0.00  0.00    +0.000 C 
ATOM     20  O   UNL     1       6.979   8.072  16.812  0.00  0.00    +0.000 OA
ATOM     21  N   UNL     1       8.470   8.348  18.569  0.00  0.00    +0.000 N 
ATOM     22  H   UNL     1       8.895   7.953  19.401  0.00  0.00    +0.000 HD
BRANCH  21  23
ATOM     23  N   UNL     1       8.607   9.672  18.294  0.00  0.00    +0.000 NA
ATOM     24  C   UNL     1       9.702  10.277  18.629  0.00  0.00    +0.000 C 
BRANCH  24  25
ATOM     25  C   UNL     1       9.861  11.720  18.315  0.00  0.00    +0.000 A 
ATOM     26  C   UNL     1       8.768  12.580  18.503  0.00  0.00    +0.000 A 
ATOM     27  C   UNL     1       8.879  13.941  18.217  0.00  0.00    +0.000 A 
ATOM     28  C   UNL     1      10.081  14.454  17.734  0.00  0.00    +0.000 A 
ATOM     29  C   UNL     1      11.173  13.606  17.542  0.00  0.00    +0.000 A 
ATOM     30  C   UNL     1      11.066  12.241  17.833  0.00  0.00    +0.000 A 
BRANCH  30  31
ATOM     31  O   UNL     1      12.148  11.426  17.648  0.00  0.00    +0.000 OA
ATOM     32  H   UNL     1      12.273  11.284  16.693  0.00  0.00    +0.000 HD
ENDBRANCH  30  31
ENDBRANCH  24  25
ENDBRANCH  21  23
ENDBRANCH  18  19
ENDBRANCH   1  18
TORSDOF 8
ENDMDL
