MODEL 1
REMARK VINA RESULT:      -6.2      0.000      0.000
REMARK  Name = 
REMARK  8 active torsions:
REMARK  status: ('A' for Active; 'I' for Inactive)
REMARK    1  A    between atoms: C_2  and  C_3
REMARK    2  A    between atoms: C_3  and  C_4
REMARK    3  A    between atoms: C_4  and  C_5
REMARK    4  A    between atoms: C_5  and  C_6
REMARK    5  A    between atoms: C_6  and  C_7
REMARK    6  A    between atoms: C_7  and  C_8
REMARK    7  A    between atoms: C_8  and  C_9
REMARK    8  A    between atoms: C_9  and  C_10
REMARK                            x       y       z     vdW  Elec       q    Type
REMARK                         _______ _______ _______ _____ _____    ______ ____
ROOT
ATOM      1  C   UNL     1       4.136   4.064  17.675  0.00  0.00    +0.000 C 
ATOM      2  C   UNL     1       5.113   4.287  18.896  0.00  0.00    +0.000 C 
ATOM      3  N   UNL     1       5.044   2.858  19.173  0.00  0.00    +0.000 N 
ATOM      4  C   UNL     1       4.042   2.605  18.300  0.00  0.00    +0.000 C 
ATOM      5  O   UNL     1       3.425   1.571  18.206  0.00  0.00    +0.000 OA
ATOM      6  H   UNL     1       5.078   2.346  20.045  0.00  0.00    +0.000 HD
ENDROOT
BRANCH   1   7
ATOM      7  C   UNL     1       4.769   4.068  16.265  0.00  0.00    +0.000 C 
BRANCH   7   8
ATOM      8  C   UNL     1       6.233   4.543  16.215  0.00  0.00    +0.000 C 
BRANCH   8   9
ATOM      9  C   UNL     1       6.832   4.521  14.808  0.00  0.00    +0.000 C 
BRANCH   9  11
ATOM     10  C   UNL     1       6.340   3.597  12.546  0.00  0.00    +0.000 C 
ATOM     11  C   UNL     1       5.923   3.921  13.778  0.00  0.00    +0.000 C 
ENDBRANCH   9  11
ENDBRANCH   8   9
ENDBRANCH   7   8
ENDBRANCH   1   7
BRANCH   1  12
ATOM     12  C   UNL     1       2.866   4.944  17.804  0.00  0.00    +0.000 C 
BRANCH  12  13
ATOM     13  C   UNL     1       1.597   4.223  18.295  0.00  0.00    +0.000 C 
BRANCH  13  14
ATOM     14  C   UNL     1       1.424   4.334  19.809  0.00  0.00    +0.000 C 
BRANCH  14  15
ATOM     15  C   UNL     1       1.035   3.064  20.503  0.00  0.00    +0.000 C 
ATOM     16  C   UNL     1       1.536   2.743  21.702  0.00  0.00    +0.000 C 
ENDBRANCH  14  15
ENDBRANCH  13  14
ENDBRANCH  12  13
ENDBRANCH   1  12
TORSDOF 8
ENDMDL
MODEL 2
REMARK VINA RESULT:      -6.2      1.556      2.304
REMARK  Name = 
REMARK  8 active torsions:
REMARK  status: ('A' for Active; 'I' for Inactive)
REMARK    1  A    between atoms: C_2  and  C_3
REMARK    2  A    between atoms: C_3  and  C_4
REMARK    3  A    between atoms: C_4  and  C_5
REMARK    4  A    between atoms: C_5  and  C_6
REMARK    5  A    between atoms: C_6  and  C_7
REMARK    6  A    between atoms: C_7  and  C_8
REMARK    7  A    between atoms: C_8  and  C_9
REMARK    8  A    between atoms: C_9  and  C_10
REMARK                            x       y       z     vdW  Elec       q    Type
REMARK                         _______ _______ _______ _____ _____    ______ ____
ROOT
ATOM      1  C   UNL     1       3.950   3.925  18.120  0.00  0.00    +0.000 C 
ATOM      2  C   UNL     1       4.943   4.083  19.337  0.00  0.00    +0.000 C 
ATOM      3  N   UNL     1       5.024   2.630  19.422  0.00  0.00    +0.000 N 
ATOM      4  C   UNL     1       4.021   2.393  18.545  0.00  0.00    +0.000 C 
ATOM      5  O   UNL     1       3.505   1.324  18.327  0.00  0.00    +0.000 OA
ATOM      6  H   UNL     1       5.138   2.014  20.217  0.00  0.00    +0.000 HD
ENDROOT
BRANCH   1   7
ATOM      7  C   UNL     1       4.529   4.178  16.710  0.00  0.00    +0.000 C 
BRANCH   7   8
ATOM      8  C   UNL     1       5.934   4.810  16.691  0.00  0.00    +0.000 C 
BRANCH   8   9
ATOM      9  C   UNL     1       5.912   6.337  16.604  0.00  0.00    +0.000 C 
BRANCH   9  11
ATOM     10  C   UNL     1       7.655   6.382  18.384  0.00  0.00    +0.000 C 
ATOM     11  C   UNL     1       7.004   6.999  17.389  0.00  0.00    +0.000 C 
ENDBRANCH   9  11
ENDBRANCH   8   9
ENDBRANCH   7   8
ENDBRANCH   1   7
BRANCH   1  12
ATOM     12  C   UNL     1       2.606   4.646  18.394  0.00  0.00    +0.000 C 
BRANCH  12  13
ATOM     13  C   UNL     1       1.336   3.873  17.994  0.00  0.00    +0.000 C 
BRANCH  13  14
ATOM     14  C   UNL     1       0.719   3.131  19.178  0.00  0.00    +0.000 C 
BRANCH  14  15
ATOM     15  C   UNL     1       1.085   3.667  20.529  0.00  0.00    +0.000 C 
ATOM     16  C   UNL     1       1.575   2.870  21.487  0.00  0.00    +0.000 C 
ENDBRANCH  14  15
ENDBRANCH  13  14
ENDBRANCH  12  13
ENDBRANCH   1  12
TORSDOF 8
ENDMDL
MODEL 3
REMARK VINA RESULT:      -6.2      2.223      5.670
REMARK  Name = 
REMARK  8 active torsions:
REMARK  status: ('A' for Active; 'I' for Inactive)
REMARK    1  A    between atoms: C_2  and  C_3
REMARK    2  A    between atoms: C_3  and  C_4
REMARK    3  A    between atoms: C_4  and  C_5
REMARK    4  A    between atoms: C_5  and  C_6
REMARK    5  A    between atoms: C_6  and  C_7
REMARK    6  A    between atoms: C_7  and  C_8
REMARK    7  A    between atoms: C_8  and  C_9
REMARK    8  A    between atoms: C_9  and  C_10
REMARK                            x       y       z     vdW  Elec       q    Type
REMARK                         _______ _______ _______ _____ _____    ______ ____
ROOT
ATOM      1  C   UNL     1       3.934   4.288  17.623  0.00  0.00    +0.000 C 
ATOM      2  C   UNL     1       4.603   3.911  19.003  0.00  0.00    +0.000 C 
ATOM      3  N   UNL     1       4.083   5.154  19.560  0.00  0.00    +0.000 N 
ATOM      4  C   UNL     1       3.670   5.664  18.377  0.00  0.00    +0.000 C 
ATOM      5  O   UNL     1       3.287   6.792  18.184  0.00  0.00    +0.000 OA
ATOM      6  H   UNL     1       4.460   5.779  20.261  0.00  0.00    +0.000 HD
ENDROOT
BRANCH   1   7
ATOM      7  C   UNL     1       2.626   3.550  17.257  0.00  0.00    +0.000 C 
BRANCH   7   8
ATOM      8  C   UNL     1       2.288   2.349  18.160  0.00  0.00    +0.000 C 
BRANCH   8   9
ATOM      9  C   UNL     1       0.924   2.466  18.842  0.00  0.00    +0.000 C 
BRANCH   9  11
ATOM     10  C   UNL     1       1.498   3.037  21.199  0.00  0.00    +0.000 C 
ATOM     11  C   UNL     1       0.925   3.373  20.035  0.00  0.00    +0.000 C 
ENDBRANCH   9  11
ENDBRANCH   8   9
ENDBRANCH   7   8
ENDBRANCH   1   7
BRANCH   1  12
ATOM     12  C   UNL     1       4.982   4.326  16.482  0.00  0.00    +0.000 C 
BRANCH  12  13
ATOM     13  C   UNL     1       6.444   4.526  16.920  0.00  0.00    +0.000 C 
BRANCH  13  14
ATOM     14  C   UNL     1       6.899   5.975  16.757  0.00  0.00    +0.000 C 
BRANCH  14  15
ATOM     15  C   UNL     1       7.526   6.589  17.972  0.00  0.00    +0.000 C 
ATOM     16  C   UNL     1       7.739   5.875  19.084  0.00  0.00    +0.000 C 
ENDBRANCH  14  15
ENDBRANCH  13  14
ENDBRANCH  12  13
ENDBRANCH   1  12
TORSDOF 8
ENDMDL
MODEL 4
REMARK VINA RESULT:      -6.1      1.908      2.748
REMARK  Name = 
REMARK  8 active torsions:
REMARK  status: ('A' for Active; 'I' for Inactive)
REMARK    1  A    between atoms: C_2  and  C_3
REMARK    2  A    between atoms: C_3  and  C_4
REMARK    3  A    between atoms: C_4  and  C_5
REMARK    4  A    between atoms: C_5  and  C_6
REMARK    5  A    between atoms: C_6  and  C_7
REMARK    6  A    between atoms: C_7  and  C_8
REMARK    7  A    between atoms: C_8  and  C_9
REMARK    8  A    between atoms: C_9  and  C_10
REMARK                            x       y       z     vdW  Elec       q    Type
REMARK                         _______ _______ _______ _____ _____    ______ ____
ROOT
ATOM      1  C   UNL     1       3.948   4.387  17.647  0.00  0.00    +0.000 C 
ATOM      2  C   UNL     1       3.813   5.782  18.374  0.00  0.00    +0.000 C 
ATOM      3  N   UNL     1       4.673   5.278  19.437  0.00  0.00    +0.000 N 
ATOM      4  C   UNL     1       4.669   3.994  19.009  0.00  0.00    +0.000 C 
ATOM      5  O   UNL     1       5.101   3.042  19.613  0.00  0.00    +0.000 OA
ATOM      6  H   UNL     1       4.684   5.465  20.432  0.00  0.00    +0.000 HD
ENDROOT
BRANCH   1   7
ATOM      7  C   UNL     1       4.901   4.325  16.431  0.00  0.00    +0.000 C 
BRANCH   7   8
ATOM      8  C   UNL     1       5.502   5.679  16.009  0.00  0.00    +0.000 C 
BRANCH   8   9
ATOM      9  C   UNL     1       6.966   5.848  16.419  0.00  0.00    +0.000 C 
BRANCH   9  11
ATOM     10  C   UNL     1       7.956   6.823  18.487  0.00  0.00    +0.000 C 
ATOM     11  C   UNL     1       7.191   6.962  17.396  0.00  0.00    +0.000 C 
ENDBRANCH   9  11
ENDBRANCH   8   9
ENDBRANCH   7   8
ENDBRANCH   1   7
BRANCH   1  12
ATOM     12  C   UNL     1       2.560   3.745  17.399  0.00  0.00    +0.000 C 
BRANCH  12  13
ATOM     13  C   UNL     1       2.426   2.263  17.795  0.00  0.00    +0.000 C 
BRANCH  13  14
ATOM     14  C   UNL     1       1.529   2.075  19.017  0.00  0.00    +0.000 C 
BRANCH  14  15
ATOM     15  C   UNL     1       1.047   3.341  19.658  0.00  0.00    +0.000 C 
ATOM     16  C   UNL     1       1.358   3.644  20.924  0.00  0.00    +0.000 C 
ENDBRANCH  14  15
ENDBRANCH  13  14
ENDBRANCH  12  13
ENDBRANCH   1  12
TORSDOF 8
ENDMDL
MODEL 5
REMARK VINA RESULT:      -6.1      2.176      2.965
REMARK  Name = 
REMARK  8 active torsions:
REMARK  status: ('A' for Active; 'I' for Inactive)
REMARK    1  A    between atoms: C_2  and  C_3
REMARK    2  A    between atoms: C_3  and  C_4
REMARK    3  A    between atoms: C_4  and  C_5
REMARK    4  A    between atoms: C_5  and  C_6
REMARK    5  A    between atoms: C_6  and  C_7
REMARK    6  A    between atoms: C_7  and  C_8
REMARK    7  A    between atoms: C_8  and  C_9
REMARK    8  A    between atoms: C_9  and  C_10
REMARK                            x       y       z     vdW  Elec       q    Type
REMARK                         _______ _______ _______ _____ _____    ______ ____
ROOT
ATOM      1  C   UNL     1       5.430   4.933  16.067  0.00  0.00    +0.000 C 
ATOM      2  C   UNL     1       5.445   6.489  16.336  0.00  0.00    +0.000 C 
ATOM      3  N   UNL     1       6.891   6.417  16.499  0.00  0.00    +0.000 N 
ATOM      4  C   UNL     1       6.954   5.065  16.503  0.00  0.00    +0.000 C 
ATOM      5  O   UNL     1       7.922   4.399  16.780  0.00  0.00    +0.000 OA
ATOM      6  H   UNL     1       7.522   6.941  17.092  0.00  0.00    +0.000 HD
ENDROOT
BRANCH   1   7
ATOM      7  C   UNL     1       5.268   4.480  14.598  0.00  0.00    +0.000 C 
BRANCH   7   8
ATOM      8  C   UNL     1       6.570   4.019  13.917  0.00  0.00    +0.000 C 
BRANCH   8   9
ATOM      9  C   UNL     1       6.430   3.827  12.406  0.00  0.00    +0.000 C 
BRANCH   9  11
ATOM     10  C   UNL     1       4.272   3.221  11.316  0.00  0.00    +0.000 C 
ATOM     11  C   UNL     1       5.353   2.859  12.020  0.00  0.00    +0.000 C 
ENDBRANCH   9  11
ENDBRANCH   8   9
ENDBRANCH   7   8
ENDBRANCH   1   7
BRANCH   1  12
ATOM     12  C   UNL     1       4.497   4.199  17.064  0.00  0.00    +0.000 C 
BRANCH  12  13
ATOM     13  C   UNL     1       3.316   5.023  17.610  0.00  0.00    +0.000 C 
BRANCH  13  14
ATOM     14  C   UNL     1       2.141   4.139  18.021  0.00  0.00    +0.000 C 
BRANCH  14  15
ATOM     15  C   UNL     1       1.716   4.265  19.453  0.00  0.00    +0.000 C 
ATOM     16  C   UNL     1       0.868   3.390  20.008  0.00  0.00    +0.000 C 
ENDBRANCH  14  15
ENDBRANCH  13  14
ENDBRANCH  12  13
ENDBRANCH   1  12
TORSDOF 8
ENDMDL
MODEL 6
REMARK VINA RESULT:      -6.1      2.656      4.466
REMARK  Name = 
REMARK  8 active torsions:
REMARK  status: ('A' for Active; 'I' for Inactive)
REMARK    1  A    between atoms: C_2  and  C_3
REMARK    2  A    between atoms: C_3  and  C_4
REMARK    3  A    between atoms: C_4  and  C_5
REMARK    4  A    between atoms: C_5  and  C_6
REMARK    5  A    between atoms: C_6  and  C_7
REMARK    6  A    between atoms: C_7  and  C_8
REMARK    7  A    between atoms: C_8  and  C_9
REMARK    8  A    between atoms: C_9  and  C_10
REMARK                            x       y       z     vdW  Elec       q    Type
REMARK                         _______ _______ _______ _____ _____    ______ ____
ROOT
ATOM      1  C   UNL     1       5.517   5.006  16.717  0.00  0.00    +0.000 C 
ATOM      2  C   UNL     1       5.750   5.916  15.448  0.00  0.00    +0.000 C 
ATOM      3  N   UNL     1       7.132   5.455  15.409  0.00  0.00    +0.000 N 
ATOM      4  C   UNL     1       7.093   4.825  16.605  0.00  0.00    +0.000 C 
ATOM      5  O   UNL     1       8.040   4.373  17.203  0.00  0.00    +0.000 OA
ATOM      6  H   UNL     1       7.984   5.923  15.126  0.00  0.00    +0.000 HD
ENDROOT
BRANCH   1   7
ATOM      7  C   UNL     1       4.749   3.682  16.494  0.00  0.00    +0.000 C 
BRANCH   7   8
ATOM      8  C   UNL     1       4.042   3.127  17.744  0.00  0.00    +0.000 C 
BRANCH   8   9
ATOM      9  C   UNL     1       2.588   2.724  17.491  0.00  0.00    +0.000 C 
BRANCH   9  11
ATOM     10  C   UNL     1       0.592   2.476  18.963  0.00  0.00    +0.000 C 
ATOM     11  C   UNL     1       1.883   2.218  18.714  0.00  0.00    +0.000 C 
ENDBRANCH   9  11
ENDBRANCH   8   9
ENDBRANCH   7   8
ENDBRANCH   1   7
BRANCH   1  12
ATOM     12  C   UNL     1       5.010   5.839  17.921  0.00  0.00    +0.000 C 
BRANCH  12  13
ATOM     13  C   UNL     1       3.917   6.877  17.607  0.00  0.00    +0.000 C 
BRANCH  13  14
ATOM     14  C   UNL     1       2.560   6.472  18.178  0.00  0.00    +0.000 C 
BRANCH  14  15
ATOM     15  C   UNL     1       2.444   6.551  19.670  0.00  0.00    +0.000 C 
ATOM     16  C   UNL     1       2.173   5.466  20.407  0.00  0.00    +0.000 C 
ENDBRANCH  14  15
ENDBRANCH  13  14
ENDBRANCH  12  13
ENDBRANCH   1  12
TORSDOF 8
ENDMDL
MODEL 7
REMARK VINA RESULT:      -6.0      1.294      1.478
REMARK  Name = 
REMARK  8 active torsions:
REMARK  status: ('A' for Active; 'I' for Inactive)
REMARK    1  A    between atoms: C_2  and  C_3
REMARK    2  A    between atoms: C_3  and  C_4
REMARK    3  A    between atoms: C_4  and  C_5
REMARK    4  A    between atoms: C_5  and  C_6
REMARK    5  A    between atoms: C_6  and  C_7
REMARK    6  A    between atoms: C_7  and  C_8
REMARK    7  A    between atoms: C_8  and  C_9
REMARK    8  A    between atoms: C_9  and  C_10
REMARK                            x       y       z     vdW  Elec       q    Type
REMARK                         _______ _______ _______ _____ _____    ______ ____
ROOT
ATOM      1  C   UNL     1       4.013   4.304  17.579  0.00  0.00    +0.000 C 
ATOM      2  C   UNL     1       4.131   5.774  18.143  0.00  0.00    +0.000 C 
ATOM      3  N   UNL     1       4.917   5.253  19.254  0.00  0.00    +0.000 N 
ATOM      4  C   UNL     1       4.687   3.949  18.975  0.00  0.00    +0.000 C 
ATOM      5  O   UNL     1       4.966   3.011  19.682  0.00  0.00    +0.000 OA
ATOM      6  H   UNL     1       4.981   5.546  20.221  0.00  0.00    +0.000 HD
ENDROOT
BRANCH   1   7
ATOM      7  C   UNL     1       4.914   3.945  16.375  0.00  0.00    +0.000 C 
BRANCH   7   8
ATOM      8  C   UNL     1       5.992   4.992  16.040  0.00  0.00    +0.000 C 
BRANCH   8   9
ATOM      9  C   UNL     1       6.646   4.776  14.674  0.00  0.00    +0.000 C 
BRANCH   9  11
ATOM     10  C   UNL     1       6.287   3.530  12.545  0.00  0.00    +0.000 C 
ATOM     11  C   UNL     1       5.882   3.842  13.784  0.00  0.00    +0.000 C 
ENDBRANCH   9  11
ENDBRANCH   8   9
ENDBRANCH   7   8
ENDBRANCH   1   7
BRANCH   1  12
ATOM     12  C   UNL     1       2.531   3.884  17.411  0.00  0.00    +0.000 C 
BRANCH  12  13
ATOM     13  C   UNL     1       2.190   2.443  17.835  0.00  0.00    +0.000 C 
BRANCH  13  14
ATOM     14  C   UNL     1       1.000   2.394  18.791  0.00  0.00    +0.000 C 
BRANCH  14  15
ATOM     15  C   UNL     1       1.297   2.795  20.204  0.00  0.00    +0.000 C 
ATOM     16  C   UNL     1       1.161   4.063  20.612  0.00  0.00    +0.000 C 
ENDBRANCH  14  15
ENDBRANCH  13  14
ENDBRANCH  12  13
ENDBRANCH   1  12
TORSDOF 8
ENDMDL
MODEL 8
REMARK VINA RESULT:      -6.0      1.631      2.480
REMARK  Name = 
REMARK  8 active torsions:
REMARK  status: ('A' for Active; 'I' for Inactive)
REMARK    1  A    between atoms: C_2  and  C_3
REMARK    2  A    between atoms: C_3  and  C_4
REMARK    3  A    between atoms: C_4  and  C_5
REMARK    4  A    between atoms: C_5  and  C_6
REMARK    5  A    between atoms: C_6  and  C_7
REMARK    6  A    between atoms: C_7  and  C_8
REMARK    7  A    between atoms: C_8  and  C_9
REMARK    8  A    between atoms: C_9  and  C_10
REMARK                            x       y       z     vdW  Elec       q    Type
REMARK                         _______ _______ _______ _____ _____    ______ ____
ROOT
ATOM      1  C   UNL     1       4.217   4.310  17.449  0.00  0.00    +0.000 C 
ATOM      2  C   UNL     1       4.966   3.734  18.715  0.00  0.00    +0.000 C 
ATOM      3  N   UNL     1       4.175   2.517  18.592  0.00  0.00    +0.000 N 
ATOM      4  C   UNL     1       3.334   3.003  17.650  0.00  0.00    +0.000 C 
ATOM      5  O   UNL     1       2.322   2.473  17.260  0.00  0.00    +0.000 OA
ATOM      6  H   UNL     1       3.816   1.881  19.293  0.00  0.00    +0.000 HD
ENDROOT
BRANCH   1   7
ATOM      7  C   UNL     1       4.997   4.301  16.114  0.00  0.00    +0.000 C 
BRANCH   7   8
ATOM      8  C   UNL     1       5.695   5.628  15.764  0.00  0.00    +0.000 C 
BRANCH   8   9
ATOM      9  C   UNL     1       7.134   5.712  16.276  0.00  0.00    +0.000 C 
BRANCH   9  11
ATOM     10  C   UNL     1       7.706   6.259  18.639  0.00  0.00    +0.000 C 
ATOM     11  C   UNL     1       7.309   6.660  17.424  0.00  0.00    +0.000 C 
ENDBRANCH   9  11
ENDBRANCH   8   9
ENDBRANCH   7   8
ENDBRANCH   1   7
BRANCH   1  12
ATOM     12  C   UNL     1       3.524   5.658  17.771  0.00  0.00    +0.000 C 
BRANCH  12  13
ATOM     13  C   UNL     1       2.153   5.559  18.465  0.00  0.00    +0.000 C 
BRANCH  13  14
ATOM     14  C   UNL     1       2.257   5.783  19.973  0.00  0.00    +0.000 C 
BRANCH  14  15
ATOM     15  C   UNL     1       1.700   4.682  20.823  0.00  0.00    +0.000 C 
ATOM     16  C   UNL     1       0.930   3.719  20.302  0.00  0.00    +0.000 C 
ENDBRANCH  14  15
ENDBRANCH  13  14
ENDBRANCH  12  13
ENDBRANCH   1  12
TORSDOF 8
ENDMDL
MODEL 9
REMARK VINA RESULT:      -6.0      2.327      5.275
REMARK  Name = 
REMARK  8 active torsions:
REMARK  status: ('A' for Active; 'I' for Inactive)
REMARK    1  A    between atoms: C_2  and  C_3
REMARK    2  A    between atoms: C_3  and  C_4
REMARK    3  A    between atoms: C_4  and  C_5
REMARK    4  A    between atoms: C_5  and  C_6
REMARK    5  A    between atoms: C_6  and  C_7
REMARK    6  A    between atoms: C_7  and  C_8
REMARK    7  A    between atoms: C_8  and  C_9
REMARK    8  A    between atoms: C_9  and  C_10
REMARK                            x       y       z     vdW  Elec       q    Type
REMARK                         _______ _______ _______ _____ _____    ______ ____
ROOT
ATOM      1  C   UNL     1       3.627   4.733  18.298  0.00  0.00    +0.000 C 
ATOM      2  C   UNL     1       4.714   4.896  17.164  0.00  0.00    +0.000 C 
ATOM      3  N   UNL     1       5.315   3.642  17.601  0.00  0.00    +0.000 N 
ATOM      4  C   UNL     1       4.572   3.528  18.726  0.00  0.00    +0.000 C 
ATOM      5  O   UNL     1       4.748   2.731  19.616  0.00  0.00    +0.000 OA
ATOM      6  H   UNL     1       6.278   3.333  17.613  0.00  0.00    +0.000 HD
ENDROOT
BRANCH   1   7
ATOM      7  C   UNL     1       2.224   4.259  17.854  0.00  0.00    +0.000 C 
BRANCH   7   8
ATOM      8  C   UNL     1       1.920   2.777  18.144  0.00  0.00    +0.000 C 
BRANCH   8   9
ATOM      9  C   UNL     1       0.851   2.574  19.219  0.00  0.00    +0.000 C 
BRANCH   9  11
ATOM     10  C   UNL     1       1.695   2.929  21.537  0.00  0.00    +0.000 C 
ATOM     11  C   UNL     1       1.072   3.402  20.449  0.00  0.00    +0.000 C 
ENDBRANCH   9  11
ENDBRANCH   8   9
ENDBRANCH   7   8
ENDBRANCH   1   7
BRANCH   1  12
ATOM     12  C   UNL     1       3.613   5.959  19.245  0.00  0.00    +0.000 C 
BRANCH  12  13
ATOM     13  C   UNL     1       2.441   6.940  19.057  0.00  0.00    +0.000 C 
BRANCH  13  14
ATOM     14  C   UNL     1       2.735   7.987  17.985  0.00  0.00    +0.000 C 
BRANCH  14  15
ATOM     15  C   UNL     1       1.619   8.947  17.704  0.00  0.00    +0.000 C 
ATOM     16  C   UNL     1       1.494  10.091  18.388  0.00  0.00    +0.000 C 
ENDBRANCH  14  15
ENDBRANCH  13  14
ENDBRANCH  12  13
ENDBRANCH   1  12
TORSDOF 8
ENDMDL
