MODEL 1
REMARK VINA RESULT:      -7.4      0.000      0.000
REMARK  Name = 
REMARK  4 active torsions:
REMARK  status: ('A' for Active; 'I' for Inactive)
REMARK    1  A    between atoms: C_13  and  O_14
REMARK    2  A    between atoms: C_18  and  C_19
REMARK    3  A    between atoms: N_21  and  C_22
REMARK    4  A    between atoms: C_29  and  O_30
REMARK                            x       y       z     vdW  Elec       q    Type
REMARK                         _______ _______ _______ _____ _____    ______ ____
ROOT
ATOM      1  O   UNL     1       2.165  10.100  17.423  0.00  0.00    +0.000 OA
ATOM      2  C   UNL     1       1.781   9.830  18.559  0.00  0.00    +0.000 C 
ATOM      3  C   UNL     1       1.891   8.450  19.070  0.00  0.00    +0.000 A 
ATOM      4  C   UNL     1       2.445   7.442  18.271  0.00  0.00    +0.000 A 
ATOM      5  C   UNL     1       2.535   6.133  18.755  0.00  0.00    +0.000 A 
ATOM      6  C   UNL     1       2.069   5.826  20.033  0.00  0.00    +0.000 A 
ATOM      7  C   UNL     1       1.517   6.829  20.826  0.00  0.00    +0.000 A 
ATOM      8  C   UNL     1       1.432   8.143  20.342  0.00  0.00    +0.000 A 
ATOM      9  C   UNL     1       0.828   9.185  21.188  0.00  0.00    +0.000 C 
ATOM     10  O   UNL     1       0.339   8.830  22.254  0.00  0.00    +0.000 OA
ATOM     11  C   UNL     1       0.782  10.591  20.699  0.00  0.00    +0.000 A 
ATOM     12  C   UNL     1       1.212  10.898  19.414  0.00  0.00    +0.000 A 
ATOM     13  C   UNL     1       1.119  12.224  18.929  0.00  0.00    +0.000 A 
ATOM     14  C   UNL     1       0.540  13.229  19.744  0.00  0.00    +0.000 A 
ATOM     15  S   UNL     1       0.344  14.907  19.389  0.00  0.00    +0.000 S 
ATOM     16  C   UNL     1      -0.464  15.226  20.863  0.00  0.00    +0.000 A 
ATOM     17  C   UNL     1      -0.628  14.092  21.627  0.00  0.00    +0.000 A 
ATOM     18  C   UNL     1       0.047  12.939  21.020  0.00  0.00    +0.000 A 
ATOM     19  C   UNL     1       0.248  11.612  21.505  0.00  0.00    +0.000 A 
ENDROOT
BRANCH  17  20
ATOM     20  C   UNL     1      -1.442  13.974  22.839  0.00  0.00    +0.000 C 
ATOM     21  O   UNL     1      -0.881  13.937  23.940  0.00  0.00    +0.000 OA
ATOM     22  N   UNL     1      -2.814  13.949  22.758  0.00  0.00    +0.000 N 
ATOM     23  H   UNL     1      -3.304  13.882  21.872  0.00  0.00    +0.000 HD
BRANCH  22  24
ATOM     24  C   UNL     1      -3.603  13.880  23.994  0.00  0.00    +0.000 C 
ATOM     25  C   UNL     1      -4.642  12.756  23.916  0.00  0.00    +0.000 C 
ATOM     26  C   UNL     1      -5.754  13.115  22.930  0.00  0.00    +0.000 C 
ATOM     27  C   UNL     1      -6.337  14.503  23.207  0.00  0.00    +0.000 C 
ATOM     28  N   UNL     1      -5.302  15.540  23.278  0.00  0.00    +0.000 NA
ATOM     29  C   UNL     1      -4.313  15.205  24.312  0.00  0.00    +0.000 C 
ATOM     30  H   UNL     1      -5.743  16.427  23.527  0.00  0.00    +0.000 HD
ENDBRANCH  22  24
ENDBRANCH  17  20
BRANCH  13  31
ATOM     31  O   UNL     1       1.563  12.558  17.667  0.00  0.00    +0.000 OA
ATOM     32  H   UNL     1       1.906  11.750  17.222  0.00  0.00    +0.000 HD
ENDBRANCH  13  31
BRANCH  19  33
ATOM     33  O   UNL     1      -0.017  11.316  22.825  0.00  0.00    +0.000 OA
ATOM     34  H   UNL     1      -0.433  10.431  22.875  0.00  0.00    +0.000 HD
ENDBRANCH  19  33
TORSDOF 4
ENDMDL
MODEL 2
REMARK VINA RESULT:      -7.3      2.971      5.615
REMARK  Name = 
REMARK  4 active torsions:
REMARK  status: ('A' for Active; 'I' for Inactive)
REMARK    1  A    between atoms: C_13  and  O_14
REMARK    2  A    between atoms: C_18  and  C_19
REMARK    3  A    between atoms: N_21  and  C_22
REMARK    4  A    between atoms: C_29  and  O_30
REMARK                            x       y       z     vdW  Elec       q    Type
REMARK                         _______ _______ _______ _____ _____    ______ ____
ROOT
ATOM      1  O   UNL     1       0.819   7.994  22.049  0.00  0.00    +0.000 OA
ATOM      2  C   UNL     1       1.104   8.520  20.974  0.00  0.00    +0.000 C 
ATOM      3  C   UNL     1       1.790   7.740  19.927  0.00  0.00    +0.000 A 
ATOM      4  C   UNL     1       2.107   6.393  20.141  0.00  0.00    +0.000 A 
ATOM      5  C   UNL     1       2.768   5.661  19.150  0.00  0.00    +0.000 A 
ATOM      6  C   UNL     1       3.117   6.271  17.945  0.00  0.00    +0.000 A 
ATOM      7  C   UNL     1       2.802   7.611  17.733  0.00  0.00    +0.000 A 
ATOM      8  C   UNL     1       2.134   8.343  18.726  0.00  0.00    +0.000 A 
ATOM      9  C   UNL     1       1.827   9.763  18.491  0.00  0.00    +0.000 C 
ATOM     10  O   UNL     1       2.255  10.268  17.460  0.00  0.00    +0.000 OA
ATOM     11  C   UNL     1       1.072  10.531  19.521  0.00  0.00    +0.000 A 
ATOM     12  C   UNL     1       0.752   9.939  20.737  0.00  0.00    +0.000 A 
ATOM     13  C   UNL     1       0.083  10.684  21.737  0.00  0.00    +0.000 A 
ATOM     14  C   UNL     1      -0.216  12.051  21.511  0.00  0.00    +0.000 A 
ATOM     15  S   UNL     1      -1.043  13.149  22.556  0.00  0.00    +0.000 S 
ATOM     16  C   UNL     1      -0.846  14.470  21.487  0.00  0.00    +0.000 A 
ATOM     17  C   UNL     1      -0.140  14.128  20.355  0.00  0.00    +0.000 A 
ATOM     18  C   UNL     1       0.143  12.689  20.319  0.00  0.00    +0.000 A 
ATOM     19  C   UNL     1       0.730  11.876  19.303  0.00  0.00    +0.000 A 
ENDROOT
BRANCH  17  20
ATOM     20  C   UNL     1       0.371  15.053  19.340  0.00  0.00    +0.000 C 
ATOM     21  O   UNL     1      -0.429  15.718  18.674  0.00  0.00    +0.000 OA
ATOM     22  N   UNL     1       1.724  15.210  19.160  0.00  0.00    +0.000 N 
ATOM     23  H   UNL     1       2.406  14.615  19.619  0.00  0.00    +0.000 HD
BRANCH  22  24
ATOM     24  C   UNL     1       2.207  16.181  18.169  0.00  0.00    +0.000 C 
ATOM     25  C   UNL     1       3.383  15.607  17.371  0.00  0.00    +0.000 C 
ATOM     26  C   UNL     1       4.631  15.504  18.247  0.00  0.00    +0.000 C 
ATOM     27  C   UNL     1       4.933  16.820  18.970  0.00  0.00    +0.000 C 
ATOM     28  N   UNL     1       3.774  17.328  19.712  0.00  0.00    +0.000 NA
ATOM     29  C   UNL     1       2.630  17.512  18.809  0.00  0.00    +0.000 C 
ATOM     30  H   UNL     1       4.016  18.234  20.117  0.00  0.00    +0.000 HD
ENDBRANCH  22  24
ENDBRANCH  17  20
BRANCH  13  31
ATOM     31  O   UNL     1      -0.268  10.111  22.942  0.00  0.00    +0.000 OA
ATOM     32  H   UNL     1      -0.271   9.132  22.845  0.00  0.00    +0.000 HD
ENDBRANCH  13  31
BRANCH  19  33
ATOM     33  O   UNL     1       0.910  12.388  18.035  0.00  0.00    +0.000 OA
ATOM     34  H   UNL     1       0.372  11.867  17.403  0.00  0.00    +0.000 HD
ENDBRANCH  19  33
TORSDOF 4
ENDMDL
MODEL 3
REMARK VINA RESULT:      -7.2      1.052      1.224
REMARK  Name = 
REMARK  4 active torsions:
REMARK  status: ('A' for Active; 'I' for Inactive)
REMARK    1  A    between atoms: C_13  and  O_14
REMARK    2  A    between atoms: C_18  and  C_19
REMARK    3  A    between atoms: N_21  and  C_22
REMARK    4  A    between atoms: C_29  and  O_30
REMARK                            x       y       z     vdW  Elec       q    Type
REMARK                         _______ _______ _______ _____ _____    ______ ____
ROOT
ATOM      1  O   UNL     1       2.731   8.825  17.152  0.00  0.00    +0.000 OA
ATOM      2  C   UNL     1       2.276   8.673  18.284  0.00  0.00    +0.000 C 
ATOM      3  C   UNL     1       2.219   7.327  18.885  0.00  0.00    +0.000 A 
ATOM      4  C   UNL     1       2.698   6.216  18.180  0.00  0.00    +0.000 A 
ATOM      5  C   UNL     1       2.631   4.941  18.749  0.00  0.00    +0.000 A 
ATOM      6  C   UNL     1       2.084   4.770  20.020  0.00  0.00    +0.000 A 
ATOM      7  C   UNL     1       1.607   5.875  20.721  0.00  0.00    +0.000 A 
ATOM      8  C   UNL     1       1.680   7.155  20.152  0.00  0.00    +0.000 A 
ATOM      9  C   UNL     1       1.153   8.308  20.899  0.00  0.00    +0.000 C 
ATOM     10  O   UNL     1       0.587   8.079  21.962  0.00  0.00    +0.000 OA
ATOM     11  C   UNL     1       1.274   9.676  20.321  0.00  0.00    +0.000 A 
ATOM     12  C   UNL     1       1.787   9.849  19.041  0.00  0.00    +0.000 A 
ATOM     13  C   UNL     1       1.852  11.141  18.468  0.00  0.00    +0.000 A 
ATOM     14  C   UNL     1       1.348  12.253  19.189  0.00  0.00    +0.000 A 
ATOM     15  S   UNL     1       1.342  13.915  18.719  0.00  0.00    +0.000 S 
ATOM     16  C   UNL     1       0.513  14.413  20.131  0.00  0.00    +0.000 A 
ATOM     17  C   UNL     1       0.200  13.356  20.956  0.00  0.00    +0.000 A 
ATOM     18  C   UNL     1       0.776  12.102  20.457  0.00  0.00    +0.000 A 
ATOM     19  C   UNL     1       0.817  10.797  21.033  0.00  0.00    +0.000 A 
ENDROOT
BRANCH  17  20
ATOM     20  C   UNL     1      -0.671  13.404  22.133  0.00  0.00    +0.000 C 
ATOM     21  O   UNL     1      -0.161  13.476  23.257  0.00  0.00    +0.000 OA
ATOM     22  N   UNL     1      -2.037  13.413  21.989  0.00  0.00    +0.000 N 
ATOM     23  H   UNL     1      -2.490  13.260  21.094  0.00  0.00    +0.000 HD
BRANCH  22  24
ATOM     24  C   UNL     1      -2.883  13.511  23.186  0.00  0.00    +0.000 C 
ATOM     25  C   UNL     1      -4.093  12.577  23.077  0.00  0.00    +0.000 C 
ATOM     26  C   UNL     1      -5.081  13.091  22.031  0.00  0.00    +0.000 C 
ATOM     27  C   UNL     1      -5.433  14.565  22.252  0.00  0.00    +0.000 C 
ATOM     28  N   UNL     1      -4.241  15.414  22.355  0.00  0.00    +0.000 NA
ATOM     29  C   UNL     1      -3.372  14.946  23.443  0.00  0.00    +0.000 C 
ATOM     30  H   UNL     1      -4.536  16.369  22.565  0.00  0.00    +0.000 HD
ENDBRANCH  22  24
ENDBRANCH  17  20
BRANCH  13  31
ATOM     31  O   UNL     1       2.380  11.342  17.210  0.00  0.00    +0.000 OA
ATOM     32  H   UNL     1       3.285  10.956  17.176  0.00  0.00    +0.000 HD
ENDBRANCH  13  31
BRANCH  19  33
ATOM     33  O   UNL     1       0.469  10.621  22.356  0.00  0.00    +0.000 OA
ATOM     34  H   UNL     1      -0.108  11.361  22.634  0.00  0.00    +0.000 HD
ENDBRANCH  19  33
TORSDOF 4
ENDMDL
MODEL 4
REMARK VINA RESULT:      -7.0      3.830      4.820
REMARK  Name = 
REMARK  4 active torsions:
REMARK  status: ('A' for Active; 'I' for Inactive)
REMARK    1  A    between atoms: C_13  and  O_14
REMARK    2  A    between atoms: C_18  and  C_19
REMARK    3  A    between atoms: N_21  and  C_22
REMARK    4  A    between atoms: C_29  and  O_30
REMARK                            x       y       z     vdW  Elec       q    Type
REMARK                         _______ _______ _______ _____ _____    ______ ____
ROOT
ATOM      1  O   UNL     1      -2.476   9.801  16.323  0.00  0.00    +0.000 OA
ATOM      2  C   UNL     1      -2.255  10.384  17.382  0.00  0.00    +0.000 C 
ATOM      3  C   UNL     1      -0.974  10.182  18.085  0.00  0.00    +0.000 A 
ATOM      4  C   UNL     1       0.004   9.338  17.546  0.00  0.00    +0.000 A 
ATOM      5  C   UNL     1       1.211   9.140  18.222  0.00  0.00    +0.000 A 
ATOM      6  C   UNL     1       1.445   9.779  19.439  0.00  0.00    +0.000 A 
ATOM      7  C   UNL     1       0.470  10.618  19.976  0.00  0.00    +0.000 A 
ATOM      8  C   UNL     1      -0.739  10.821  19.294  0.00  0.00    +0.000 A 
ATOM      9  C   UNL     1      -1.763  11.695  19.887  0.00  0.00    +0.000 C 
ATOM     10  O   UNL     1      -1.544  12.139  21.008  0.00  0.00    +0.000 OA
ATOM     11  C   UNL     1      -3.027  11.954  19.142  0.00  0.00    +0.000 A 
ATOM     12  C   UNL     1      -3.280  11.293  17.946  0.00  0.00    +0.000 A 
ATOM     13  C   UNL     1      -4.504  11.496  17.265  0.00  0.00    +0.000 A 
ATOM     14  C   UNL     1      -5.490  12.341  17.833  0.00  0.00    +0.000 A 
ATOM     15  S   UNL     1      -7.034  12.764  17.185  0.00  0.00    +0.000 S 
ATOM     16  C   UNL     1      -7.462  13.698  18.553  0.00  0.00    +0.000 A 
ATOM     17  C   UNL     1      -6.485  13.687  19.524  0.00  0.00    +0.000 A 
ATOM     18  C   UNL     1      -5.287  12.975  19.063  0.00  0.00    +0.000 A 
ATOM     19  C   UNL     1      -4.003  12.818  19.667  0.00  0.00    +0.000 A 
ENDROOT
BRANCH  17  20
ATOM     20  C   UNL     1      -6.609  14.213  20.885  0.00  0.00    +0.000 C 
ATOM     21  O   UNL     1      -6.988  15.377  21.049  0.00  0.00    +0.000 OA
ATOM     22  N   UNL     1      -6.349  13.408  21.969  0.00  0.00    +0.000 N 
ATOM     23  H   UNL     1      -5.946  12.482  21.873  0.00  0.00    +0.000 HD
BRANCH  22  24
ATOM     24  C   UNL     1      -6.530  13.949  23.322  0.00  0.00    +0.000 C 
ATOM     25  C   UNL     1      -5.242  14.614  23.821  0.00  0.00    +0.000 C 
ATOM     26  C   UNL     1      -4.170  13.564  24.113  0.00  0.00    +0.000 C 
ATOM     27  C   UNL     1      -4.697  12.443  25.013  0.00  0.00    +0.000 C 
ATOM     28  N   UNL     1      -5.933  11.846  24.495  0.00  0.00    +0.000 NA
ATOM     29  C   UNL     1      -6.969  12.875  24.330  0.00  0.00    +0.000 C 
ATOM     30  H   UNL     1      -6.269  11.154  25.165  0.00  0.00    +0.000 HD
ENDBRANCH  22  24
ENDBRANCH  17  20
BRANCH  13  31
ATOM     31  O   UNL     1      -4.767  10.872  16.064  0.00  0.00    +0.000 OA
ATOM     32  H   UNL     1      -4.961  11.555  15.382  0.00  0.00    +0.000 HD
ENDBRANCH  13  31
BRANCH  19  33
ATOM     33  O   UNL     1      -3.662  13.582  20.763  0.00  0.00    +0.000 OA
ATOM     34  H   UNL     1      -3.252  14.416  20.453  0.00  0.00    +0.000 HD
ENDBRANCH  19  33
TORSDOF 4
ENDMDL
MODEL 5
REMARK VINA RESULT:      -6.9      3.937      6.185
REMARK  Name = 
REMARK  4 active torsions:
REMARK  status: ('A' for Active; 'I' for Inactive)
REMARK    1  A    between atoms: C_13  and  O_14
REMARK    2  A    between atoms: C_18  and  C_19
REMARK    3  A    between atoms: N_21  and  C_22
REMARK    4  A    between atoms: C_29  and  O_30
REMARK                            x       y       z     vdW  Elec       q    Type
REMARK                         _______ _______ _______ _____ _____    ______ ____
ROOT
ATOM      1  O   UNL     1       3.419   4.604  20.168  0.00  0.00    +0.000 OA
ATOM      2  C   UNL     1       3.454   5.429  19.257  0.00  0.00    +0.000 C 
ATOM      3  C   UNL     1       4.274   5.174  18.058  0.00  0.00    +0.000 A 
ATOM      4  C   UNL     1       5.007   3.987  17.941  0.00  0.00    +0.000 A 
ATOM      5  C   UNL     1       5.793   3.755  16.808  0.00  0.00    +0.000 A 
ATOM      6  C   UNL     1       5.854   4.708  15.792  0.00  0.00    +0.000 A 
ATOM      7  C   UNL     1       5.126   5.890  15.909  0.00  0.00    +0.000 A 
ATOM      8  C   UNL     1       4.333   6.119  17.044  0.00  0.00    +0.000 A 
ATOM      9  C   UNL     1       3.586   7.382  17.158  0.00  0.00    +0.000 C 
ATOM     10  O   UNL     1       3.766   8.223  16.285  0.00  0.00    +0.000 OA
ATOM     11  C   UNL     1       2.703   7.608  18.336  0.00  0.00    +0.000 A 
ATOM     12  C   UNL     1       2.664   6.678  19.368  0.00  0.00    +0.000 A 
ATOM     13  C   UNL     1       1.868   6.917  20.513  0.00  0.00    +0.000 A 
ATOM     14  C   UNL     1       1.145   8.131  20.623  0.00  0.00    +0.000 A 
ATOM     15  S   UNL     1       0.092   8.634  21.895  0.00  0.00    +0.000 S 
ATOM     16  C   UNL     1      -0.203  10.161  21.181  0.00  0.00    +0.000 A 
ATOM     17  C   UNL     1       0.496  10.336  20.008  0.00  0.00    +0.000 A 
ATOM     18  C   UNL     1       1.208   9.111  19.625  0.00  0.00    +0.000 A 
ATOM     19  C   UNL     1       1.947   8.787  18.448  0.00  0.00    +0.000 A 
ENDROOT
BRANCH  17  20
ATOM     20  C   UNL     1       0.626  11.585  19.254  0.00  0.00    +0.000 C 
ATOM     21  O   UNL     1      -0.156  11.812  18.324  0.00  0.00    +0.000 OA
ATOM     22  N   UNL     1       1.578  12.513  19.602  0.00  0.00    +0.000 N 
ATOM     23  H   UNL     1       2.295  12.322  20.294  0.00  0.00    +0.000 HD
BRANCH  22  24
ATOM     24  C   UNL     1       1.651  13.777  18.858  0.00  0.00    +0.000 C 
ATOM     25  C   UNL     1       3.106  14.143  18.546  0.00  0.00    +0.000 C 
ATOM     26  C   UNL     1       3.844  14.559  19.818  0.00  0.00    +0.000 C 
ATOM     27  C   UNL     1       3.074  15.624  20.604  0.00  0.00    +0.000 C 
ATOM     28  N   UNL     1       1.687  15.228  20.870  0.00  0.00    +0.000 NA
ATOM     29  C   UNL     1       0.987  14.940  19.611  0.00  0.00    +0.000 C 
ATOM     30  H   UNL     1       1.210  16.001  21.337  0.00  0.00    +0.000 HD
ENDBRANCH  22  24
ENDBRANCH  17  20
BRANCH  13  31
ATOM     31  O   UNL     1       1.793   5.998  21.538  0.00  0.00    +0.000 OA
ATOM     32  H   UNL     1       0.910   6.066  21.968  0.00  0.00    +0.000 HD
ENDBRANCH  13  31
BRANCH  19  33
ATOM     33  O   UNL     1       1.873   9.611  17.345  0.00  0.00    +0.000 OA
ATOM     34  H   UNL     1       1.712   9.063  16.549  0.00  0.00    +0.000 HD
ENDBRANCH  19  33
TORSDOF 4
ENDMDL
MODEL 6
REMARK VINA RESULT:      -6.9      3.683      6.040
REMARK  Name = 
REMARK  4 active torsions:
REMARK  status: ('A' for Active; 'I' for Inactive)
REMARK    1  A    between atoms: C_13  and  O_14
REMARK    2  A    between atoms: C_18  and  C_19
REMARK    3  A    between atoms: N_21  and  C_22
REMARK    4  A    between atoms: C_29  and  O_30
REMARK                            x       y       z     vdW  Elec       q    Type
REMARK                         _______ _______ _______ _____ _____    ______ ____
ROOT
ATOM      1  O   UNL     1       1.753   5.757  21.184  0.00  0.00    +0.000 OA
ATOM      2  C   UNL     1       2.091   6.359  20.166  0.00  0.00    +0.000 C 
ATOM      3  C   UNL     1       2.887   5.674  19.131  0.00  0.00    +0.000 A 
ATOM      4  C   UNL     1       3.251   4.331  19.290  0.00  0.00    +0.000 A 
ATOM      5  C   UNL     1       4.016   3.690  18.312  0.00  0.00    +0.000 A 
ATOM      6  C   UNL     1       4.423   4.386  17.175  0.00  0.00    +0.000 A 
ATOM      7  C   UNL     1       4.062   5.722  17.017  0.00  0.00    +0.000 A 
ATOM      8  C   UNL     1       3.290   6.363  17.996  0.00  0.00    +0.000 A 
ATOM      9  C   UNL     1       2.935   7.780  17.821  0.00  0.00    +0.000 C 
ATOM     10  O   UNL     1       3.413   8.365  16.856  0.00  0.00    +0.000 OA
ATOM     11  C   UNL     1       2.071   8.452  18.833  0.00  0.00    +0.000 A 
ATOM     12  C   UNL     1       1.691   7.774  19.985  0.00  0.00    +0.000 A 
ATOM     13  C   UNL     1       0.917   8.427  20.973  0.00  0.00    +0.000 A 
ATOM     14  C   UNL     1       0.571   9.792  20.803  0.00  0.00    +0.000 A 
ATOM     15  S   UNL     1      -0.380  10.788  21.844  0.00  0.00    +0.000 S 
ATOM     16  C   UNL     1      -0.168  12.179  20.870  0.00  0.00    +0.000 A 
ATOM     17  C   UNL     1       0.634  11.937  19.777  0.00  0.00    +0.000 A 
ATOM     18  C   UNL     1       0.987  10.516  19.680  0.00  0.00    +0.000 A 
ATOM     19  C   UNL     1       1.684   9.792  18.666  0.00  0.00    +0.000 A 
ENDROOT
BRANCH  17  20
ATOM     20  C   UNL     1       1.175  12.942  18.859  0.00  0.00    +0.000 C 
ATOM     21  O   UNL     1       0.528  13.248  17.852  0.00  0.00    +0.000 OA
ATOM     22  N   UNL     1       2.366  13.569  19.135  0.00  0.00    +0.000 N 
ATOM     23  H   UNL     1       2.969  13.279  19.898  0.00  0.00    +0.000 HD
BRANCH  22  24
ATOM     24  C   UNL     1       2.858  14.608  18.221  0.00  0.00    +0.000 C 
ATOM     25  C   UNL     1       4.388  14.579  18.134  0.00  0.00    +0.000 C 
ATOM     26  C   UNL     1       5.013  15.077  19.436  0.00  0.00    +0.000 C 
ATOM     27  C   UNL     1       4.427  16.421  19.875  0.00  0.00    +0.000 C 
ATOM     28  N   UNL     1       2.961  16.397  19.936  0.00  0.00    +0.000 NA
ATOM     29  C   UNL     1       2.401  16.016  18.633  0.00  0.00    +0.000 C 
ATOM     30  H   UNL     1       2.627  17.333  20.170  0.00  0.00    +0.000 HD
ENDBRANCH  22  24
ENDBRANCH  17  20
BRANCH  13  31
ATOM     31  O   UNL     1       0.505   7.769  22.112  0.00  0.00    +0.000 OA
ATOM     32  H   UNL     1      -0.092   8.358  22.627  0.00  0.00    +0.000 HD
ENDBRANCH  13  31
BRANCH  19  33
ATOM     33  O   UNL     1       1.932  10.387  17.448  0.00  0.00    +0.000 OA
ATOM     34  H   UNL     1       2.202   9.697  16.807  0.00  0.00    +0.000 HD
ENDBRANCH  19  33
TORSDOF 4
ENDMDL
MODEL 7
REMARK VINA RESULT:      -6.7      2.577      4.790
REMARK  Name = 
REMARK  4 active torsions:
REMARK  status: ('A' for Active; 'I' for Inactive)
REMARK    1  A    between atoms: C_13  and  O_14
REMARK    2  A    between atoms: C_18  and  C_19
REMARK    3  A    between atoms: N_21  and  C_22
REMARK    4  A    between atoms: C_29  and  O_30
REMARK                            x       y       z     vdW  Elec       q    Type
REMARK                         _______ _______ _______ _____ _____    ______ ____
ROOT
ATOM      1  O   UNL     1       0.372   8.657  22.263  0.00  0.00    +0.000 OA
ATOM      2  C   UNL     1       0.347   9.392  21.278  0.00  0.00    +0.000 C 
ATOM      3  C   UNL     1       1.099   9.028  20.063  0.00  0.00    +0.000 A 
ATOM      4  C   UNL     1       1.833   7.837  20.015  0.00  0.00    +0.000 A 
ATOM      5  C   UNL     1       2.555   7.502  18.865  0.00  0.00    +0.000 A 
ATOM      6  C   UNL     1       2.549   8.355  17.762  0.00  0.00    +0.000 A 
ATOM      7  C   UNL     1       1.820   9.542  17.811  0.00  0.00    +0.000 A 
ATOM      8  C   UNL     1       1.092   9.874  18.963  0.00  0.00    +0.000 A 
ATOM      9  C   UNL     1       0.344  11.140  19.003  0.00  0.00    +0.000 C 
ATOM     10  O   UNL     1       0.467  11.897  18.046  0.00  0.00    +0.000 OA
ATOM     11  C   UNL     1      -0.472  11.474  20.204  0.00  0.00    +0.000 A 
ATOM     12  C   UNL     1      -0.444  10.644  21.319  0.00  0.00    +0.000 A 
ATOM     13  C   UNL     1      -1.175  10.988  22.480  0.00  0.00    +0.000 A 
ATOM     14  C   UNL     1      -1.899  12.206  22.518  0.00  0.00    +0.000 A 
ATOM     15  S   UNL     1      -2.881  12.823  23.797  0.00  0.00    +0.000 S 
ATOM     16  C   UNL     1      -3.228  14.276  22.963  0.00  0.00    +0.000 A 
ATOM     17  C   UNL     1      -2.600  14.341  21.739  0.00  0.00    +0.000 A 
ATOM     18  C   UNL     1      -1.901  13.087  21.432  0.00  0.00    +0.000 A 
ATOM     19  C   UNL     1      -1.229  12.657  20.249  0.00  0.00    +0.000 A 
ENDROOT
BRANCH  17  20
ATOM     20  C   UNL     1      -2.523  15.515  20.866  0.00  0.00    +0.000 C 
ATOM     21  O   UNL     1      -3.567  16.077  20.519  0.00  0.00    +0.000 OA
ATOM     22  N   UNL     1      -1.303  16.011  20.471  0.00  0.00    +0.000 N 
ATOM     23  H   UNL     1      -0.433  15.523  20.656  0.00  0.00    +0.000 HD
BRANCH  22  24
ATOM     24  C   UNL     1      -1.257  17.217  19.636  0.00  0.00    +0.000 C 
ATOM     25  C   UNL     1      -0.563  16.930  18.300  0.00  0.00    +0.000 C 
ATOM     26  C   UNL     1       0.936  16.712  18.505  0.00  0.00    +0.000 C 
ATOM     27  C   UNL     1       1.571  17.839  19.323  0.00  0.00    +0.000 C 
ATOM     28  N   UNL     1       0.866  18.078  20.587  0.00  0.00    +0.000 NA
ATOM     29  C   UNL     1      -0.547  18.388  20.334  0.00  0.00    +0.000 C 
ATOM     30  H   UNL     1       1.294  18.878  21.056  0.00  0.00    +0.000 HD
ENDBRANCH  22  24
ENDBRANCH  17  20
BRANCH  13  31
ATOM     31  O   UNL     1      -1.184  10.168  23.589  0.00  0.00    +0.000 OA
ATOM     32  H   UNL     1      -0.505   9.465  23.475  0.00  0.00    +0.000 HD
ENDBRANCH  13  31
BRANCH  19  33
ATOM     33  O   UNL     1      -1.372  13.374  19.080  0.00  0.00    +0.000 OA
ATOM     34  H   UNL     1      -2.070  12.956  18.534  0.00  0.00    +0.000 HD
ENDBRANCH  19  33
TORSDOF 4
ENDMDL
MODEL 8
REMARK VINA RESULT:      -6.6      1.153      1.387
REMARK  Name = 
REMARK  4 active torsions:
REMARK  status: ('A' for Active; 'I' for Inactive)
REMARK    1  A    between atoms: C_13  and  O_14
REMARK    2  A    between atoms: C_18  and  C_19
REMARK    3  A    between atoms: N_21  and  C_22
REMARK    4  A    between atoms: C_29  and  O_30
REMARK                            x       y       z     vdW  Elec       q    Type
REMARK                         _______ _______ _______ _____ _____    ______ ____
ROOT
ATOM      1  O   UNL     1       2.389   9.750  17.498  0.00  0.00    +0.000 OA
ATOM      2  C   UNL     1       1.852   9.462  18.565  0.00  0.00    +0.000 C 
ATOM      3  C   UNL     1       1.982   8.099  19.116  0.00  0.00    +0.000 A 
ATOM      4  C   UNL     1       2.731   7.130  18.436  0.00  0.00    +0.000 A 
ATOM      5  C   UNL     1       2.841   5.837  18.955  0.00  0.00    +0.000 A 
ATOM      6  C   UNL     1       2.204   5.506  20.150  0.00  0.00    +0.000 A 
ATOM      7  C   UNL     1       1.459   6.470  20.826  0.00  0.00    +0.000 A 
ATOM      8  C   UNL     1       1.352   7.769  20.307  0.00  0.00    +0.000 A 
ATOM      9  C   UNL     1       0.545   8.768  21.024  0.00  0.00    +0.000 C 
ATOM     10  O   UNL     1      -0.079   8.387  22.008  0.00  0.00    +0.000 OA
ATOM     11  C   UNL     1       0.471  10.162  20.504  0.00  0.00    +0.000 A 
ATOM     12  C   UNL     1       1.075  10.490  19.297  0.00  0.00    +0.000 A 
ATOM     13  C   UNL     1       0.960  11.800  18.775  0.00  0.00    +0.000 A 
ATOM     14  C   UNL     1       0.185  12.765  19.467  0.00  0.00    +0.000 A 
ATOM     15  S   UNL     1      -0.079  14.419  19.050  0.00  0.00    +0.000 S 
ATOM     16  C   UNL     1      -1.132  14.687  20.372  0.00  0.00    +0.000 A 
ATOM     17  C   UNL     1      -1.329  13.551  21.124  0.00  0.00    +0.000 A 
ATOM     18  C   UNL     1      -0.481  12.449  20.656  0.00  0.00    +0.000 A 
ATOM     19  C   UNL     1      -0.260  11.145  21.194  0.00  0.00    +0.000 A 
ENDROOT
BRANCH  17  20
ATOM     20  C   UNL     1      -2.313  13.381  22.195  0.00  0.00    +0.000 C 
ATOM     21  O   UNL     1      -2.984  12.344  22.239  0.00  0.00    +0.000 OA
ATOM     22  N   UNL     1      -2.460  14.343  23.166  0.00  0.00    +0.000 N 
ATOM     23  H   UNL     1      -1.999  15.245  23.110  0.00  0.00    +0.000 HD
BRANCH  22  24
ATOM     24  C   UNL     1      -3.421  14.122  24.254  0.00  0.00    +0.000 C 
ATOM     25  C   UNL     1      -4.835  14.527  23.826  0.00  0.00    +0.000 C 
ATOM     26  C   UNL     1      -4.947  16.046  23.700  0.00  0.00    +0.000 C 
ATOM     27  C   UNL     1      -4.431  16.764  24.950  0.00  0.00    +0.000 C 
ATOM     28  N   UNL     1      -3.078  16.335  25.321  0.00  0.00    +0.000 NA
ATOM     29  C   UNL     1      -3.042  14.882  25.535  0.00  0.00    +0.000 C 
ATOM     30  H   UNL     1      -2.814  16.797  26.192  0.00  0.00    +0.000 HD
ENDBRANCH  22  24
ENDBRANCH  17  20
BRANCH  13  31
ATOM     31  O   UNL     1       1.572  12.156  17.591  0.00  0.00    +0.000 OA
ATOM     32  H   UNL     1       0.895  12.201  16.879  0.00  0.00    +0.000 HD
ENDBRANCH  13  31
BRANCH  19  33
ATOM     33  O   UNL     1      -0.708  10.842  22.462  0.00  0.00    +0.000 OA
ATOM     34  H   UNL     1      -1.210  11.606  22.813  0.00  0.00    +0.000 HD
ENDBRANCH  19  33
TORSDOF 4
ENDMDL
MODEL 9
REMARK VINA RESULT:      -6.6      3.735      4.883
REMARK  Name = 
REMARK  4 active torsions:
REMARK  status: ('A' for Active; 'I' for Inactive)
REMARK    1  A    between atoms: C_13  and  O_14
REMARK    2  A    between atoms: C_18  and  C_19
REMARK    3  A    between atoms: N_21  and  C_22
REMARK    4  A    between atoms: C_29  and  O_30
REMARK                            x       y       z     vdW  Elec       q    Type
REMARK                         _______ _______ _______ _____ _____    ______ ____
ROOT
ATOM      1  O   UNL     1      -2.444  10.073  16.378  0.00  0.00    +0.000 OA
ATOM      2  C   UNL     1      -2.261  10.575  17.486  0.00  0.00    +0.000 C 
ATOM      3  C   UNL     1      -0.983  10.366  18.192  0.00  0.00    +0.000 A 
ATOM      4  C   UNL     1       0.037   9.609  17.600  0.00  0.00    +0.000 A 
ATOM      5  C   UNL     1       1.242   9.403  18.279  0.00  0.00    +0.000 A 
ATOM      6  C   UNL     1       1.432   9.948  19.548  0.00  0.00    +0.000 A 
ATOM      7  C   UNL     1       0.417  10.700  20.136  0.00  0.00    +0.000 A 
ATOM      8  C   UNL     1      -0.790  10.910  19.453  0.00  0.00    +0.000 A 
ATOM      9  C   UNL     1      -1.857  11.690  20.098  0.00  0.00    +0.000 C 
ATOM     10  O   UNL     1      -1.671  12.049  21.256  0.00  0.00    +0.000 OA
ATOM     11  C   UNL     1      -3.121  11.960  19.357  0.00  0.00    +0.000 A 
ATOM     12  C   UNL     1      -3.330  11.392  18.106  0.00  0.00    +0.000 A 
ATOM     13  C   UNL     1      -4.552  11.602  17.423  0.00  0.00    +0.000 A 
ATOM     14  C   UNL     1      -5.580  12.357  18.043  0.00  0.00    +0.000 A 
ATOM     15  S   UNL     1      -7.130  12.771  17.406  0.00  0.00    +0.000 S 
ATOM     16  C   UNL     1      -7.615  13.570  18.840  0.00  0.00    +0.000 A 
ATOM     17  C   UNL     1      -6.651  13.517  19.822  0.00  0.00    +0.000 A 
ATOM     18  C   UNL     1      -5.419  12.895  19.325  0.00  0.00    +0.000 A 
ATOM     19  C   UNL     1      -4.138  12.738  19.935  0.00  0.00    +0.000 A 
ENDROOT
BRANCH  17  20
ATOM     20  C   UNL     1      -6.815  13.922  21.220  0.00  0.00    +0.000 C 
ATOM     21  O   UNL     1      -7.541  13.250  21.961  0.00  0.00    +0.000 OA
ATOM     22  N   UNL     1      -6.137  15.011  21.714  0.00  0.00    +0.000 N 
ATOM     23  H   UNL     1      -5.610  15.639  21.116  0.00  0.00    +0.000 HD
BRANCH  22  24
ATOM     24  C   UNL     1      -6.283  15.363  23.132  0.00  0.00    +0.000 C 
ATOM     25  C   UNL     1      -6.337  16.883  23.314  0.00  0.00    +0.000 C 
ATOM     26  C   UNL     1      -4.970  17.509  23.042  0.00  0.00    +0.000 C 
ATOM     27  C   UNL     1      -3.855  16.813  23.828  0.00  0.00    +0.000 C 
ATOM     28  N   UNL     1      -3.852  15.361  23.624  0.00  0.00    +0.000 NA
ATOM     29  C   UNL     1      -5.152  14.788  23.999  0.00  0.00    +0.000 C 
ATOM     30  H   UNL     1      -3.133  14.947  24.220  0.00  0.00    +0.000 HD
ENDBRANCH  22  24
ENDBRANCH  17  20
BRANCH  13  31
ATOM     31  O   UNL     1      -4.773  11.071  16.170  0.00  0.00    +0.000 OA
ATOM     32  H   UNL     1      -3.911  10.806  15.776  0.00  0.00    +0.000 HD
ENDBRANCH  13  31
BRANCH  19  33
ATOM     33  O   UNL     1      -3.844  13.422  21.095  0.00  0.00    +0.000 OA
ATOM     34  H   UNL     1      -3.251  12.871  21.647  0.00  0.00    +0.000 HD
ENDBRANCH  19  33
TORSDOF 4
ENDMDL
