MODEL 1
REMARK VINA RESULT:      -8.5      0.000      0.000
REMARK  Name = 
REMARK  5 active torsions:
REMARK  status: ('A' for Active; 'I' for Inactive)
REMARK    1  A    between atoms: S_2  and  C_4
REMARK    2  A    between atoms: S_2  and  N_11
REMARK    3  A    between atoms: C_4  and  C_5
REMARK    4  A    between atoms: N_14  and  C_15
REMARK    5  A    between atoms: C_17  and  C_18
REMARK                            x       y       z     vdW  Elec       q    Type
REMARK                         _______ _______ _______ _____ _____    ______ ____
ROOT
ATOM      1  N   UNL     1       1.126   9.905  19.088  0.00  0.00    +0.000 NA
ATOM      2  C   UNL     1       1.534   9.276  20.382  0.00  0.00    +0.000 C 
ATOM      3  C   UNL     1       1.870   7.771  20.296  0.00  0.00    +0.000 C 
ATOM      4  N   UNL     1       2.750   7.309  19.132  0.00  0.00    +0.000 N 
ATOM      5  C   UNL     1       2.233   7.878  17.875  0.00  0.00    +0.000 C 
ATOM      6  C   UNL     1       2.047   9.443  17.990  0.00  0.00    +0.000 C 
ENDROOT
BRANCH   4   7
ATOM      7  C   UNL     1       3.195   5.969  19.318  0.00  0.00    +0.000 A 
ATOM      8  N   UNL     1       4.531   5.920  19.140  0.00  0.00    +0.000 NA
ATOM      9  C   UNL     1       5.115   4.759  18.886  0.00  0.00    +0.000 A 
ATOM     10  N   UNL     1       4.669   3.625  19.367  0.00  0.00    +0.000 NA
ATOM     11  C   UNL     1       3.367   3.551  19.399  0.00  0.00    +0.000 A 
ATOM     12  C   UNL     1       3.001   2.222  19.278  0.00  0.00    +0.000 A 
ATOM     13  C   UNL     1       1.687   1.836  19.147  0.00  0.00    +0.000 A 
ATOM     14  C   UNL     1       0.724   2.822  19.256  0.00  0.00    +0.000 A 
ATOM     15  C   UNL     1       1.094   4.204  19.375  0.00  0.00    +0.000 A 
ATOM     16  C   UNL     1       2.475   4.667  19.377  0.00  0.00    +0.000 A 
BRANCH   9  17
ATOM     17  C   UNL     1       5.547   4.658  17.476  0.00  0.00    +0.000 A 
ATOM     18  C   UNL     1       4.779   4.333  16.369  0.00  0.00    +0.000 A 
ATOM     19  C   UNL     1       5.524   4.351  15.162  0.00  0.00    +0.000 A 
ATOM     20  C   UNL     1       6.865   4.548  15.390  0.00  0.00    +0.000 A 
ATOM     21  S   UNL     1       7.214   4.739  17.045  0.00  0.00    +0.000 S 
ENDBRANCH   9  17
ENDBRANCH   4   7
BRANCH   1  23
ATOM     22  O   UNL     1      -1.216   9.435  19.929  0.00  0.00    +0.000 OA
ATOM     23  S   UNL     1      -0.549  10.082  18.805  0.00  0.00    +0.000 S 
ATOM     24  O   UNL     1      -0.771   9.611  17.446  0.00  0.00    +0.000 OA
BRANCH  23  25
ATOM     25  C   UNL     1      -0.881  11.880  18.904  0.00  0.00    +0.000 C 
BRANCH  25  26
ATOM     26  C   UNL     1      -2.361  12.135  19.181  0.00  0.00    +0.000 A 
ATOM     27  C   UNL     1      -3.368  11.646  18.330  0.00  0.00    +0.000 A 
ATOM     28  C   UNL     1      -4.725  11.880  18.605  0.00  0.00    +0.000 A 
ATOM     29  C   UNL     1      -5.106  12.605  19.731  0.00  0.00    +0.000 A 
ATOM     30  C   UNL     1      -4.127  13.084  20.593  0.00  0.00    +0.000 A 
ATOM     31  C   UNL     1      -2.771  12.847  20.324  0.00  0.00    +0.000 A 
ENDBRANCH  25  26
ENDBRANCH  23  25
ENDBRANCH   1  23
TORSDOF 5
ENDMDL
MODEL 2
REMARK VINA RESULT:      -8.5      1.743      3.637
REMARK  Name = 
REMARK  5 active torsions:
REMARK  status: ('A' for Active; 'I' for Inactive)
REMARK    1  A    between atoms: S_2  and  C_4
REMARK    2  A    between atoms: S_2  and  N_11
REMARK    3  A    between atoms: C_4  and  C_5
REMARK    4  A    between atoms: N_14  and  C_15
REMARK    5  A    between atoms: C_17  and  C_18
REMARK                            x       y       z     vdW  Elec       q    Type
REMARK                         _______ _______ _______ _____ _____    ______ ____
ROOT
ATOM      1  N   UNL     1       1.041  10.301  19.869  0.00  0.00    +0.000 NA
ATOM      2  C   UNL     1       1.530   9.110  20.628  0.00  0.00    +0.000 C 
ATOM      3  C   UNL     1       1.818   7.861  19.766  0.00  0.00    +0.000 C 
ATOM      4  N   UNL     1       2.592   8.067  18.463  0.00  0.00    +0.000 N 
ATOM      5  C   UNL     1       1.996   9.186  17.713  0.00  0.00    +0.000 C 
ATOM      6  C   UNL     1       1.862  10.474  18.619  0.00  0.00    +0.000 C 
ENDROOT
BRANCH   4   7
ATOM      7  C   UNL     1       3.014   6.824  17.908  0.00  0.00    +0.000 A 
ATOM      8  N   UNL     1       2.056   5.899  18.122  0.00  0.00    +0.000 NA
ATOM      9  C   UNL     1       2.360   4.613  18.046  0.00  0.00    +0.000 A 
ATOM     10  N   UNL     1       3.276   4.153  17.231  0.00  0.00    +0.000 NA
ATOM     11  C   UNL     1       4.315   4.935  17.120  0.00  0.00    +0.000 A 
ATOM     12  C   UNL     1       5.420   4.157  16.826  0.00  0.00    +0.000 A 
ATOM     13  C   UNL     1       6.690   4.682  16.778  0.00  0.00    +0.000 A 
ATOM     14  C   UNL     1       6.815   6.051  16.924  0.00  0.00    +0.000 A 
ATOM     15  C   UNL     1       5.675   6.866  17.237  0.00  0.00    +0.000 A 
ATOM     16  C   UNL     1       4.335   6.329  17.434  0.00  0.00    +0.000 A 
BRANCH   9  17
ATOM     17  C   UNL     1       2.402   3.977  19.380  0.00  0.00    +0.000 A 
ATOM     18  C   UNL     1       1.833   4.432  20.559  0.00  0.00    +0.000 A 
ATOM     19  C   UNL     1       2.057   3.552  21.649  0.00  0.00    +0.000 A 
ATOM     20  C   UNL     1       2.906   2.524  21.312  0.00  0.00    +0.000 A 
ATOM     21  S   UNL     1       3.403   2.608  19.686  0.00  0.00    +0.000 S 
ENDBRANCH   9  17
ENDBRANCH   4   7
BRANCH   1  23
ATOM     22  O   UNL     1      -0.965  11.200  21.126  0.00  0.00    +0.000 OA
ATOM     23  S   UNL     1      -0.645  10.572  19.849  0.00  0.00    +0.000 S 
ATOM     24  O   UNL     1      -1.245   9.297  19.484  0.00  0.00    +0.000 OA
BRANCH  23  25
ATOM     25  C   UNL     1      -0.934  11.800  18.522  0.00  0.00    +0.000 C 
BRANCH  25  26
ATOM     26  C   UNL     1      -2.335  11.634  17.937  0.00  0.00    +0.000 A 
ATOM     27  C   UNL     1      -2.538  11.175  16.623  0.00  0.00    +0.000 A 
ATOM     28  C   UNL     1      -3.833  11.017  16.103  0.00  0.00    +0.000 A 
ATOM     29  C   UNL     1      -4.950  11.312  16.879  0.00  0.00    +0.000 A 
ATOM     30  C   UNL     1      -4.772  11.753  18.186  0.00  0.00    +0.000 A 
ATOM     31  C   UNL     1      -3.480  11.906  18.709  0.00  0.00    +0.000 A 
ENDBRANCH  25  26
ENDBRANCH  23  25
ENDBRANCH   1  23
TORSDOF 5
ENDMDL
MODEL 3
REMARK VINA RESULT:      -8.5      0.976      1.542
REMARK  Name = 
REMARK  5 active torsions:
REMARK  status: ('A' for Active; 'I' for Inactive)
REMARK    1  A    between atoms: S_2  and  C_4
REMARK    2  A    between atoms: S_2  and  N_11
REMARK    3  A    between atoms: C_4  and  C_5
REMARK    4  A    between atoms: N_14  and  C_15
REMARK    5  A    between atoms: C_17  and  C_18
REMARK                            x       y       z     vdW  Elec       q    Type
REMARK                         _______ _______ _______ _____ _____    ______ ____
ROOT
ATOM      1  N   UNL     1       1.169   9.889  19.278  0.00  0.00    +0.000 NA
ATOM      2  C   UNL     1       1.528   9.199  20.555  0.00  0.00    +0.000 C 
ATOM      3  C   UNL     1       1.847   7.694  20.414  0.00  0.00    +0.000 C 
ATOM      4  N   UNL     1       2.756   7.271  19.259  0.00  0.00    +0.000 N 
ATOM      5  C   UNL     1       2.286   7.901  18.012  0.00  0.00    +0.000 C 
ATOM      6  C   UNL     1       2.117   9.462  18.190  0.00  0.00    +0.000 C 
ENDROOT
BRANCH   4   7
ATOM      7  C   UNL     1       3.177   5.917  19.399  0.00  0.00    +0.000 A 
ATOM      8  N   UNL     1       4.516   5.855  19.250  0.00  0.00    +0.000 NA
ATOM      9  C   UNL     1       5.089   4.696  18.962  0.00  0.00    +0.000 A 
ATOM     10  N   UNL     1       4.615   3.551  19.386  0.00  0.00    +0.000 NA
ATOM     11  C   UNL     1       3.311   3.495  19.385  0.00  0.00    +0.000 A 
ATOM     12  C   UNL     1       2.929   2.179  19.200  0.00  0.00    +0.000 A 
ATOM     13  C   UNL     1       1.614   1.818  19.024  0.00  0.00    +0.000 A 
ATOM     14  C   UNL     1       0.662   2.814  19.151  0.00  0.00    +0.000 A 
ATOM     15  C   UNL     1       1.049   4.184  19.335  0.00  0.00    +0.000 A 
ATOM     16  C   UNL     1       2.437   4.625  19.387  0.00  0.00    +0.000 A 
BRANCH   9  17
ATOM     17  C   UNL     1       5.553   4.646  17.559  0.00  0.00    +0.000 A 
ATOM     18  C   UNL     1       4.804   4.390  16.421  0.00  0.00    +0.000 A 
ATOM     19  C   UNL     1       5.578   4.442  15.234  0.00  0.00    +0.000 A 
ATOM     20  C   UNL     1       6.918   4.594  15.501  0.00  0.00    +0.000 A 
ATOM     21  S   UNL     1       7.231   4.703  17.172  0.00  0.00    +0.000 S 
ENDBRANCH   9  17
ENDBRANCH   4   7
BRANCH   1  23
ATOM     22  O   UNL     1      -1.204   9.387  20.005  0.00  0.00    +0.000 OA
ATOM     23  S   UNL     1      -0.493  10.103  18.952  0.00  0.00    +0.000 S 
ATOM     24  O   UNL     1      -0.673   9.730  17.557  0.00  0.00    +0.000 OA
BRANCH  23  25
ATOM     25  C   UNL     1      -0.814  11.893  19.166  0.00  0.00    +0.000 C 
BRANCH  25  26
ATOM     26  C   UNL     1      -1.430  12.166  20.536  0.00  0.00    +0.000 A 
ATOM     27  C   UNL     1      -0.666  12.106  21.715  0.00  0.00    +0.000 A 
ATOM     28  C   UNL     1      -1.245  12.370  22.967  0.00  0.00    +0.000 A 
ATOM     29  C   UNL     1      -2.593  12.699  23.070  0.00  0.00    +0.000 A 
ATOM     30  C   UNL     1      -3.363  12.778  21.915  0.00  0.00    +0.000 A 
ATOM     31  C   UNL     1      -2.786  12.520  20.663  0.00  0.00    +0.000 A 
ENDBRANCH  25  26
ENDBRANCH  23  25
ENDBRANCH   1  23
TORSDOF 5
ENDMDL
MODEL 4
REMARK VINA RESULT:      -8.2      1.566      2.481
REMARK  Name = 
REMARK  5 active torsions:
REMARK  status: ('A' for Active; 'I' for Inactive)
REMARK    1  A    between atoms: S_2  and  C_4
REMARK    2  A    between atoms: S_2  and  N_11
REMARK    3  A    between atoms: C_4  and  C_5
REMARK    4  A    between atoms: N_14  and  C_15
REMARK    5  A    between atoms: C_17  and  C_18
REMARK                            x       y       z     vdW  Elec       q    Type
REMARK                         _______ _______ _______ _____ _____    ______ ____
ROOT
ATOM      1  N   UNL     1       1.185   9.962  19.056  0.00  0.00    +0.000 NA
ATOM      2  C   UNL     1       1.511   9.309  20.361  0.00  0.00    +0.000 C 
ATOM      3  C   UNL     1       1.830   7.801  20.273  0.00  0.00    +0.000 C 
ATOM      4  N   UNL     1       2.766   7.342  19.152  0.00  0.00    +0.000 N 
ATOM      5  C   UNL     1       2.328   7.936  17.877  0.00  0.00    +0.000 C 
ATOM      6  C   UNL     1       2.158   9.502  18.004  0.00  0.00    +0.000 C 
ENDROOT
BRANCH   4   7
ATOM      7  C   UNL     1       3.181   5.993  19.342  0.00  0.00    +0.000 A 
ATOM      8  N   UNL     1       4.518   5.917  19.182  0.00  0.00    +0.000 NA
ATOM      9  C   UNL     1       5.081   4.744  18.934  0.00  0.00    +0.000 A 
ATOM     10  N   UNL     1       4.606   3.620  19.409  0.00  0.00    +0.000 NA
ATOM     11  C   UNL     1       3.302   3.572  19.424  0.00  0.00    +0.000 A 
ATOM     12  C   UNL     1       2.910   2.251  19.296  0.00  0.00    +0.000 A 
ATOM     13  C   UNL     1       1.591   1.892  19.149  0.00  0.00    +0.000 A 
ATOM     14  C   UNL     1       0.647   2.898  19.245  0.00  0.00    +0.000 A 
ATOM     15  C   UNL     1       1.043   4.271  19.371  0.00  0.00    +0.000 A 
ATOM     16  C   UNL     1       2.434   4.706  19.390  0.00  0.00    +0.000 A 
BRANCH   9  17
ATOM     17  C   UNL     1       5.530   4.635  17.530  0.00  0.00    +0.000 A 
ATOM     18  C   UNL     1       4.777   4.292  16.418  0.00  0.00    +0.000 A 
ATOM     19  C   UNL     1       5.534   4.307  15.219  0.00  0.00    +0.000 A 
ATOM     20  C   UNL     1       6.871   4.521  15.459  0.00  0.00    +0.000 A 
ATOM     21  S   UNL     1       7.200   4.730  17.117  0.00  0.00    +0.000 S 
ENDBRANCH   9  17
ENDBRANCH   4   7
BRANCH   1  23
ATOM     22  O   UNL     1      -1.201   9.811  19.894  0.00  0.00    +0.000 OA
ATOM     23  S   UNL     1      -0.469  10.169  18.683  0.00  0.00    +0.000 S 
ATOM     24  O   UNL     1      -0.689   9.435  17.445  0.00  0.00    +0.000 OA
BRANCH  23  25
ATOM     25  C   UNL     1      -0.692  11.962  18.394  0.00  0.00    +0.000 C 
BRANCH  25  26
ATOM     26  C   UNL     1       0.393  12.759  19.116  0.00  0.00    +0.000 A 
ATOM     27  C   UNL     1       1.497  13.295  18.430  0.00  0.00    +0.000 A 
ATOM     28  C   UNL     1       2.480  14.035  19.106  0.00  0.00    +0.000 A 
ATOM     29  C   UNL     1       2.384  14.256  20.477  0.00  0.00    +0.000 A 
ATOM     30  C   UNL     1       1.292  13.747  21.172  0.00  0.00    +0.000 A 
ATOM     31  C   UNL     1       0.306  13.013  20.497  0.00  0.00    +0.000 A 
ENDBRANCH  25  26
ENDBRANCH  23  25
ENDBRANCH   1  23
TORSDOF 5
ENDMDL
MODEL 5
REMARK VINA RESULT:      -8.2      2.105      3.926
REMARK  Name = 
REMARK  5 active torsions:
REMARK  status: ('A' for Active; 'I' for Inactive)
REMARK    1  A    between atoms: S_2  and  C_4
REMARK    2  A    between atoms: S_2  and  N_11
REMARK    3  A    between atoms: C_4  and  C_5
REMARK    4  A    between atoms: N_14  and  C_15
REMARK    5  A    between atoms: C_17  and  C_18
REMARK                            x       y       z     vdW  Elec       q    Type
REMARK                         _______ _______ _______ _____ _____    ______ ____
ROOT
ATOM      1  N   UNL     1       1.194  10.310  19.633  0.00  0.00    +0.000 NA
ATOM      2  C   UNL     1       1.557   9.090  20.417  0.00  0.00    +0.000 C 
ATOM      3  C   UNL     1       1.860   7.836  19.568  0.00  0.00    +0.000 C 
ATOM      4  N   UNL     1       2.755   8.015  18.340  0.00  0.00    +0.000 N 
ATOM      5  C   UNL     1       2.281   9.168  17.554  0.00  0.00    +0.000 C 
ATOM      6  C   UNL     1       2.129  10.454  18.461  0.00  0.00    +0.000 C 
ENDROOT
BRANCH   4   7
ATOM      7  C   UNL     1       3.165   6.759  17.808  0.00  0.00    +0.000 A 
ATOM      8  N   UNL     1       2.189   5.852  18.021  0.00  0.00    +0.000 NA
ATOM      9  C   UNL     1       2.473   4.560  17.966  0.00  0.00    +0.000 A 
ATOM     10  N   UNL     1       3.394   4.074  17.171  0.00  0.00    +0.000 NA
ATOM     11  C   UNL     1       4.446   4.838  17.066  0.00  0.00    +0.000 A 
ATOM     12  C   UNL     1       5.543   4.038  16.799  0.00  0.00    +0.000 A 
ATOM     13  C   UNL     1       6.822   4.542  16.763  0.00  0.00    +0.000 A 
ATOM     14  C   UNL     1       6.967   5.911  16.893  0.00  0.00    +0.000 A 
ATOM     15  C   UNL     1       5.836   6.748  17.177  0.00  0.00    +0.000 A 
ATOM     16  C   UNL     1       4.485   6.235  17.361  0.00  0.00    +0.000 A 
BRANCH   9  17
ATOM     17  C   UNL     1       2.485   3.942  19.310  0.00  0.00    +0.000 A 
ATOM     18  C   UNL     1       3.368   2.997  19.806  0.00  0.00    +0.000 A 
ATOM     19  C   UNL     1       3.091   2.643  21.152  0.00  0.00    +0.000 A 
ATOM     20  C   UNL     1       1.925   3.216  21.603  0.00  0.00    +0.000 A 
ATOM     21  S   UNL     1       1.191   4.196  20.419  0.00  0.00    +0.000 S 
ENDBRANCH   9  17
ENDBRANCH   4   7
BRANCH   1  23
ATOM     22  O   UNL     1      -0.549  12.088  19.171  0.00  0.00    +0.000 OA
ATOM     23  S   UNL     1      -0.469  10.662  19.469  0.00  0.00    +0.000 S 
ATOM     24  O   UNL     1      -1.106  10.121  20.661  0.00  0.00    +0.000 OA
BRANCH  23  25
ATOM     25  C   UNL     1      -1.028   9.739  17.990  0.00  0.00    +0.000 C 
BRANCH  25  26
ATOM     26  C   UNL     1      -2.313  10.349  17.433  0.00  0.00    +0.000 A 
ATOM     27  C   UNL     1      -3.292  10.906  18.275  0.00  0.00    +0.000 A 
ATOM     28  C   UNL     1      -4.463  11.473  17.747  0.00  0.00    +0.000 A 
ATOM     29  C   UNL     1      -4.682  11.498  16.372  0.00  0.00    +0.000 A 
ATOM     30  C   UNL     1      -3.719  10.966  15.522  0.00  0.00    +0.000 A 
ATOM     31  C   UNL     1      -2.546  10.404  16.047  0.00  0.00    +0.000 A 
ENDBRANCH  25  26
ENDBRANCH  23  25
ENDBRANCH   1  23
TORSDOF 5
ENDMDL
MODEL 6
REMARK VINA RESULT:      -8.2      1.953      3.785
REMARK  Name = 
REMARK  5 active torsions:
REMARK  status: ('A' for Active; 'I' for Inactive)
REMARK    1  A    between atoms: S_2  and  C_4
REMARK    2  A    between atoms: S_2  and  N_11
REMARK    3  A    between atoms: C_4  and  C_5
REMARK    4  A    between atoms: N_14  and  C_15
REMARK    5  A    between atoms: C_17  and  C_18
REMARK                            x       y       z     vdW  Elec       q    Type
REMARK                         _______ _______ _______ _____ _____    ______ ____
ROOT
ATOM      1  N   UNL     1       1.091  10.170  19.838  0.00  0.00    +0.000 NA
ATOM      2  C   UNL     1       1.617   8.992  20.595  0.00  0.00    +0.000 C 
ATOM      3  C   UNL     1       1.906   7.742  19.735  0.00  0.00    +0.000 C 
ATOM      4  N   UNL     1       2.647   7.952  18.412  0.00  0.00    +0.000 N 
ATOM      5  C   UNL     1       2.014   9.055  17.668  0.00  0.00    +0.000 C 
ATOM      6  C   UNL     1       1.879  10.348  18.569  0.00  0.00    +0.000 C 
ENDROOT
BRANCH   4   7
ATOM      7  C   UNL     1       3.076   6.713  17.856  0.00  0.00    +0.000 A 
ATOM      8  N   UNL     1       2.119   5.785  18.057  0.00  0.00    +0.000 NA
ATOM      9  C   UNL     1       2.427   4.499  17.978  0.00  0.00    +0.000 A 
ATOM     10  N   UNL     1       3.352   4.045  17.170  0.00  0.00    +0.000 NA
ATOM     11  C   UNL     1       4.390   4.830  17.074  0.00  0.00    +0.000 A 
ATOM     12  C   UNL     1       5.500   4.055  16.788  0.00  0.00    +0.000 A 
ATOM     13  C   UNL     1       6.769   4.583  16.755  0.00  0.00    +0.000 A 
ATOM     14  C   UNL     1       6.889   5.953  16.908  0.00  0.00    +0.000 A 
ATOM     15  C   UNL     1       5.744   6.763  17.213  0.00  0.00    +0.000 A 
ATOM     16  C   UNL     1       4.404   6.222  17.394  0.00  0.00    +0.000 A 
BRANCH   9  17
ATOM     17  C   UNL     1       2.456   3.858  19.310  0.00  0.00    +0.000 A 
ATOM     18  C   UNL     1       3.381   2.949  19.798  0.00  0.00    +0.000 A 
ATOM     19  C   UNL     1       3.109   2.556  21.134  0.00  0.00    +0.000 A 
ATOM     20  C   UNL     1       1.911   3.062  21.583  0.00  0.00    +0.000 A 
ATOM     21  S   UNL     1       1.140   4.025  20.410  0.00  0.00    +0.000 S 
ENDBRANCH   9  17
ENDBRANCH   4   7
BRANCH   1  23
ATOM     22  O   UNL     1      -1.103   9.642  20.988  0.00  0.00    +0.000 OA
ATOM     23  S   UNL     1      -0.600  10.411  19.856  0.00  0.00    +0.000 S 
ATOM     24  O   UNL     1      -1.055  10.118  18.505  0.00  0.00    +0.000 OA
BRANCH  23  25
ATOM     25  C   UNL     1      -0.843  12.188  20.223  0.00  0.00    +0.000 C 
BRANCH  25  26
ATOM     26  C   UNL     1      -2.045  12.384  21.145  0.00  0.00    +0.000 A 
ATOM     27  C   UNL     1      -1.917  12.352  22.545  0.00  0.00    +0.000 A 
ATOM     28  C   UNL     1      -3.030  12.544  23.379  0.00  0.00    +0.000 A 
ATOM     29  C   UNL     1      -4.292  12.773  22.837  0.00  0.00    +0.000 A 
ATOM     30  C   UNL     1      -4.438  12.823  21.455  0.00  0.00    +0.000 A 
ATOM     31  C   UNL     1      -3.326  12.637  20.620  0.00  0.00    +0.000 A 
ENDBRANCH  25  26
ENDBRANCH  23  25
ENDBRANCH   1  23
TORSDOF 5
ENDMDL
MODEL 7
REMARK VINA RESULT:      -8.2      1.558      1.983
REMARK  Name = 
REMARK  5 active torsions:
REMARK  status: ('A' for Active; 'I' for Inactive)
REMARK    1  A    between atoms: S_2  and  C_4
REMARK    2  A    between atoms: S_2  and  N_11
REMARK    3  A    between atoms: C_4  and  C_5
REMARK    4  A    between atoms: N_14  and  C_15
REMARK    5  A    between atoms: C_17  and  C_18
REMARK                            x       y       z     vdW  Elec       q    Type
REMARK                         _______ _______ _______ _____ _____    ______ ____
ROOT
ATOM      1  N   UNL     1       0.661  10.328  18.967  0.00  0.00    +0.000 NA
ATOM      2  C   UNL     1       1.046   9.398  17.862  0.00  0.00    +0.000 C 
ATOM      3  C   UNL     1       2.010   8.263  18.272  0.00  0.00    +0.000 C 
ATOM      4  N   UNL     1       1.707   7.514  19.571  0.00  0.00    +0.000 N 
ATOM      5  C   UNL     1       1.440   8.488  20.644  0.00  0.00    +0.000 C 
ATOM      6  C   UNL     1       0.340   9.536  20.206  0.00  0.00    +0.000 C 
ENDROOT
BRANCH   4   7
ATOM      7  C   UNL     1       2.505   6.341  19.692  0.00  0.00    +0.000 A 
ATOM      8  N   UNL     1       3.780   6.642  19.373  0.00  0.00    +0.000 NA
ATOM      9  C   UNL     1       4.619   5.670  19.045  0.00  0.00    +0.000 A 
ATOM     10  N   UNL     1       4.539   4.468  19.558  0.00  0.00    +0.000 NA
ATOM     11  C   UNL     1       3.313   4.054  19.726  0.00  0.00    +0.000 A 
ATOM     12  C   UNL     1       3.299   2.675  19.628  0.00  0.00    +0.000 A 
ATOM     13  C   UNL     1       2.127   1.955  19.633  0.00  0.00    +0.000 A 
ATOM     14  C   UNL     1       0.955   2.655  19.854  0.00  0.00    +0.000 A 
ATOM     15  C   UNL     1       0.959   4.088  19.950  0.00  0.00    +0.000 A 
ATOM     16  C   UNL     1       2.163   4.897  19.811  0.00  0.00    +0.000 A 
BRANCH   9  17
ATOM     17  C   UNL     1       4.912   5.663  17.596  0.00  0.00    +0.000 A 
ATOM     18  C   UNL     1       4.778   6.706  16.693  0.00  0.00    +0.000 A 
ATOM     19  C   UNL     1       5.173   6.347  15.379  0.00  0.00    +0.000 A 
ATOM     20  C   UNL     1       5.463   5.006  15.280  0.00  0.00    +0.000 A 
ATOM     21  S   UNL     1       5.287   4.199  16.769  0.00  0.00    +0.000 S 
ENDBRANCH   9  17
ENDBRANCH   4   7
BRANCH   1  23
ATOM     22  O   UNL     1       2.628  11.690  18.137  0.00  0.00    +0.000 OA
ATOM     23  S   UNL     1       1.516  11.803  19.074  0.00  0.00    +0.000 S 
ATOM     24  O   UNL     1       1.766  12.013  20.492  0.00  0.00    +0.000 OA
BRANCH  23  25
ATOM     25  C   UNL     1       0.371  13.086  18.445  0.00  0.00    +0.000 C 
BRANCH  25  26
ATOM     26  C   UNL     1      -1.080  12.661  18.664  0.00  0.00    +0.000 A 
ATOM     27  C   UNL     1      -1.787  11.923  17.699  0.00  0.00    +0.000 A 
ATOM     28  C   UNL     1      -3.118  11.530  17.920  0.00  0.00    +0.000 A 
ATOM     29  C   UNL     1      -3.769  11.864  19.104  0.00  0.00    +0.000 A 
ATOM     30  C   UNL     1      -3.082  12.581  20.077  0.00  0.00    +0.000 A 
ATOM     31  C   UNL     1      -1.751  12.969  19.862  0.00  0.00    +0.000 A 
ENDBRANCH  25  26
ENDBRANCH  23  25
ENDBRANCH   1  23
TORSDOF 5
ENDMDL
MODEL 8
REMARK VINA RESULT:      -8.1      0.602      1.155
REMARK  Name = 
REMARK  5 active torsions:
REMARK  status: ('A' for Active; 'I' for Inactive)
REMARK    1  A    between atoms: S_2  and  C_4
REMARK    2  A    between atoms: S_2  and  N_11
REMARK    3  A    between atoms: C_4  and  C_5
REMARK    4  A    between atoms: N_14  and  C_15
REMARK    5  A    between atoms: C_17  and  C_18
REMARK                            x       y       z     vdW  Elec       q    Type
REMARK                         _______ _______ _______ _____ _____    ______ ____
ROOT
ATOM      1  N   UNL     1       1.228   9.803  19.088  0.00  0.00    +0.000 NA
ATOM      2  C   UNL     1       1.596   9.169  20.390  0.00  0.00    +0.000 C 
ATOM      3  C   UNL     1       1.922   7.661  20.311  0.00  0.00    +0.000 C 
ATOM      4  N   UNL     1       2.829   7.195  19.170  0.00  0.00    +0.000 N 
ATOM      5  C   UNL     1       2.351   7.771  17.900  0.00  0.00    +0.000 C 
ATOM      6  C   UNL     1       2.174   9.337  18.014  0.00  0.00    +0.000 C 
ENDROOT
BRANCH   4   7
ATOM      7  C   UNL     1       3.258   5.851  19.364  0.00  0.00    +0.000 A 
ATOM      8  N   UNL     1       4.605   5.805  19.304  0.00  0.00    +0.000 NA
ATOM      9  C   UNL     1       5.211   4.650  19.077  0.00  0.00    +0.000 A 
ATOM     10  N   UNL     1       4.726   3.506  19.491  0.00  0.00    +0.000 NA
ATOM     11  C   UNL     1       3.426   3.431  19.406  0.00  0.00    +0.000 A 
ATOM     12  C   UNL     1       3.075   2.106  19.223  0.00  0.00    +0.000 A 
ATOM     13  C   UNL     1       1.778   1.723  18.968  0.00  0.00    +0.000 A 
ATOM     14  C   UNL     1       0.807   2.707  19.013  0.00  0.00    +0.000 A 
ATOM     15  C   UNL     1       1.163   4.085  19.195  0.00  0.00    +0.000 A 
ATOM     16  C   UNL     1       2.538   4.548  19.329  0.00  0.00    +0.000 A 
BRANCH   9  17
ATOM     17  C   UNL     1       5.767   4.580  17.708  0.00  0.00    +0.000 A 
ATOM     18  C   UNL     1       7.057   4.872  17.296  0.00  0.00    +0.000 A 
ATOM     19  C   UNL     1       7.245   4.673  15.904  0.00  0.00    +0.000 A 
ATOM     20  C   UNL     1       6.065   4.374  15.265  0.00  0.00    +0.000 A 
ATOM     21  S   UNL     1       4.750   4.304  16.345  0.00  0.00    +0.000 S 
ENDBRANCH   9  17
ENDBRANCH   4   7
BRANCH   1  23
ATOM     22  O   UNL     1      -1.139   9.381  19.882  0.00  0.00    +0.000 OA
ATOM     23  S   UNL     1      -0.437   9.995  18.760  0.00  0.00    +0.000 S 
ATOM     24  O   UNL     1      -0.633   9.497  17.407  0.00  0.00    +0.000 OA
BRANCH  23  25
ATOM     25  C   UNL     1      -0.749  11.798  18.813  0.00  0.00    +0.000 C 
BRANCH  25  26
ATOM     26  C   UNL     1      -2.206  12.079  19.174  0.00  0.00    +0.000 A 
ATOM     27  C   UNL     1      -2.555  12.822  20.316  0.00  0.00    +0.000 A 
ATOM     28  C   UNL     1      -3.899  13.080  20.629  0.00  0.00    +0.000 A 
ATOM     29  C   UNL     1      -4.921  12.605  19.813  0.00  0.00    +0.000 A 
ATOM     30  C   UNL     1      -4.597  11.881  18.671  0.00  0.00    +0.000 A 
ATOM     31  C   UNL     1      -3.255  11.626  18.353  0.00  0.00    +0.000 A 
ENDBRANCH  25  26
ENDBRANCH  23  25
ENDBRANCH   1  23
TORSDOF 5
ENDMDL
MODEL 9
REMARK VINA RESULT:      -8.1      1.758      3.641
REMARK  Name = 
REMARK  5 active torsions:
REMARK  status: ('A' for Active; 'I' for Inactive)
REMARK    1  A    between atoms: S_2  and  C_4
REMARK    2  A    between atoms: S_2  and  N_11
REMARK    3  A    between atoms: C_4  and  C_5
REMARK    4  A    between atoms: N_14  and  C_15
REMARK    5  A    between atoms: C_17  and  C_18
REMARK                            x       y       z     vdW  Elec       q    Type
REMARK                         _______ _______ _______ _____ _____    ______ ____
ROOT
ATOM      1  N   UNL     1       1.052  10.254  19.735  0.00  0.00    +0.000 NA
ATOM      2  C   UNL     1       1.576   9.091  20.515  0.00  0.00    +0.000 C 
ATOM      3  C   UNL     1       1.873   7.827  19.678  0.00  0.00    +0.000 C 
ATOM      4  N   UNL     1       2.622   8.016  18.356  0.00  0.00    +0.000 N 
ATOM      5  C   UNL     1       1.991   9.105  17.590  0.00  0.00    +0.000 C 
ATOM      6  C   UNL     1       1.848  10.412  18.467  0.00  0.00    +0.000 C 
ENDROOT
BRANCH   4   7
ATOM      7  C   UNL     1       3.057   6.768  17.824  0.00  0.00    +0.000 A 
ATOM      8  N   UNL     1       2.078   5.855  17.986  0.00  0.00    +0.000 NA
ATOM      9  C   UNL     1       2.370   4.565  17.925  0.00  0.00    +0.000 A 
ATOM     10  N   UNL     1       3.323   4.094  17.160  0.00  0.00    +0.000 NA
ATOM     11  C   UNL     1       4.376   4.863  17.107  0.00  0.00    +0.000 A 
ATOM     12  C   UNL     1       5.486   4.072  16.873  0.00  0.00    +0.000 A 
ATOM     13  C   UNL     1       6.763   4.581  16.893  0.00  0.00    +0.000 A 
ATOM     14  C   UNL     1       6.896   5.949  17.047  0.00  0.00    +0.000 A 
ATOM     15  C   UNL     1       5.751   6.777  17.298  0.00  0.00    +0.000 A 
ATOM     16  C   UNL     1       4.396   6.257  17.422  0.00  0.00    +0.000 A 
BRANCH   9  17
ATOM     17  C   UNL     1       2.332   3.929  19.259  0.00  0.00    +0.000 A 
ATOM     18  C   UNL     1       1.402   4.120  20.269  0.00  0.00    +0.000 A 
ATOM     19  C   UNL     1       1.666   3.324  21.413  0.00  0.00    +0.000 A 
ATOM     20  C   UNL     1       2.862   2.655  21.307  0.00  0.00    +0.000 A 
ATOM     21  S   UNL     1       3.643   2.964  19.826  0.00  0.00    +0.000 S 
ENDBRANCH   9  17
ENDBRANCH   4   7
BRANCH   1  23
ATOM     22  O   UNL     1      -1.146   9.749  20.887  0.00  0.00    +0.000 OA
ATOM     23  S   UNL     1      -0.639  10.492  19.739  0.00  0.00    +0.000 S 
ATOM     24  O   UNL     1      -1.086  10.166  18.393  0.00  0.00    +0.000 OA
BRANCH  23  25
ATOM     25  C   UNL     1      -0.887  12.277  20.062  0.00  0.00    +0.000 C 
BRANCH  25  26
ATOM     26  C   UNL     1      -2.048  12.488  21.032  0.00  0.00    +0.000 A 
ATOM     27  C   UNL     1      -3.364  12.686  20.579  0.00  0.00    +0.000 A 
ATOM     28  C   UNL     1      -4.423  12.868  21.484  0.00  0.00    +0.000 A 
ATOM     29  C   UNL     1      -4.193  12.855  22.856  0.00  0.00    +0.000 A 
ATOM     30  C   UNL     1      -2.901  12.645  23.326  0.00  0.00    +0.000 A 
ATOM     31  C   UNL     1      -1.843  12.458  22.424  0.00  0.00    +0.000 A 
ENDBRANCH  25  26
ENDBRANCH  23  25
ENDBRANCH   1  23
TORSDOF 5
ENDMDL
