MODEL 1
REMARK VINA RESULT:      -7.6      0.000      0.000
REMARK  Name = 
REMARK  8 active torsions:
REMARK  status: ('A' for Active; 'I' for Inactive)
REMARK    1  A    between atoms: C_1  and  O_2
REMARK    2  A    between atoms: O_2  and  C_3
REMARK    3  A    between atoms: C_3  and  C_5
REMARK    4  A    between atoms: C_5  and  N_6
REMARK    5  A    between atoms: C_5  and  C_17
REMARK    6  A    between atoms: N_6  and  S_7
REMARK    7  A    between atoms: S_7  and  C_10
REMARK    8  A    between atoms: C_13  and  C_14
REMARK                            x       y       z     vdW  Elec       q    Type
REMARK                         _______ _______ _______ _____ _____    ______ ____
ROOT
ATOM      1  N   UNL     1       4.288   4.460  16.369  0.00  0.00    +0.000 NA
ATOM      2  H   UNL     1       3.845   4.272  15.466  0.00  0.00    +0.000 HD
ENDROOT
BRANCH   1   3
ATOM      3  S   UNL     1       3.407   3.697  17.589  0.00  0.00    +0.000 S 
ATOM      4  O   UNL     1       2.222   3.171  16.952  0.00  0.00    +0.000 OA
ATOM      5  O   UNL     1       4.289   2.851  18.364  0.00  0.00    +0.000 OA
BRANCH   3   6
ATOM      6  C   UNL     1       2.908   5.038  18.638  0.00  0.00    +0.000 A 
ATOM      7  C   UNL     1       3.018   6.353  18.183  0.00  0.00    +0.000 A 
ATOM      8  C   UNL     1       2.512   7.395  18.964  0.00  0.00    +0.000 A 
ATOM      9  C   UNL     1       1.888   7.129  20.189  0.00  0.00    +0.000 A 
ATOM     10  C   UNL     1       1.322   8.238  21.028  0.00  0.00    +0.000 C 
ATOM     11  C   UNL     1       1.774   5.803  20.628  0.00  0.00    +0.000 A 
ATOM     12  C   UNL     1       2.277   4.758  19.853  0.00  0.00    +0.000 A 
ENDBRANCH   3   6
ENDBRANCH   1   3
BRANCH   1  13
ATOM     13  C   UNL     1       5.760   4.278  16.385  0.00  0.00    +0.000 C 
BRANCH  13  14
ATOM     14  C   UNL     1       6.462   5.331  17.239  0.00  0.00    +0.000 A 
ATOM     15  C   UNL     1       6.495   6.678  16.832  0.00  0.00    +0.000 A 
ATOM     16  C   UNL     1       7.291   7.608  17.501  0.00  0.00    +0.000 A 
ATOM     17  C   UNL     1       8.048   7.213  18.601  0.00  0.00    +0.000 A 
ATOM     18  C   UNL     1       7.986   5.895  19.049  0.00  0.00    +0.000 A 
ATOM     19  C   UNL     1       7.196   4.958  18.376  0.00  0.00    +0.000 A 
ENDBRANCH  13  14
BRANCH  13  20
ATOM     20  C   UNL     1       6.351   4.342  14.961  0.00  0.00    +0.000 C 
ATOM     21  O   UNL     1       7.533   4.553  14.719  0.00  0.00    +0.000 OA
BRANCH  20  23
ATOM     22  C   UNL     1       5.910   3.555  12.816  0.00  0.00    +0.000 C 
ATOM     23  O   UNL     1       5.386   4.081  14.033  0.00  0.00    +0.000 OA
ENDBRANCH  20  23
ENDBRANCH  13  20
ENDBRANCH   1  13
TORSDOF 6
ENDMDL
MODEL 2
REMARK VINA RESULT:      -7.5      0.220      1.056
REMARK  Name = 
REMARK  8 active torsions:
REMARK  status: ('A' for Active; 'I' for Inactive)
REMARK    1  A    between atoms: C_1  and  O_2
REMARK    2  A    between atoms: O_2  and  C_3
REMARK    3  A    between atoms: C_3  and  C_5
REMARK    4  A    between atoms: C_5  and  N_6
REMARK    5  A    between atoms: C_5  and  C_17
REMARK    6  A    between atoms: N_6  and  S_7
REMARK    7  A    between atoms: S_7  and  C_10
REMARK    8  A    between atoms: C_13  and  C_14
REMARK                            x       y       z     vdW  Elec       q    Type
REMARK                         _______ _______ _______ _____ _____    ______ ____
ROOT
ATOM      1  N   UNL     1       4.381   4.706  16.453  0.00  0.00    +0.000 NA
ATOM      2  H   UNL     1       3.970   4.626  15.520  0.00  0.00    +0.000 HD
ENDROOT
BRANCH   1   3
ATOM      3  S   UNL     1       3.425   3.860  17.556  0.00  0.00    +0.000 S 
ATOM      4  O   UNL     1       2.363   3.260  16.782  0.00  0.00    +0.000 OA
ATOM      5  O   UNL     1       4.273   3.068  18.420  0.00  0.00    +0.000 OA
BRANCH   3   6
ATOM      6  C   UNL     1       2.711   5.143  18.551  0.00  0.00    +0.000 A 
ATOM      7  C   UNL     1       2.159   4.831  19.795  0.00  0.00    +0.000 A 
ATOM      8  C   UNL     1       1.708   5.861  20.625  0.00  0.00    +0.000 A 
ATOM      9  C   UNL     1       1.816   7.198  20.224  0.00  0.00    +0.000 A 
ATOM     10  C   UNL     1       1.355   8.314  21.115  0.00  0.00    +0.000 C 
ATOM     11  C   UNL     1       2.383   7.498  18.978  0.00  0.00    +0.000 A 
ATOM     12  C   UNL     1       2.836   6.474  18.144  0.00  0.00    +0.000 A 
ENDBRANCH   3   6
ENDBRANCH   1   3
BRANCH   1  13
ATOM     13  C   UNL     1       5.844   4.466  16.505  0.00  0.00    +0.000 C 
BRANCH  13  14
ATOM     14  C   UNL     1       6.574   5.532  17.319  0.00  0.00    +0.000 A 
ATOM     15  C   UNL     1       6.587   6.874  16.894  0.00  0.00    +0.000 A 
ATOM     16  C   UNL     1       7.405   7.815  17.521  0.00  0.00    +0.000 A 
ATOM     17  C   UNL     1       8.204   7.436  18.596  0.00  0.00    +0.000 A 
ATOM     18  C   UNL     1       8.165   6.124  19.062  0.00  0.00    +0.000 A 
ATOM     19  C   UNL     1       7.352   5.176  18.432  0.00  0.00    +0.000 A 
ENDBRANCH  13  14
BRANCH  13  20
ATOM     20  C   UNL     1       6.461   4.435  15.091  0.00  0.00    +0.000 C 
ATOM     21  O   UNL     1       7.631   4.707  14.848  0.00  0.00    +0.000 OA
BRANCH  20  23
ATOM     22  C   UNL     1       6.113   3.674  12.920  0.00  0.00    +0.000 C 
ATOM     23  O   UNL     1       5.537   4.018  14.178  0.00  0.00    +0.000 OA
ENDBRANCH  20  23
ENDBRANCH  13  20
ENDBRANCH   1  13
TORSDOF 6
ENDMDL
MODEL 3
REMARK VINA RESULT:      -7.4      0.273      1.063
REMARK  Name = 
REMARK  8 active torsions:
REMARK  status: ('A' for Active; 'I' for Inactive)
REMARK    1  A    between atoms: C_1  and  O_2
REMARK    2  A    between atoms: O_2  and  C_3
REMARK    3  A    between atoms: C_3  and  C_5
REMARK    4  A    between atoms: C_5  and  N_6
REMARK    5  A    between atoms: C_5  and  C_17
REMARK    6  A    between atoms: N_6  and  S_7
REMARK    7  A    between atoms: S_7  and  C_10
REMARK    8  A    between atoms: C_13  and  C_14
REMARK                            x       y       z     vdW  Elec       q    Type
REMARK                         _______ _______ _______ _____ _____    ______ ____
ROOT
ATOM      1  N   UNL     1       4.494   4.598  16.228  0.00  0.00    +0.000 NA
ATOM      2  H   UNL     1       3.997   4.541  15.335  0.00  0.00    +0.000 HD
ENDROOT
BRANCH   1   3
ATOM      3  S   UNL     1       3.603   3.794  17.413  0.00  0.00    +0.000 S 
ATOM      4  O   UNL     1       2.439   3.264  16.742  0.00  0.00    +0.000 OA
ATOM      5  O   UNL     1       4.483   2.946  18.186  0.00  0.00    +0.000 OA
BRANCH   3   6
ATOM      6  C   UNL     1       3.062   5.104  18.481  0.00  0.00    +0.000 A 
ATOM      7  C   UNL     1       3.136   6.428  18.046  0.00  0.00    +0.000 A 
ATOM      8  C   UNL     1       2.597   7.443  18.842  0.00  0.00    +0.000 A 
ATOM      9  C   UNL     1       1.977   7.140  20.060  0.00  0.00    +0.000 A 
ATOM     10  C   UNL     1       1.376   8.219  20.914  0.00  0.00    +0.000 C 
ATOM     11  C   UNL     1       1.899   5.805  20.478  0.00  0.00    +0.000 A 
ATOM     12  C   UNL     1       2.435   4.786  19.688  0.00  0.00    +0.000 A 
ENDBRANCH   3   6
ENDBRANCH   1   3
BRANCH   1  13
ATOM     13  C   UNL     1       5.943   4.287  16.147  0.00  0.00    +0.000 C 
BRANCH  13  14
ATOM     14  C   UNL     1       6.785   5.243  16.989  0.00  0.00    +0.000 A 
ATOM     15  C   UNL     1       7.462   4.784  18.133  0.00  0.00    +0.000 A 
ATOM     16  C   UNL     1       8.072   5.680  19.011  0.00  0.00    +0.000 A 
ATOM     17  C   UNL     1       8.036   7.046  18.748  0.00  0.00    +0.000 A 
ATOM     18  C   UNL     1       7.415   7.514  17.592  0.00  0.00    +0.000 A 
ATOM     19  C   UNL     1       6.795   6.620  16.714  0.00  0.00    +0.000 A 
ENDBRANCH  13  14
BRANCH  13  20
ATOM     20  C   UNL     1       6.453   4.352  14.692  0.00  0.00    +0.000 C 
ATOM     21  O   UNL     1       7.582   4.709  14.377  0.00  0.00    +0.000 OA
BRANCH  20  23
ATOM     22  C   UNL     1       6.021   3.462  12.586  0.00  0.00    +0.000 C 
ATOM     23  O   UNL     1       5.491   3.912  13.831  0.00  0.00    +0.000 OA
ENDBRANCH  20  23
ENDBRANCH  13  20
ENDBRANCH   1  13
TORSDOF 6
ENDMDL
MODEL 4
REMARK VINA RESULT:      -7.3      2.471      6.528
REMARK  Name = 
REMARK  8 active torsions:
REMARK  status: ('A' for Active; 'I' for Inactive)
REMARK    1  A    between atoms: C_1  and  O_2
REMARK    2  A    between atoms: O_2  and  C_3
REMARK    3  A    between atoms: C_3  and  C_5
REMARK    4  A    between atoms: C_5  and  N_6
REMARK    5  A    between atoms: C_5  and  C_17
REMARK    6  A    between atoms: N_6  and  S_7
REMARK    7  A    between atoms: S_7  and  C_10
REMARK    8  A    between atoms: C_13  and  C_14
REMARK                            x       y       z     vdW  Elec       q    Type
REMARK                         _______ _______ _______ _____ _____    ______ ____
ROOT
ATOM      1  N   UNL     1       4.282   6.175  18.121  0.00  0.00    +0.000 NA
ATOM      2  H   UNL     1       4.425   7.101  17.710  0.00  0.00    +0.000 HD
ENDROOT
BRANCH   1   3
ATOM      3  S   UNL     1       5.765   5.376  18.218  0.00  0.00    +0.000 S 
ATOM      4  O   UNL     1       6.751   6.401  18.470  0.00  0.00    +0.000 OA
ATOM      5  O   UNL     1       5.635   4.222  19.080  0.00  0.00    +0.000 OA
BRANCH   3   6
ATOM      6  C   UNL     1       6.018   4.775  16.568  0.00  0.00    +0.000 A 
ATOM      7  C   UNL     1       5.026   4.015  15.946  0.00  0.00    +0.000 A 
ATOM      8  C   UNL     1       5.180   3.648  14.607  0.00  0.00    +0.000 A 
ATOM      9  C   UNL     1       6.312   4.046  13.884  0.00  0.00    +0.000 A 
ATOM     10  C   UNL     1       6.478   3.676  12.439  0.00  0.00    +0.000 C 
ATOM     11  C   UNL     1       7.294   4.820  14.517  0.00  0.00    +0.000 A 
ATOM     12  C   UNL     1       7.146   5.190  15.855  0.00  0.00    +0.000 A 
ENDBRANCH   3   6
ENDBRANCH   1   3
BRANCH   1  13
ATOM     13  C   UNL     1       3.429   6.163  19.334  0.00  0.00    +0.000 C 
BRANCH  13  14
ATOM     14  C   UNL     1       2.582   4.896  19.430  0.00  0.00    +0.000 A 
ATOM     15  C   UNL     1       2.074   4.284  18.269  0.00  0.00    +0.000 A 
ATOM     16  C   UNL     1       1.148   3.244  18.356  0.00  0.00    +0.000 A 
ATOM     17  C   UNL     1       0.732   2.784  19.603  0.00  0.00    +0.000 A 
ATOM     18  C   UNL     1       1.265   3.344  20.762  0.00  0.00    +0.000 A 
ATOM     19  C   UNL     1       2.187   4.391  20.679  0.00  0.00    +0.000 A 
ENDBRANCH  13  14
BRANCH  13  20
ATOM     20  C   UNL     1       2.479   7.378  19.367  0.00  0.00    +0.000 C 
ATOM     21  O   UNL     1       1.731   7.639  20.303  0.00  0.00    +0.000 OA
BRANCH  20  23
ATOM     22  C   UNL     1       1.555   9.041  18.027  0.00  0.00    +0.000 C 
ATOM     23  O   UNL     1       2.633   8.133  18.242  0.00  0.00    +0.000 OA
ENDBRANCH  20  23
ENDBRANCH  13  20
ENDBRANCH   1  13
TORSDOF 6
ENDMDL
MODEL 5
REMARK VINA RESULT:      -7.3      2.453      6.594
REMARK  Name = 
REMARK  8 active torsions:
REMARK  status: ('A' for Active; 'I' for Inactive)
REMARK    1  A    between atoms: C_1  and  O_2
REMARK    2  A    between atoms: O_2  and  C_3
REMARK    3  A    between atoms: C_3  and  C_5
REMARK    4  A    between atoms: C_5  and  N_6
REMARK    5  A    between atoms: C_5  and  C_17
REMARK    6  A    between atoms: N_6  and  S_7
REMARK    7  A    between atoms: S_7  and  C_10
REMARK    8  A    between atoms: C_13  and  C_14
REMARK                            x       y       z     vdW  Elec       q    Type
REMARK                         _______ _______ _______ _____ _____    ______ ____
ROOT
ATOM      1  N   UNL     1       4.046   5.907  18.011  0.00  0.00    +0.000 NA
ATOM      2  H   UNL     1       4.046   6.718  17.388  0.00  0.00    +0.000 HD
ENDROOT
BRANCH   1   3
ATOM      3  S   UNL     1       5.610   5.283  18.111  0.00  0.00    +0.000 S 
ATOM      4  O   UNL     1       6.471   6.412  18.377  0.00  0.00    +0.000 OA
ATOM      5  O   UNL     1       5.610   4.114  18.963  0.00  0.00    +0.000 OA
BRANCH   3   6
ATOM      6  C   UNL     1       5.939   4.730  16.458  0.00  0.00    +0.000 A 
ATOM      7  C   UNL     1       4.985   3.971  15.777  0.00  0.00    +0.000 A 
ATOM      8  C   UNL     1       5.199   3.642  14.436  0.00  0.00    +0.000 A 
ATOM      9  C   UNL     1       6.353   4.075  13.771  0.00  0.00    +0.000 A 
ATOM     10  C   UNL     1       6.583   3.746  12.325  0.00  0.00    +0.000 C 
ATOM     11  C   UNL     1       7.296   4.846  14.463  0.00  0.00    +0.000 A 
ATOM     12  C   UNL     1       7.089   5.179  15.803  0.00  0.00    +0.000 A 
ENDBRANCH   3   6
ENDBRANCH   1   3
BRANCH   1  13
ATOM     13  C   UNL     1       3.318   6.111  19.288  0.00  0.00    +0.000 C 
BRANCH  13  14
ATOM     14  C   UNL     1       2.392   4.941  19.616  0.00  0.00    +0.000 A 
ATOM     15  C   UNL     1       2.256   4.486  20.941  0.00  0.00    +0.000 A 
ATOM     16  C   UNL     1       1.567   3.306  21.224  0.00  0.00    +0.000 A 
ATOM     17  C   UNL     1       0.984   2.575  20.191  0.00  0.00    +0.000 A 
ATOM     18  C   UNL     1       1.065   3.040  18.880  0.00  0.00    +0.000 A 
ATOM     19  C   UNL     1       1.762   4.218  18.592  0.00  0.00    +0.000 A 
ENDBRANCH  13  14
BRANCH  13  20
ATOM     20  C   UNL     1       2.471   7.399  19.254  0.00  0.00    +0.000 C 
ATOM     21  O   UNL     1       1.801   7.804  20.197  0.00  0.00    +0.000 OA
BRANCH  20  23
ATOM     22  C   UNL     1       1.740   9.147  17.903  0.00  0.00    +0.000 C 
ATOM     23  O   UNL     1       2.619   8.035  18.056  0.00  0.00    +0.000 OA
ENDBRANCH  20  23
ENDBRANCH  13  20
ENDBRANCH   1  13
TORSDOF 6
ENDMDL
MODEL 6
REMARK VINA RESULT:      -7.2      0.236      1.476
REMARK  Name = 
REMARK  8 active torsions:
REMARK  status: ('A' for Active; 'I' for Inactive)
REMARK    1  A    between atoms: C_1  and  O_2
REMARK    2  A    between atoms: O_2  and  C_3
REMARK    3  A    between atoms: C_3  and  C_5
REMARK    4  A    between atoms: C_5  and  N_6
REMARK    5  A    between atoms: C_5  and  C_17
REMARK    6  A    between atoms: N_6  and  S_7
REMARK    7  A    between atoms: S_7  and  C_10
REMARK    8  A    between atoms: C_13  and  C_14
REMARK                            x       y       z     vdW  Elec       q    Type
REMARK                         _______ _______ _______ _____ _____    ______ ____
ROOT
ATOM      1  N   UNL     1       4.361   4.519  16.298  0.00  0.00    +0.000 NA
ATOM      2  H   UNL     1       3.846   4.473  15.415  0.00  0.00    +0.000 HD
ENDROOT
BRANCH   1   3
ATOM      3  S   UNL     1       3.489   3.709  17.493  0.00  0.00    +0.000 S 
ATOM      4  O   UNL     1       2.400   3.049  16.810  0.00  0.00    +0.000 OA
ATOM      5  O   UNL     1       4.401   2.979  18.345  0.00  0.00    +0.000 OA
BRANCH   3   6
ATOM      6  C   UNL     1       2.800   5.025  18.463  0.00  0.00    +0.000 A 
ATOM      7  C   UNL     1       2.263   4.750  19.722  0.00  0.00    +0.000 A 
ATOM      8  C   UNL     1       1.832   5.806  20.531  0.00  0.00    +0.000 A 
ATOM      9  C   UNL     1       1.947   7.131  20.092  0.00  0.00    +0.000 A 
ATOM     10  C   UNL     1       1.508   8.275  20.960  0.00  0.00    +0.000 C 
ATOM     11  C   UNL     1       2.499   7.393  18.831  0.00  0.00    +0.000 A 
ATOM     12  C   UNL     1       2.931   6.343  18.019  0.00  0.00    +0.000 A 
ENDBRANCH   3   6
ENDBRANCH   1   3
BRANCH   1  13
ATOM     13  C   UNL     1       5.807   4.203  16.186  0.00  0.00    +0.000 C 
BRANCH  13  14
ATOM     14  C   UNL     1       6.671   5.163  17.000  0.00  0.00    +0.000 A 
ATOM     15  C   UNL     1       7.280   4.740  18.196  0.00  0.00    +0.000 A 
ATOM     16  C   UNL     1       7.909   5.655  19.041  0.00  0.00    +0.000 A 
ATOM     17  C   UNL     1       7.959   7.002  18.694  0.00  0.00    +0.000 A 
ATOM     18  C   UNL     1       7.406   7.430  17.489  0.00  0.00    +0.000 A 
ATOM     19  C   UNL     1       6.768   6.517  16.643  0.00  0.00    +0.000 A 
ENDBRANCH  13  14
BRANCH  13  20
ATOM     20  C   UNL     1       6.283   4.254  14.720  0.00  0.00    +0.000 C 
ATOM     21  O   UNL     1       7.439   4.479  14.382  0.00  0.00    +0.000 OA
BRANCH  20  23
ATOM     22  C   UNL     1       5.691   3.511  12.595  0.00  0.00    +0.000 C 
ATOM     23  O   UNL     1       5.252   3.964  13.874  0.00  0.00    +0.000 OA
ENDBRANCH  20  23
ENDBRANCH  13  20
ENDBRANCH   1  13
TORSDOF 6
ENDMDL
MODEL 7
REMARK VINA RESULT:      -7.2      2.431      6.733
REMARK  Name = 
REMARK  8 active torsions:
REMARK  status: ('A' for Active; 'I' for Inactive)
REMARK    1  A    between atoms: C_1  and  O_2
REMARK    2  A    between atoms: O_2  and  C_3
REMARK    3  A    between atoms: C_3  and  C_5
REMARK    4  A    between atoms: C_5  and  N_6
REMARK    5  A    between atoms: C_5  and  C_17
REMARK    6  A    between atoms: N_6  and  S_7
REMARK    7  A    between atoms: S_7  and  C_10
REMARK    8  A    between atoms: C_13  and  C_14
REMARK                            x       y       z     vdW  Elec       q    Type
REMARK                         _______ _______ _______ _____ _____    ______ ____
ROOT
ATOM      1  N   UNL     1       4.185   6.036  18.837  0.00  0.00    +0.000 NA
ATOM      2  H   UNL     1       4.571   6.974  18.706  0.00  0.00    +0.000 HD
ENDROOT
BRANCH   1   3
ATOM      3  S   UNL     1       5.450   4.929  18.978  0.00  0.00    +0.000 S 
ATOM      4  O   UNL     1       6.555   5.661  19.551  0.00  0.00    +0.000 OA
ATOM      5  O   UNL     1       4.958   3.708  19.579  0.00  0.00    +0.000 OA
BRANCH   3   6
ATOM      6  C   UNL     1       5.862   4.557  17.293  0.00  0.00    +0.000 A 
ATOM      7  C   UNL     1       4.927   3.922  16.473  0.00  0.00    +0.000 A 
ATOM      8  C   UNL     1       5.212   3.742  15.117  0.00  0.00    +0.000 A 
ATOM      9  C   UNL     1       6.419   4.202  14.576  0.00  0.00    +0.000 A 
ATOM     10  C   UNL     1       6.728   4.033  13.117  0.00  0.00    +0.000 C 
ATOM     11  C   UNL     1       7.344   4.849  15.407  0.00  0.00    +0.000 A 
ATOM     12  C   UNL     1       7.065   5.032  16.763  0.00  0.00    +0.000 A 
ENDBRANCH   3   6
ENDBRANCH   1   3
BRANCH   1  13
ATOM     13  C   UNL     1       3.099   5.951  19.845  0.00  0.00    +0.000 C 
BRANCH  13  14
ATOM     14  C   UNL     1       2.161   4.775  19.583  0.00  0.00    +0.000 A 
ATOM     15  C   UNL     1       1.720   3.961  20.643  0.00  0.00    +0.000 A 
ATOM     16  C   UNL     1       1.023   2.778  20.395  0.00  0.00    +0.000 A 
ATOM     17  C   UNL     1       0.737   2.401  19.086  0.00  0.00    +0.000 A 
ATOM     18  C   UNL     1       1.121   3.221  18.027  0.00  0.00    +0.000 A 
ATOM     19  C   UNL     1       1.826   4.404  18.272  0.00  0.00    +0.000 A 
ENDBRANCH  13  14
BRANCH  13  20
ATOM     20  C   UNL     1       2.254   7.242  19.872  0.00  0.00    +0.000 C 
ATOM     21  O   UNL     1       2.167   8.024  18.933  0.00  0.00    +0.000 OA
BRANCH  20  23
ATOM     22  C   UNL     1       0.861   8.570  21.180  0.00  0.00    +0.000 C 
ATOM     23  O   UNL     1       1.591   7.352  21.059  0.00  0.00    +0.000 OA
ENDBRANCH  20  23
ENDBRANCH  13  20
ENDBRANCH   1  13
TORSDOF 6
ENDMDL
MODEL 8
REMARK VINA RESULT:      -7.1      2.426      6.665
REMARK  Name = 
REMARK  8 active torsions:
REMARK  status: ('A' for Active; 'I' for Inactive)
REMARK    1  A    between atoms: C_1  and  O_2
REMARK    2  A    between atoms: O_2  and  C_3
REMARK    3  A    between atoms: C_3  and  C_5
REMARK    4  A    between atoms: C_5  and  N_6
REMARK    5  A    between atoms: C_5  and  C_17
REMARK    6  A    between atoms: N_6  and  S_7
REMARK    7  A    between atoms: S_7  and  C_10
REMARK    8  A    between atoms: C_13  and  C_14
REMARK                            x       y       z     vdW  Elec       q    Type
REMARK                         _______ _______ _______ _____ _____    ______ ____
ROOT
ATOM      1  N   UNL     1       4.287   6.050  18.522  0.00  0.00    +0.000 NA
ATOM      2  H   UNL     1       4.556   7.008  18.282  0.00  0.00    +0.000 HD
ENDROOT
BRANCH   1   3
ATOM      3  S   UNL     1       5.672   5.090  18.611  0.00  0.00    +0.000 S 
ATOM      4  O   UNL     1       6.742   5.975  19.009  0.00  0.00    +0.000 OA
ATOM      5  O   UNL     1       5.374   3.882  19.348  0.00  0.00    +0.000 OA
BRANCH   3   6
ATOM      6  C   UNL     1       5.957   4.621  16.924  0.00  0.00    +0.000 A 
ATOM      7  C   UNL     1       4.957   3.958  16.209  0.00  0.00    +0.000 A 
ATOM      8  C   UNL     1       5.142   3.700  14.849  0.00  0.00    +0.000 A 
ATOM      9  C   UNL     1       6.313   4.109  14.198  0.00  0.00    +0.000 A 
ATOM     10  C   UNL     1       6.513   3.856  12.732  0.00  0.00    +0.000 C 
ATOM     11  C   UNL     1       7.303   4.785  14.925  0.00  0.00    +0.000 A 
ATOM     12  C   UNL     1       7.124   5.046  16.284  0.00  0.00    +0.000 A 
ENDBRANCH   3   6
ENDBRANCH   1   3
BRANCH   1  13
ATOM     13  C   UNL     1       3.319   5.943  19.641  0.00  0.00    +0.000 C 
BRANCH  13  14
ATOM     14  C   UNL     1       2.496   4.659  19.570  0.00  0.00    +0.000 A 
ATOM     15  C   UNL     1       1.941   4.230  18.349  0.00  0.00    +0.000 A 
ATOM     16  C   UNL     1       1.034   3.171  18.309  0.00  0.00    +0.000 A 
ATOM     17  C   UNL     1       0.685   2.508  19.482  0.00  0.00    +0.000 A 
ATOM     18  C   UNL     1       1.265   2.886  20.692  0.00  0.00    +0.000 A 
ATOM     19  C   UNL     1       2.168   3.952  20.738  0.00  0.00    +0.000 A 
ENDBRANCH  13  14
BRANCH  13  20
ATOM     20  C   UNL     1       2.344   7.139  19.659  0.00  0.00    +0.000 C 
ATOM     21  O   UNL     1       2.208   7.926  18.730  0.00  0.00    +0.000 OA
BRANCH  20  23
ATOM     22  C   UNL     1       1.081   8.436  21.121  0.00  0.00    +0.000 C 
ATOM     23  O   UNL     1       1.633   7.155  20.823  0.00  0.00    +0.000 OA
ENDBRANCH  20  23
ENDBRANCH  13  20
ENDBRANCH   1  13
TORSDOF 6
ENDMDL
MODEL 9
REMARK VINA RESULT:      -7.1      2.472      6.622
REMARK  Name = 
REMARK  8 active torsions:
REMARK  status: ('A' for Active; 'I' for Inactive)
REMARK    1  A    between atoms: C_1  and  O_2
REMARK    2  A    between atoms: O_2  and  C_3
REMARK    3  A    between atoms: C_3  and  C_5
REMARK    4  A    between atoms: C_5  and  N_6
REMARK    5  A    between atoms: C_5  and  C_17
REMARK    6  A    between atoms: N_6  and  S_7
REMARK    7  A    between atoms: S_7  and  C_10
REMARK    8  A    between atoms: C_13  and  C_14
REMARK                            x       y       z     vdW  Elec       q    Type
REMARK                         _______ _______ _______ _____ _____    ______ ____
ROOT
ATOM      1  N   UNL     1       3.928   6.096  17.649  0.00  0.00    +0.000 NA
ATOM      2  H   UNL     1       3.861   6.921  17.047  0.00  0.00    +0.000 HD
ENDROOT
BRANCH   1   3
ATOM      3  S   UNL     1       5.529   5.565  17.688  0.00  0.00    +0.000 S 
ATOM      4  O   UNL     1       6.328   6.737  17.962  0.00  0.00    +0.000 OA
ATOM      5  O   UNL     1       5.622   4.376  18.507  0.00  0.00    +0.000 OA
BRANCH   3   6
ATOM      6  C   UNL     1       5.842   5.077  16.012  0.00  0.00    +0.000 A 
ATOM      7  C   UNL     1       7.118   5.236  15.469  0.00  0.00    +0.000 A 
ATOM      8  C   UNL     1       7.389   4.739  14.192  0.00  0.00    +0.000 A 
ATOM      9  C   UNL     1       6.396   4.075  13.461  0.00  0.00    +0.000 A 
ATOM     10  C   UNL     1       6.681   3.517  12.096  0.00  0.00    +0.000 C 
ATOM     11  C   UNL     1       5.122   3.911  14.022  0.00  0.00    +0.000 A 
ATOM     12  C   UNL     1       4.846   4.405  15.298  0.00  0.00    +0.000 A 
ENDBRANCH   3   6
ENDBRANCH   1   3
BRANCH   1  13
ATOM     13  C   UNL     1       3.228   6.226  18.951  0.00  0.00    +0.000 C 
BRANCH  13  14
ATOM     14  C   UNL     1       2.269   5.065  19.207  0.00  0.00    +0.000 A 
ATOM     15  C   UNL     1       1.943   4.682  20.521  0.00  0.00    +0.000 A 
ATOM     16  C   UNL     1       1.225   3.511  20.767  0.00  0.00    +0.000 A 
ATOM     17  C   UNL     1       0.802   2.717  19.705  0.00  0.00    +0.000 A 
ATOM     18  C   UNL     1       1.072   3.109  18.395  0.00  0.00    +0.000 A 
ATOM     19  C   UNL     1       1.798   4.278  18.144  0.00  0.00    +0.000 A 
ENDBRANCH  13  14
BRANCH  13  20
ATOM     20  C   UNL     1       2.424   7.540  19.030  0.00  0.00    +0.000 C 
ATOM     21  O   UNL     1       1.849   7.932  20.039  0.00  0.00    +0.000 OA
BRANCH  20  23
ATOM     22  C   UNL     1       1.665   9.373  17.814  0.00  0.00    +0.000 C 
ATOM     23  O   UNL     1       2.492   8.212  17.845  0.00  0.00    +0.000 OA
ENDBRANCH  20  23
ENDBRANCH  13  20
ENDBRANCH   1  13
TORSDOF 6
ENDMDL
