MODEL 1
REMARK VINA RESULT:      -8.3      0.000      0.000
REMARK  Name = 
REMARK  7 active torsions:
REMARK  status: ('A' for Active; 'I' for Inactive)
REMARK    1  A    between atoms: C_2  and  C_16
REMARK    2  A    between atoms: N_3  and  C_4
REMARK    3  A    between atoms: C_4  and  C_5
REMARK    4  A    between atoms: C_8  and  O_9
REMARK    5  A    between atoms: O_9  and  C_10
REMARK    6  A    between atoms: C_18  and  C_19
REMARK    7  A    between atoms: C_22  and  C_23
REMARK                            x       y       z     vdW  Elec       q    Type
REMARK                         _______ _______ _______ _____ _____    ______ ____
ROOT
ATOM      1  O   UNL     1       5.171   7.002  17.042  0.00  0.00    +0.000 OA
ATOM      2  C   UNL     1       6.143   6.258  16.899  0.00  0.00    +0.000 C 
ATOM      3  N   UNL     1       6.042   5.010  16.332  0.00  0.00    +0.000 N 
ATOM      4  H   UNL     1       6.810   4.366  16.483  0.00  0.00    +0.000 HD
ENDROOT
BRANCH   2   5
ATOM      5  C   UNL     1       7.568   6.706  17.226  0.00  0.00    +0.000 C 
ATOM      6  C   UNL     1       7.718   8.200  17.090  0.00  0.00    +0.000 C 
ATOM      7  C   UNL     1       8.393   8.499  18.379  0.00  0.00    +0.000 C 
ATOM      8  N   UNL     1       8.525   7.492  19.181  0.00  0.00    +0.000 NA
ATOM      9  O   UNL     1       7.929   6.370  18.565  0.00  0.00    +0.000 OA
BRANCH   7  10
ATOM     10  C   UNL     1       8.846   9.871  18.700  0.00  0.00    +0.000 A 
ATOM     11  C   UNL     1       8.634  10.918  17.798  0.00  0.00    +0.000 A 
ATOM     12  C   UNL     1       9.032  12.215  18.122  0.00  0.00    +0.000 A 
ATOM     13  C   UNL     1       9.642  12.489  19.353  0.00  0.00    +0.000 A 
ATOM     14  C   UNL     1       9.870  11.429  20.247  0.00  0.00    +0.000 A 
ATOM     15  C   UNL     1       9.471  10.128  19.925  0.00  0.00    +0.000 A 
BRANCH  13  16
ATOM     16  C   UNL     1      10.027  13.901  19.721  0.00  0.00    +0.000 C 
ATOM     17  F   UNL     1      10.385  14.039  21.028  0.00  0.00    +0.000 F 
ATOM     18  F   UNL     1      11.088  14.355  18.997  0.00  0.00    +0.000 F 
ATOM     19  F   UNL     1       9.019  14.792  19.514  0.00  0.00    +0.000 F 
ENDBRANCH  13  16
ENDBRANCH   7  10
ENDBRANCH   2   5
BRANCH   3  20
ATOM     20  C   UNL     1       4.751   4.470  15.970  0.00  0.00    +0.000 C 
BRANCH  20  21
ATOM     21  C   UNL     1       4.061   3.858  17.158  0.00  0.00    +0.000 A 
ATOM     22  C   UNL     1       4.755   3.610  18.347  0.00  0.00    +0.000 A 
ATOM     23  C   UNL     1       4.088   3.067  19.453  0.00  0.00    +0.000 A 
ATOM     24  C   UNL     1       2.721   2.781  19.387  0.00  0.00    +0.000 A 
ATOM     25  C   UNL     1       2.038   2.994  18.193  0.00  0.00    +0.000 A 
ATOM     26  C   UNL     1       2.696   3.554  17.096  0.00  0.00    +0.000 A 
BRANCH  24  27
ATOM     27  O   UNL     1       2.188   2.250  20.520  0.00  0.00    +0.000 OA
BRANCH  27  28
ATOM     28  C   UNL     1       1.556   3.107  21.464  0.00  0.00    +0.000 C 
ATOM     29  F   UNL     1       2.394   3.901  22.160  0.00  0.00    +0.000 F 
ATOM     30  F   UNL     1       0.663   3.887  20.818  0.00  0.00    +0.000 F 
ATOM     31  F   UNL     1       0.883   2.343  22.353  0.00  0.00    +0.000 F 
ENDBRANCH  27  28
ENDBRANCH  24  27
ENDBRANCH  20  21
ENDBRANCH   3  20
TORSDOF 7
ENDMDL
MODEL 2
REMARK VINA RESULT:      -8.3      7.521     10.114
REMARK  Name = 
REMARK  7 active torsions:
REMARK  status: ('A' for Active; 'I' for Inactive)
REMARK    1  A    between atoms: C_2  and  C_16
REMARK    2  A    between atoms: N_3  and  C_4
REMARK    3  A    between atoms: C_4  and  C_5
REMARK    4  A    between atoms: C_8  and  O_9
REMARK    5  A    between atoms: O_9  and  C_10
REMARK    6  A    between atoms: C_18  and  C_19
REMARK    7  A    between atoms: C_22  and  C_23
REMARK                            x       y       z     vdW  Elec       q    Type
REMARK                         _______ _______ _______ _____ _____    ______ ____
ROOT
ATOM      1  O   UNL     1       2.055   7.841  19.695  0.00  0.00    +0.000 OA
ATOM      2  C   UNL     1       2.315   8.192  18.543  0.00  0.00    +0.000 C 
ATOM      3  N   UNL     1       3.138   7.466  17.715  0.00  0.00    +0.000 N 
ATOM      4  H   UNL     1       3.510   7.935  16.898  0.00  0.00    +0.000 HD
ENDROOT
BRANCH   2   5
ATOM      5  C   UNL     1       1.648   9.402  17.889  0.00  0.00    +0.000 C 
ATOM      6  C   UNL     1       0.174   9.168  17.677  0.00  0.00    +0.000 C 
ATOM      7  C   UNL     1      -0.362  10.432  18.244  0.00  0.00    +0.000 C 
ATOM      8  N   UNL     1       0.517  11.210  18.790  0.00  0.00    +0.000 NA
ATOM      9  O   UNL     1       1.773  10.571  18.699  0.00  0.00    +0.000 OA
BRANCH   7  10
ATOM     10  C   UNL     1      -1.809  10.735  18.195  0.00  0.00    +0.000 A 
ATOM     11  C   UNL     1      -2.666   9.976  17.392  0.00  0.00    +0.000 A 
ATOM     12  C   UNL     1      -4.035  10.244  17.377  0.00  0.00    +0.000 A 
ATOM     13  C   UNL     1      -4.571  11.269  18.167  0.00  0.00    +0.000 A 
ATOM     14  C   UNL     1      -3.703  12.041  18.957  0.00  0.00    +0.000 A 
ATOM     15  C   UNL     1      -2.330  11.774  18.974  0.00  0.00    +0.000 A 
BRANCH  13  16
ATOM     16  C   UNL     1      -6.059  11.525  18.186  0.00  0.00    +0.000 C 
ATOM     17  F   UNL     1      -6.463  12.277  19.247  0.00  0.00    +0.000 F 
ATOM     18  F   UNL     1      -6.485  12.190  17.077  0.00  0.00    +0.000 F 
ATOM     19  F   UNL     1      -6.789  10.377  18.243  0.00  0.00    +0.000 F 
ENDBRANCH  13  16
ENDBRANCH   7  10
ENDBRANCH   2   5
BRANCH   3  20
ATOM     20  C   UNL     1       3.826   6.294  18.209  0.00  0.00    +0.000 C 
BRANCH  20  21
ATOM     21  C   UNL     1       4.541   5.571  17.100  0.00  0.00    +0.000 A 
ATOM     22  C   UNL     1       4.625   4.175  17.085  0.00  0.00    +0.000 A 
ATOM     23  C   UNL     1       5.270   3.518  16.029  0.00  0.00    +0.000 A 
ATOM     24  C   UNL     1       5.821   4.248  14.971  0.00  0.00    +0.000 A 
ATOM     25  C   UNL     1       5.769   5.638  15.002  0.00  0.00    +0.000 A 
ATOM     26  C   UNL     1       5.109   6.294  16.044  0.00  0.00    +0.000 A 
BRANCH  24  27
ATOM     27  O   UNL     1       6.427   3.500  14.009  0.00  0.00    +0.000 OA
BRANCH  27  28
ATOM     28  C   UNL     1       5.917   3.523  12.681  0.00  0.00    +0.000 C 
ATOM     29  F   UNL     1       6.585   4.330  11.831  0.00  0.00    +0.000 F 
ATOM     30  F   UNL     1       5.932   2.269  12.183  0.00  0.00    +0.000 F 
ATOM     31  F   UNL     1       4.634   3.946  12.721  0.00  0.00    +0.000 F 
ENDBRANCH  27  28
ENDBRANCH  24  27
ENDBRANCH  20  21
ENDBRANCH   3  20
TORSDOF 7
ENDMDL
MODEL 3
REMARK VINA RESULT:      -8.1      0.770      1.112
REMARK  Name = 
REMARK  7 active torsions:
REMARK  status: ('A' for Active; 'I' for Inactive)
REMARK    1  A    between atoms: C_2  and  C_16
REMARK    2  A    between atoms: N_3  and  C_4
REMARK    3  A    between atoms: C_4  and  C_5
REMARK    4  A    between atoms: C_8  and  O_9
REMARK    5  A    between atoms: O_9  and  C_10
REMARK    6  A    between atoms: C_18  and  C_19
REMARK    7  A    between atoms: C_22  and  C_23
REMARK                            x       y       z     vdW  Elec       q    Type
REMARK                         _______ _______ _______ _____ _____    ______ ____
ROOT
ATOM      1  O   UNL     1       5.282   6.870  16.134  0.00  0.00    +0.000 OA
ATOM      2  C   UNL     1       6.119   6.049  16.513  0.00  0.00    +0.000 C 
ATOM      3  N   UNL     1       5.914   4.692  16.431  0.00  0.00    +0.000 N 
ATOM      4  H   UNL     1       6.514   4.095  16.989  0.00  0.00    +0.000 HD
ENDROOT
BRANCH   2   5
ATOM      5  C   UNL     1       7.510   6.464  16.991  0.00  0.00    +0.000 C 
ATOM      6  C   UNL     1       7.714   7.952  16.861  0.00  0.00    +0.000 C 
ATOM      7  C   UNL     1       8.251   8.247  18.214  0.00  0.00    +0.000 C 
ATOM      8  N   UNL     1       8.266   7.246  19.034  0.00  0.00    +0.000 NA
ATOM      9  O   UNL     1       7.712   6.133  18.365  0.00  0.00    +0.000 OA
BRANCH   7  10
ATOM     10  C   UNL     1       8.702   9.610  18.573  0.00  0.00    +0.000 A 
ATOM     11  C   UNL     1       8.553  10.668  17.670  0.00  0.00    +0.000 A 
ATOM     12  C   UNL     1       8.948  11.957  18.028  0.00  0.00    +0.000 A 
ATOM     13  C   UNL     1       9.492  12.213  19.294  0.00  0.00    +0.000 A 
ATOM     14  C   UNL     1       9.657  11.142  20.189  0.00  0.00    +0.000 A 
ATOM     15  C   UNL     1       9.261   9.849  19.833  0.00  0.00    +0.000 A 
BRANCH  13  16
ATOM     16  C   UNL     1       9.873  13.617  19.695  0.00  0.00    +0.000 C 
ATOM     17  F   UNL     1      11.219  13.804  19.787  0.00  0.00    +0.000 F 
ATOM     18  F   UNL     1       9.429  14.549  18.806  0.00  0.00    +0.000 F 
ATOM     19  F   UNL     1       9.363  13.974  20.905  0.00  0.00    +0.000 F 
ENDBRANCH  13  16
ENDBRANCH   7  10
ENDBRANCH   2   5
BRANCH   3  20
ATOM     20  C   UNL     1       4.642   4.167  15.988  0.00  0.00    +0.000 C 
BRANCH  20  21
ATOM     21  C   UNL     1       3.793   3.733  17.151  0.00  0.00    +0.000 A 
ATOM     22  C   UNL     1       2.892   4.616  17.756  0.00  0.00    +0.000 A 
ATOM     23  C   UNL     1       2.089   4.185  18.819  0.00  0.00    +0.000 A 
ATOM     24  C   UNL     1       2.166   2.867  19.278  0.00  0.00    +0.000 A 
ATOM     25  C   UNL     1       3.086   1.998  18.700  0.00  0.00    +0.000 A 
ATOM     26  C   UNL     1       3.874   2.419  17.626  0.00  0.00    +0.000 A 
BRANCH  24  27
ATOM     27  O   UNL     1       1.342   2.570  20.320  0.00  0.00    +0.000 OA
BRANCH  27  28
ATOM     28  C   UNL     1       1.765   2.851  21.648  0.00  0.00    +0.000 C 
ATOM     29  F   UNL     1       2.053   4.146  21.890  0.00  0.00    +0.000 F 
ATOM     30  F   UNL     1       0.802   2.459  22.508  0.00  0.00    +0.000 F 
ATOM     31  F   UNL     1       2.879   2.130  21.906  0.00  0.00    +0.000 F 
ENDBRANCH  27  28
ENDBRANCH  24  27
ENDBRANCH  20  21
ENDBRANCH   3  20
TORSDOF 7
ENDMDL
MODEL 4
REMARK VINA RESULT:      -8.0      0.532      1.021
REMARK  Name = 
REMARK  7 active torsions:
REMARK  status: ('A' for Active; 'I' for Inactive)
REMARK    1  A    between atoms: C_2  and  C_16
REMARK    2  A    between atoms: N_3  and  C_4
REMARK    3  A    between atoms: C_4  and  C_5
REMARK    4  A    between atoms: C_8  and  O_9
REMARK    5  A    between atoms: O_9  and  C_10
REMARK    6  A    between atoms: C_18  and  C_19
REMARK    7  A    between atoms: C_22  and  C_23
REMARK                            x       y       z     vdW  Elec       q    Type
REMARK                         _______ _______ _______ _____ _____    ______ ____
ROOT
ATOM      1  O   UNL     1       5.270   7.553  17.207  0.00  0.00    +0.000 OA
ATOM      2  C   UNL     1       6.213   6.785  17.009  0.00  0.00    +0.000 C 
ATOM      3  N   UNL     1       6.058   5.565  16.396  0.00  0.00    +0.000 N 
ATOM      4  H   UNL     1       6.807   4.890  16.502  0.00  0.00    +0.000 HD
ENDROOT
BRANCH   2   5
ATOM      5  C   UNL     1       7.660   7.174  17.316  0.00  0.00    +0.000 C 
ATOM      6  C   UNL     1       7.840   8.671  17.299  0.00  0.00    +0.000 C 
ATOM      7  C   UNL     1       8.570   8.846  18.581  0.00  0.00    +0.000 C 
ATOM      8  N   UNL     1       8.708   7.773  19.291  0.00  0.00    +0.000 NA
ATOM      9  O   UNL     1       8.062   6.719  18.607  0.00  0.00    +0.000 OA
BRANCH   7  10
ATOM     10  C   UNL     1       9.068  10.176  18.996  0.00  0.00    +0.000 A 
ATOM     11  C   UNL     1       9.290  11.179  18.048  0.00  0.00    +0.000 A 
ATOM     12  C   UNL     1       9.725  12.442  18.451  0.00  0.00    +0.000 A 
ATOM     13  C   UNL     1       9.941  12.725  19.807  0.00  0.00    +0.000 A 
ATOM     14  C   UNL     1       9.735  11.707  20.753  0.00  0.00    +0.000 A 
ATOM     15  C   UNL     1       9.298  10.440  20.351  0.00  0.00    +0.000 A 
BRANCH  13  16
ATOM     16  C   UNL     1      10.365  14.106  20.243  0.00  0.00    +0.000 C 
ATOM     17  F   UNL     1      10.347  14.273  21.595  0.00  0.00    +0.000 F 
ATOM     18  F   UNL     1      11.633  14.408  19.850  0.00  0.00    +0.000 F 
ATOM     19  F   UNL     1       9.568  15.086  19.736  0.00  0.00    +0.000 F 
ENDBRANCH  13  16
ENDBRANCH   7  10
ENDBRANCH   2   5
BRANCH   3  20
ATOM     20  C   UNL     1       4.741   5.080  16.047  0.00  0.00    +0.000 C 
BRANCH  20  21
ATOM     21  C   UNL     1       4.090   4.378  17.208  0.00  0.00    +0.000 A 
ATOM     22  C   UNL     1       2.705   4.193  17.254  0.00  0.00    +0.000 A 
ATOM     23  C   UNL     1       2.121   3.511  18.330  0.00  0.00    +0.000 A 
ATOM     24  C   UNL     1       2.914   2.996  19.359  0.00  0.00    +0.000 A 
ATOM     25  C   UNL     1       4.289   3.212  19.331  0.00  0.00    +0.000 A 
ATOM     26  C   UNL     1       4.876   3.873  18.250  0.00  0.00    +0.000 A 
BRANCH  24  27
ATOM     27  O   UNL     1       2.232   2.362  20.351  0.00  0.00    +0.000 OA
BRANCH  27  28
ATOM     28  C   UNL     1       1.607   3.129  21.372  0.00  0.00    +0.000 C 
ATOM     29  F   UNL     1       2.401   4.049  21.957  0.00  0.00    +0.000 F 
ATOM     30  F   UNL     1       0.533   3.760  20.852  0.00  0.00    +0.000 F 
ATOM     31  F   UNL     1       1.175   2.288  22.338  0.00  0.00    +0.000 F 
ENDBRANCH  27  28
ENDBRANCH  24  27
ENDBRANCH  20  21
ENDBRANCH   3  20
TORSDOF 7
ENDMDL
MODEL 5
REMARK VINA RESULT:      -8.0      7.949     10.290
REMARK  Name = 
REMARK  7 active torsions:
REMARK  status: ('A' for Active; 'I' for Inactive)
REMARK    1  A    between atoms: C_2  and  C_16
REMARK    2  A    between atoms: N_3  and  C_4
REMARK    3  A    between atoms: C_4  and  C_5
REMARK    4  A    between atoms: C_8  and  O_9
REMARK    5  A    between atoms: O_9  and  C_10
REMARK    6  A    between atoms: C_18  and  C_19
REMARK    7  A    between atoms: C_22  and  C_23
REMARK                            x       y       z     vdW  Elec       q    Type
REMARK                         _______ _______ _______ _____ _____    ______ ____
ROOT
ATOM      1  O   UNL     1       1.586   8.439  20.132  0.00  0.00    +0.000 OA
ATOM      2  C   UNL     1       1.713   8.586  18.915  0.00  0.00    +0.000 C 
ATOM      3  N   UNL     1       2.296   7.635  18.112  0.00  0.00    +0.000 N 
ATOM      4  H   UNL     1       2.600   7.926  17.190  0.00  0.00    +0.000 HD
ENDROOT
BRANCH   2   5
ATOM      5  C   UNL     1       1.121   9.784  18.173  0.00  0.00    +0.000 C 
ATOM      6  C   UNL     1      -0.352   9.594  17.912  0.00  0.00    +0.000 C 
ATOM      7  C   UNL     1      -0.858  10.907  18.390  0.00  0.00    +0.000 C 
ATOM      8  N   UNL     1       0.029  11.679  18.930  0.00  0.00    +0.000 NA
ATOM      9  O   UNL     1       1.261  10.988  18.926  0.00  0.00    +0.000 OA
BRANCH   7  10
ATOM     10  C   UNL     1      -2.289  11.261  18.264  0.00  0.00    +0.000 A 
ATOM     11  C   UNL     1      -2.944  11.945  19.293  0.00  0.00    +0.000 A 
ATOM     12  C   UNL     1      -4.284  12.308  19.153  0.00  0.00    +0.000 A 
ATOM     13  C   UNL     1      -4.989  11.998  17.982  0.00  0.00    +0.000 A 
ATOM     14  C   UNL     1      -4.331  11.293  16.960  0.00  0.00    +0.000 A 
ATOM     15  C   UNL     1      -2.988  10.930  17.098  0.00  0.00    +0.000 A 
BRANCH  13  16
ATOM     16  C   UNL     1      -6.424  12.434  17.814  0.00  0.00    +0.000 C 
ATOM     17  F   UNL     1      -6.850  13.276  18.797  0.00  0.00    +0.000 F 
ATOM     18  F   UNL     1      -6.631  13.098  16.643  0.00  0.00    +0.000 F 
ATOM     19  F   UNL     1      -7.296  11.389  17.816  0.00  0.00    +0.000 F 
ENDBRANCH  13  16
ENDBRANCH   7  10
ENDBRANCH   2   5
BRANCH   3  20
ATOM     20  C   UNL     1       2.889   6.449  18.689  0.00  0.00    +0.000 C 
BRANCH  20  21
ATOM     21  C   UNL     1       3.828   5.781  17.722  0.00  0.00    +0.000 A 
ATOM     22  C   UNL     1       4.798   6.516  17.032  0.00  0.00    +0.000 A 
ATOM     23  C   UNL     1       5.682   5.871  16.157  0.00  0.00    +0.000 A 
ATOM     24  C   UNL     1       5.616   4.486  15.976  0.00  0.00    +0.000 A 
ATOM     25  C   UNL     1       4.629   3.759  16.635  0.00  0.00    +0.000 A 
ATOM     26  C   UNL     1       3.760   4.396  17.523  0.00  0.00    +0.000 A 
BRANCH  24  27
ATOM     27  O   UNL     1       6.522   3.977  15.097  0.00  0.00    +0.000 OA
BRANCH  27  28
ATOM     28  C   UNL     1       6.258   4.048  13.701  0.00  0.00    +0.000 C 
ATOM     29  F   UNL     1       7.033   4.916  13.020  0.00  0.00    +0.000 F 
ATOM     30  F   UNL     1       6.414   2.820  13.162  0.00  0.00    +0.000 F 
ATOM     31  F   UNL     1       4.971   4.424  13.526  0.00  0.00    +0.000 F 
ENDBRANCH  27  28
ENDBRANCH  24  27
ENDBRANCH  20  21
ENDBRANCH   3  20
TORSDOF 7
ENDMDL
MODEL 6
REMARK VINA RESULT:      -7.8      5.740      8.738
REMARK  Name = 
REMARK  7 active torsions:
REMARK  status: ('A' for Active; 'I' for Inactive)
REMARK    1  A    between atoms: C_2  and  C_16
REMARK    2  A    between atoms: N_3  and  C_4
REMARK    3  A    between atoms: C_4  and  C_5
REMARK    4  A    between atoms: C_8  and  O_9
REMARK    5  A    between atoms: O_9  and  C_10
REMARK    6  A    between atoms: C_18  and  C_19
REMARK    7  A    between atoms: C_22  and  C_23
REMARK                            x       y       z     vdW  Elec       q    Type
REMARK                         _______ _______ _______ _____ _____    ______ ____
ROOT
ATOM      1  O   UNL     1       2.272   4.152  20.696  0.00  0.00    +0.000 OA
ATOM      2  C   UNL     1       3.089   4.935  20.208  0.00  0.00    +0.000 C 
ATOM      3  N   UNL     1       2.904   6.297  20.215  0.00  0.00    +0.000 N 
ATOM      4  H   UNL     1       3.470   6.848  19.580  0.00  0.00    +0.000 HD
ENDROOT
BRANCH   2   5
ATOM      5  C   UNL     1       4.440   4.470  19.664  0.00  0.00    +0.000 C 
ATOM      6  C   UNL     1       4.314   3.957  18.252  0.00  0.00    +0.000 C 
ATOM      7  C   UNL     1       5.437   4.696  17.620  0.00  0.00    +0.000 C 
ATOM      8  N   UNL     1       6.039   5.549  18.385  0.00  0.00    +0.000 NA
ATOM      9  O   UNL     1       5.389   5.535  19.639  0.00  0.00    +0.000 OA
BRANCH   7  10
ATOM     10  C   UNL     1       5.797   4.465  16.203  0.00  0.00    +0.000 A 
ATOM     11  C   UNL     1       5.032   3.609  15.406  0.00  0.00    +0.000 A 
ATOM     12  C   UNL     1       5.356   3.423  14.062  0.00  0.00    +0.000 A 
ATOM     13  C   UNL     1       6.445   4.094  13.490  0.00  0.00    +0.000 A 
ATOM     14  C   UNL     1       7.222   4.939  14.301  0.00  0.00    +0.000 A 
ATOM     15  C   UNL     1       6.899   5.127  15.649  0.00  0.00    +0.000 A 
BRANCH  13  16
ATOM     16  C   UNL     1       6.764   3.930  12.025  0.00  0.00    +0.000 C 
ATOM     17  F   UNL     1       7.433   2.777  11.745  0.00  0.00    +0.000 F 
ATOM     18  F   UNL     1       5.644   3.904  11.250  0.00  0.00    +0.000 F 
ATOM     19  F   UNL     1       7.538   4.938  11.538  0.00  0.00    +0.000 F 
ENDBRANCH  13  16
ENDBRANCH   7  10
ENDBRANCH   2   5
BRANCH   3  20
ATOM     20  C   UNL     1       1.671   6.869  20.709  0.00  0.00    +0.000 C 
BRANCH  20  21
ATOM     21  C   UNL     1       1.458   8.259  20.175  0.00  0.00    +0.000 A 
ATOM     22  C   UNL     1       1.780   8.581  18.852  0.00  0.00    +0.000 A 
ATOM     23  C   UNL     1       1.548   9.873  18.365  0.00  0.00    +0.000 A 
ATOM     24  C   UNL     1       0.980  10.850  19.187  0.00  0.00    +0.000 A 
ATOM     25  C   UNL     1       0.692  10.541  20.514  0.00  0.00    +0.000 A 
ATOM     26  C   UNL     1       0.904   9.248  20.996  0.00  0.00    +0.000 A 
BRANCH  24  27
ATOM     27  O   UNL     1       0.810  12.068  18.604  0.00  0.00    +0.000 OA
BRANCH  27  28
ATOM     28  C   UNL     1       1.864  13.021  18.655  0.00  0.00    +0.000 C 
ATOM     29  F   UNL     1       2.637  12.955  19.758  0.00  0.00    +0.000 F 
ATOM     30  F   UNL     1       2.652  12.864  17.570  0.00  0.00    +0.000 F 
ATOM     31  F   UNL     1       1.325  14.260  18.609  0.00  0.00    +0.000 F 
ENDBRANCH  27  28
ENDBRANCH  24  27
ENDBRANCH  20  21
ENDBRANCH   3  20
TORSDOF 7
ENDMDL
MODEL 7
REMARK VINA RESULT:      -7.8      8.763     10.743
REMARK  Name = 
REMARK  7 active torsions:
REMARK  status: ('A' for Active; 'I' for Inactive)
REMARK    1  A    between atoms: C_2  and  C_16
REMARK    2  A    between atoms: N_3  and  C_4
REMARK    3  A    between atoms: C_4  and  C_5
REMARK    4  A    between atoms: C_8  and  O_9
REMARK    5  A    between atoms: O_9  and  C_10
REMARK    6  A    between atoms: C_18  and  C_19
REMARK    7  A    between atoms: C_22  and  C_23
REMARK                            x       y       z     vdW  Elec       q    Type
REMARK                         _______ _______ _______ _____ _____    ______ ____
ROOT
ATOM      1  O   UNL     1       0.934  12.048  18.890  0.00  0.00    +0.000 OA
ATOM      2  C   UNL     1       0.791  11.413  19.936  0.00  0.00    +0.000 C 
ATOM      3  N   UNL     1       1.148  10.091  20.054  0.00  0.00    +0.000 N 
ATOM      4  H   UNL     1       0.767   9.573  20.838  0.00  0.00    +0.000 HD
ENDROOT
BRANCH   2   5
ATOM      5  C   UNL     1       0.319  12.072  21.232  0.00  0.00    +0.000 C 
ATOM      6  C   UNL     1      -1.055  12.672  21.074  0.00  0.00    +0.000 C 
ATOM      7  C   UNL     1      -1.707  12.119  22.289  0.00  0.00    +0.000 C 
ATOM      8  N   UNL     1      -0.989  11.287  22.973  0.00  0.00    +0.000 NA
ATOM      9  O   UNL     1       0.245  11.131  22.302  0.00  0.00    +0.000 OA
BRANCH   7  10
ATOM     10  C   UNL     1      -3.093  12.495  22.647  0.00  0.00    +0.000 A 
ATOM     11  C   UNL     1      -3.531  12.415  23.972  0.00  0.00    +0.000 A 
ATOM     12  C   UNL     1      -4.827  12.804  24.308  0.00  0.00    +0.000 A 
ATOM     13  C   UNL     1      -5.705  13.286  23.328  0.00  0.00    +0.000 A 
ATOM     14  C   UNL     1      -5.266  13.346  21.994  0.00  0.00    +0.000 A 
ATOM     15  C   UNL     1      -3.966  12.956  21.656  0.00  0.00    +0.000 A 
BRANCH  13  16
ATOM     16  C   UNL     1      -7.091  13.753  23.702  0.00  0.00    +0.000 C 
ATOM     17  F   UNL     1      -7.732  12.906  24.554  0.00  0.00    +0.000 F 
ATOM     18  F   UNL     1      -7.079  14.964  24.324  0.00  0.00    +0.000 F 
ATOM     19  F   UNL     1      -7.910  13.888  22.624  0.00  0.00    +0.000 F 
ENDBRANCH  13  16
ENDBRANCH   7  10
ENDBRANCH   2   5
BRANCH   3  20
ATOM     20  C   UNL     1       1.616   9.351  18.903  0.00  0.00    +0.000 C 
BRANCH  20  21
ATOM     21  C   UNL     1       1.846   7.903  19.240  0.00  0.00    +0.000 A 
ATOM     22  C   UNL     1       2.367   7.016  18.292  0.00  0.00    +0.000 A 
ATOM     23  C   UNL     1       2.601   5.677  18.633  0.00  0.00    +0.000 A 
ATOM     24  C   UNL     1       2.333   5.217  19.926  0.00  0.00    +0.000 A 
ATOM     25  C   UNL     1       1.782   6.090  20.859  0.00  0.00    +0.000 A 
ATOM     26  C   UNL     1       1.566   7.430  20.528  0.00  0.00    +0.000 A 
BRANCH  24  27
ATOM     27  O   UNL     1       2.595   3.898  20.134  0.00  0.00    +0.000 OA
BRANCH  27  28
ATOM     28  C   UNL     1       1.518   3.002  20.380  0.00  0.00    +0.000 C 
ATOM     29  F   UNL     1       1.239   2.793  21.682  0.00  0.00    +0.000 F 
ATOM     30  F   UNL     1       0.408   3.473  19.773  0.00  0.00    +0.000 F 
ATOM     31  F   UNL     1       1.822   1.805  19.830  0.00  0.00    +0.000 F 
ENDBRANCH  27  28
ENDBRANCH  24  27
ENDBRANCH  20  21
ENDBRANCH   3  20
TORSDOF 7
ENDMDL
MODEL 8
REMARK VINA RESULT:      -7.8      3.889      4.433
REMARK  Name = 
REMARK  7 active torsions:
REMARK  status: ('A' for Active; 'I' for Inactive)
REMARK    1  A    between atoms: C_2  and  C_16
REMARK    2  A    between atoms: N_3  and  C_4
REMARK    3  A    between atoms: C_4  and  C_5
REMARK    4  A    between atoms: C_8  and  O_9
REMARK    5  A    between atoms: O_9  and  C_10
REMARK    6  A    between atoms: C_18  and  C_19
REMARK    7  A    between atoms: C_22  and  C_23
REMARK                            x       y       z     vdW  Elec       q    Type
REMARK                         _______ _______ _______ _____ _____    ______ ____
ROOT
ATOM      1  O   UNL     1       5.235   5.621  16.059  0.00  0.00    +0.000 OA
ATOM      2  C   UNL     1       5.695   6.154  17.071  0.00  0.00    +0.000 C 
ATOM      3  N   UNL     1       4.965   6.303  18.226  0.00  0.00    +0.000 N 
ATOM      4  H   UNL     1       5.305   6.968  18.911  0.00  0.00    +0.000 HD
ENDROOT
BRANCH   2   5
ATOM      5  C   UNL     1       7.158   6.585  17.171  0.00  0.00    +0.000 C 
ATOM      6  C   UNL     1       7.296   8.083  17.075  0.00  0.00    +0.000 C 
ATOM      7  C   UNL     1       8.181   8.325  18.244  0.00  0.00    +0.000 C 
ATOM      8  N   UNL     1       8.437   7.284  18.969  0.00  0.00    +0.000 NA
ATOM      9  O   UNL     1       7.736   6.191  18.415  0.00  0.00    +0.000 OA
BRANCH   7  10
ATOM     10  C   UNL     1       8.694   9.681  18.542  0.00  0.00    +0.000 A 
ATOM     11  C   UNL     1       9.375   9.936  19.736  0.00  0.00    +0.000 A 
ATOM     12  C   UNL     1       9.887  11.208  19.994  0.00  0.00    +0.000 A 
ATOM     13  C   UNL     1       9.733  12.243  19.062  0.00  0.00    +0.000 A 
ATOM     14  C   UNL     1       9.030  11.986  17.873  0.00  0.00    +0.000 A 
ATOM     15  C   UNL     1       8.517  10.711  17.612  0.00  0.00    +0.000 A 
BRANCH  13  16
ATOM     16  C   UNL     1      10.330  13.604  19.324  0.00  0.00    +0.000 C 
ATOM     17  F   UNL     1       9.401  14.599  19.378  0.00  0.00    +0.000 F 
ATOM     18  F   UNL     1      10.999  13.659  20.509  0.00  0.00    +0.000 F 
ATOM     19  F   UNL     1      11.222  13.980  18.367  0.00  0.00    +0.000 F 
ENDBRANCH  13  16
ENDBRANCH   7  10
ENDBRANCH   2   5
BRANCH   3  20
ATOM     20  C   UNL     1       3.569   5.928  18.266  0.00  0.00    +0.000 C 
BRANCH  20  21
ATOM     21  C   UNL     1       2.707   7.073  18.722  0.00  0.00    +0.000 A 
ATOM     22  C   UNL     1       2.172   7.105  20.014  0.00  0.00    +0.000 A 
ATOM     23  C   UNL     1       1.395   8.195  20.429  0.00  0.00    +0.000 A 
ATOM     24  C   UNL     1       1.159   9.267  19.565  0.00  0.00    +0.000 A 
ATOM     25  C   UNL     1       1.660   9.220  18.267  0.00  0.00    +0.000 A 
ATOM     26  C   UNL     1       2.452   8.145  17.857  0.00  0.00    +0.000 A 
BRANCH  24  27
ATOM     27  O   UNL     1       0.385  10.262  20.079  0.00  0.00    +0.000 OA
BRANCH  27  28
ATOM     28  C   UNL     1      -0.669  10.805  19.293  0.00  0.00    +0.000 C 
ATOM     29  F   UNL     1      -0.269  11.581  18.265  0.00  0.00    +0.000 F 
ATOM     30  F   UNL     1      -1.416   9.794  18.801  0.00  0.00    +0.000 F 
ATOM     31  F   UNL     1      -1.455  11.560  20.092  0.00  0.00    +0.000 F 
ENDBRANCH  27  28
ENDBRANCH  24  27
ENDBRANCH  20  21
ENDBRANCH   3  20
TORSDOF 7
ENDMDL
MODEL 9
REMARK VINA RESULT:      -7.7      6.275      8.622
REMARK  Name = 
REMARK  7 active torsions:
REMARK  status: ('A' for Active; 'I' for Inactive)
REMARK    1  A    between atoms: C_2  and  C_16
REMARK    2  A    between atoms: N_3  and  C_4
REMARK    3  A    between atoms: C_4  and  C_5
REMARK    4  A    between atoms: C_8  and  O_9
REMARK    5  A    between atoms: O_9  and  C_10
REMARK    6  A    between atoms: C_18  and  C_19
REMARK    7  A    between atoms: C_22  and  C_23
REMARK                            x       y       z     vdW  Elec       q    Type
REMARK                         _______ _______ _______ _____ _____    ______ ____
ROOT
ATOM      1  O   UNL     1       1.911   4.083  19.989  0.00  0.00    +0.000 OA
ATOM      2  C   UNL     1       2.868   4.857  19.937  0.00  0.00    +0.000 C 
ATOM      3  N   UNL     1       2.810   6.140  20.426  0.00  0.00    +0.000 N 
ATOM      4  H   UNL     1       3.525   6.790  20.120  0.00  0.00    +0.000 HD
ENDROOT
BRANCH   2   5
ATOM      5  C   UNL     1       4.244   4.420  19.435  0.00  0.00    +0.000 C 
ATOM      6  C   UNL     1       4.176   3.914  18.016  0.00  0.00    +0.000 C 
ATOM      7  C   UNL     1       5.306   4.677  17.428  0.00  0.00    +0.000 C 
ATOM      8  N   UNL     1       5.866   5.535  18.218  0.00  0.00    +0.000 NA
ATOM      9  O   UNL     1       5.175   5.501  19.450  0.00  0.00    +0.000 OA
BRANCH   7  10
ATOM     10  C   UNL     1       5.718   4.464  16.023  0.00  0.00    +0.000 A 
ATOM     11  C   UNL     1       4.836   3.886  15.104  0.00  0.00    +0.000 A 
ATOM     12  C   UNL     1       5.218   3.720  13.773  0.00  0.00    +0.000 A 
ATOM     13  C   UNL     1       6.484   4.133  13.336  0.00  0.00    +0.000 A 
ATOM     14  C   UNL     1       7.373   4.695  14.267  0.00  0.00    +0.000 A 
ATOM     15  C   UNL     1       6.992   4.863  15.602  0.00  0.00    +0.000 A 
BRANCH  13  16
ATOM     16  C   UNL     1       6.876   3.997  11.885  0.00  0.00    +0.000 C 
ATOM     17  F   UNL     1       7.606   5.050  11.423  0.00  0.00    +0.000 F 
ATOM     18  F   UNL     1       7.636   2.890  11.654  0.00  0.00    +0.000 F 
ATOM     19  F   UNL     1       5.800   3.896  11.056  0.00  0.00    +0.000 F 
ENDBRANCH  13  16
ENDBRANCH   7  10
ENDBRANCH   2   5
BRANCH   3  20
ATOM     20  C   UNL     1       1.567   6.676  20.936  0.00  0.00    +0.000 C 
BRANCH  20  21
ATOM     21  C   UNL     1       1.282   8.037  20.363  0.00  0.00    +0.000 A 
ATOM     22  C   UNL     1       0.606   9.008  21.111  0.00  0.00    +0.000 A 
ATOM     23  C   UNL     1       0.375  10.279  20.570  0.00  0.00    +0.000 A 
ATOM     24  C   UNL     1       0.829  10.598  19.287  0.00  0.00    +0.000 A 
ATOM     25  C   UNL     1       1.469   9.622  18.529  0.00  0.00    +0.000 A 
ATOM     26  C   UNL     1       1.719   8.360  19.073  0.00  0.00    +0.000 A 
BRANCH  24  27
ATOM     27  O   UNL     1       0.538  11.860  18.869  0.00  0.00    +0.000 OA
BRANCH  27  28
ATOM     28  C   UNL     1      -0.792  12.178  18.477  0.00  0.00    +0.000 C 
ATOM     29  F   UNL     1      -1.621  12.503  19.489  0.00  0.00    +0.000 F 
ATOM     30  F   UNL     1      -0.758  13.208  17.604  0.00  0.00    +0.000 F 
ATOM     31  F   UNL     1      -1.320  11.107  17.844  0.00  0.00    +0.000 F 
ENDBRANCH  27  28
ENDBRANCH  24  27
ENDBRANCH  20  21
ENDBRANCH   3  20
TORSDOF 7
ENDMDL
