MODEL 1
REMARK VINA RESULT:      -7.1      0.000      0.000
REMARK  Name = 
REMARK  3 active torsions:
REMARK  status: ('A' for Active; 'I' for Inactive)
REMARK    1  A    between atoms: C_1  and  N_2
REMARK    2  A    between atoms: C_6  and  C_8
REMARK    3  A    between atoms: C_8  and  C_9
REMARK                            x       y       z     vdW  Elec       q    Type
REMARK                         _______ _______ _______ _____ _____    ______ ____
ROOT
ATOM      1  C   UNL     1       2.584   6.801  19.750  0.00  0.00    +0.000 C 
ENDROOT
BRANCH   1   2
ATOM      2  C   UNL     1       2.577   5.629  18.780  0.00  0.00    +0.000 A 
ATOM      3  C   UNL     1       1.543   4.677  18.824  0.00  0.00    +0.000 A 
ATOM      4  C   UNL     1       1.588   3.540  18.024  0.00  0.00    +0.000 A 
ATOM      5  C   UNL     1       2.694   3.312  17.213  0.00  0.00    +0.000 A 
ATOM      6  C   UNL     1       3.744   4.234  17.179  0.00  0.00    +0.000 A 
ATOM      7  C   UNL     1       4.901   3.978  16.422  0.00  0.00    +0.000 A 
ATOM      8  C   UNL     1       5.942   4.896  16.412  0.00  0.00    +0.000 A 
ATOM      9  C   UNL     1       5.764   6.072  17.113  0.00  0.00    +0.000 A 
ATOM     10  N   UNL     1       4.665   6.353  17.851  0.00  0.00    +0.000 NA
ATOM     11  C   UNL     1       3.677   5.435  17.928  0.00  0.00    +0.000 A 
ENDBRANCH   1   2
BRANCH   1  17
ATOM     12  C   UNL     1      -1.124  11.032  23.037  0.00  0.00    +0.000 C 
ATOM     13  N   UNL     1      -0.066  10.601  22.127  0.00  0.00    +0.000 NA
ATOM     14  C   UNL     1      -0.575  10.484  20.744  0.00  0.00    +0.000 C 
ATOM     15  C   UNL     1       0.528  10.037  19.763  0.00  0.00    +0.000 C 
ATOM     16  N   UNL     1       1.202   8.815  20.204  0.00  0.00    +0.000 N 
ATOM     17  C   UNL     1       1.936   8.093  19.262  0.00  0.00    +0.000 C 
ATOM     18  O   UNL     1       2.025   8.445  18.082  0.00  0.00    +0.000 OA
ATOM     19  C   UNL     1       1.612   8.835  21.610  0.00  0.00    +0.000 C 
ATOM     20  C   UNL     1       0.491   9.302  22.550  0.00  0.00    +0.000 C 
ENDBRANCH   1  17
TORSDOF 2
ENDMDL
MODEL 2
REMARK VINA RESULT:      -7.1      0.882      1.222
REMARK  Name = 
REMARK  3 active torsions:
REMARK  status: ('A' for Active; 'I' for Inactive)
REMARK    1  A    between atoms: C_1  and  N_2
REMARK    2  A    between atoms: C_6  and  C_8
REMARK    3  A    between atoms: C_8  and  C_9
REMARK                            x       y       z     vdW  Elec       q    Type
REMARK                         _______ _______ _______ _____ _____    ______ ____
ROOT
ATOM      1  C   UNL     1       2.445   6.769  20.403  0.00  0.00    +0.000 C 
ENDROOT
BRANCH   1   2
ATOM      2  C   UNL     1       2.057   5.437  19.779  0.00  0.00    +0.000 A 
ATOM      3  C   UNL     1       1.049   4.646  20.361  0.00  0.00    +0.000 A 
ATOM      4  C   UNL     1       0.769   3.376  19.869  0.00  0.00    +0.000 A 
ATOM      5  C   UNL     1       1.530   2.857  18.827  0.00  0.00    +0.000 A 
ATOM      6  C   UNL     1       2.555   3.618  18.257  0.00  0.00    +0.000 A 
ATOM      7  C   UNL     1       3.380   3.077  17.255  0.00  0.00    +0.000 A 
ATOM      8  C   UNL     1       4.403   3.840  16.711  0.00  0.00    +0.000 A 
ATOM      9  C   UNL     1       4.528   5.145  17.145  0.00  0.00    +0.000 A 
ATOM     10  N   UNL     1       3.751   5.700  18.104  0.00  0.00    +0.000 NA
ATOM     11  C   UNL     1       2.801   4.943  18.694  0.00  0.00    +0.000 A 
ENDBRANCH   1   2
BRANCH   1  17
ATOM     12  C   UNL     1      -1.349  11.310  23.131  0.00  0.00    +0.000 C 
ATOM     13  N   UNL     1      -0.258  10.790  22.312  0.00  0.00    +0.000 NA
ATOM     14  C   UNL     1      -0.706  10.556  20.923  0.00  0.00    +0.000 C 
ATOM     15  C   UNL     1       0.434  10.013  20.037  0.00  0.00    +0.000 C 
ATOM     16  N   UNL     1       1.071   8.829  20.614  0.00  0.00    +0.000 N 
ATOM     17  C   UNL     1       1.836   8.019  19.774  0.00  0.00    +0.000 C 
ATOM     18  O   UNL     1       1.983   8.264  18.572  0.00  0.00    +0.000 OA
ATOM     19  C   UNL     1       1.417   8.969  22.030  0.00  0.00    +0.000 C 
ATOM     20  C   UNL     1       0.262   9.528  22.873  0.00  0.00    +0.000 C 
ENDBRANCH   1  17
TORSDOF 2
ENDMDL
MODEL 3
REMARK VINA RESULT:      -7.0      1.540      7.091
REMARK  Name = 
REMARK  3 active torsions:
REMARK  status: ('A' for Active; 'I' for Inactive)
REMARK    1  A    between atoms: C_1  and  N_2
REMARK    2  A    between atoms: C_6  and  C_8
REMARK    3  A    between atoms: C_8  and  C_9
REMARK                            x       y       z     vdW  Elec       q    Type
REMARK                         _______ _______ _______ _____ _____    ______ ____
ROOT
ATOM      1  C   UNL     1       2.385   6.457  20.175  0.00  0.00    +0.000 C 
ENDROOT
BRANCH   1   2
ATOM      2  C   UNL     1       1.885   7.764  19.581  0.00  0.00    +0.000 A 
ATOM      3  C   UNL     1       2.251   8.138  18.275  0.00  0.00    +0.000 A 
ATOM      4  C   UNL     1       1.897   9.383  17.766  0.00  0.00    +0.000 A 
ATOM      5  C   UNL     1       1.224  10.292  18.574  0.00  0.00    +0.000 A 
ATOM      6  C   UNL     1       0.878   9.948  19.884  0.00  0.00    +0.000 A 
ATOM      7  C   UNL     1       0.266  10.885  20.736  0.00  0.00    +0.000 A 
ATOM      8  C   UNL     1      -0.056  10.532  22.039  0.00  0.00    +0.000 A 
ATOM      9  C   UNL     1       0.190   9.231  22.428  0.00  0.00    +0.000 A 
ATOM     10  N   UNL     1       0.776   8.303  21.637  0.00  0.00    +0.000 NA
ATOM     11  C   UNL     1       1.161   8.656  20.391  0.00  0.00    +0.000 A 
ENDBRANCH   1   2
BRANCH   1  17
ATOM     12  C   UNL     1       7.081   4.518  16.095  0.00  0.00    +0.000 C 
ATOM     13  N   UNL     1       6.044   4.371  17.112  0.00  0.00    +0.000 NA
ATOM     14  C   UNL     1       4.727   4.116  16.491  0.00  0.00    +0.000 C 
ATOM     15  C   UNL     1       3.617   3.950  17.548  0.00  0.00    +0.000 C 
ATOM     16  N   UNL     1       3.571   5.071  18.488  0.00  0.00    +0.000 N 
ATOM     17  C   UNL     1       2.411   5.251  19.241  0.00  0.00    +0.000 C 
ATOM     18  O   UNL     1       1.431   4.506  19.135  0.00  0.00    +0.000 OA
ATOM     19  C   UNL     1       4.878   5.444  19.033  0.00  0.00    +0.000 C 
ATOM     20  C   UNL     1       5.959   5.582  17.951  0.00  0.00    +0.000 C 
ENDBRANCH   1  17
TORSDOF 2
ENDMDL
MODEL 4
REMARK VINA RESULT:      -6.9      1.383      2.663
REMARK  Name = 
REMARK  3 active torsions:
REMARK  status: ('A' for Active; 'I' for Inactive)
REMARK    1  A    between atoms: C_1  and  N_2
REMARK    2  A    between atoms: C_6  and  C_8
REMARK    3  A    between atoms: C_8  and  C_9
REMARK                            x       y       z     vdW  Elec       q    Type
REMARK                         _______ _______ _______ _____ _____    ______ ____
ROOT
ATOM      1  C   UNL     1       2.061   7.039  20.218  0.00  0.00    +0.000 C 
ENDROOT
BRANCH   1   2
ATOM      2  C   UNL     1       2.696   6.081  19.221  0.00  0.00    +0.000 A 
ATOM      3  C   UNL     1       3.649   6.545  18.297  0.00  0.00    +0.000 A 
ATOM      4  C   UNL     1       4.146   5.706  17.306  0.00  0.00    +0.000 A 
ATOM      5  C   UNL     1       3.657   4.410  17.191  0.00  0.00    +0.000 A 
ATOM      6  C   UNL     1       2.688   3.942  18.083  0.00  0.00    +0.000 A 
ATOM      7  C   UNL     1       2.129   2.660  17.930  0.00  0.00    +0.000 A 
ATOM      8  C   UNL     1       1.157   2.216  18.815  0.00  0.00    +0.000 A 
ATOM      9  C   UNL     1       0.818   3.049  19.863  0.00  0.00    +0.000 A 
ATOM     10  N   UNL     1       1.336   4.286  20.043  0.00  0.00    +0.000 NA
ATOM     11  C   UNL     1       2.228   4.758  19.146  0.00  0.00    +0.000 A 
ENDBRANCH   1   2
BRANCH   1  17
ATOM     12  C   UNL     1      -1.418  11.727  23.112  0.00  0.00    +0.000 C 
ATOM     13  N   UNL     1      -0.319  11.157  22.337  0.00  0.00    +0.000 NA
ATOM     14  C   UNL     1      -0.647  11.131  20.896  0.00  0.00    +0.000 C 
ATOM     15  C   UNL     1       0.504  10.539  20.057  0.00  0.00    +0.000 C 
ATOM     16  N   UNL     1       0.932   9.227  20.546  0.00  0.00    +0.000 N 
ATOM     17  C   UNL     1       1.676   8.417  19.688  0.00  0.00    +0.000 C 
ATOM     18  O   UNL     1       1.974   8.765  18.541  0.00  0.00    +0.000 OA
ATOM     19  C   UNL     1       1.145   9.172  21.994  0.00  0.00    +0.000 C 
ATOM     20  C   UNL     1      -0.015   9.786  22.791  0.00  0.00    +0.000 C 
ENDBRANCH   1  17
TORSDOF 2
ENDMDL
MODEL 5
REMARK VINA RESULT:      -6.8      1.459      2.669
REMARK  Name = 
REMARK  3 active torsions:
REMARK  status: ('A' for Active; 'I' for Inactive)
REMARK    1  A    between atoms: C_1  and  N_2
REMARK    2  A    between atoms: C_6  and  C_8
REMARK    3  A    between atoms: C_8  and  C_9
REMARK                            x       y       z     vdW  Elec       q    Type
REMARK                         _______ _______ _______ _____ _____    ______ ____
ROOT
ATOM      1  C   UNL     1       2.373   7.307  19.342  0.00  0.00    +0.000 C 
ENDROOT
BRANCH   1   2
ATOM      2  C   UNL     1       3.067   6.224  18.532  0.00  0.00    +0.000 A 
ATOM      3  C   UNL     1       4.109   6.556  17.646  0.00  0.00    +0.000 A 
ATOM      4  C   UNL     1       4.669   5.592  16.815  0.00  0.00    +0.000 A 
ATOM      5  C   UNL     1       4.159   4.299  16.816  0.00  0.00    +0.000 A 
ATOM      6  C   UNL     1       3.105   3.959  17.668  0.00  0.00    +0.000 A 
ATOM      7  C   UNL     1       2.530   2.677  17.625  0.00  0.00    +0.000 A 
ATOM      8  C   UNL     1       1.473   2.361  18.466  0.00  0.00    +0.000 A 
ATOM      9  C   UNL     1       1.066   3.322  19.370  0.00  0.00    +0.000 A 
ATOM     10  N   UNL     1       1.596   4.565  19.442  0.00  0.00    +0.000 NA
ATOM     11  C   UNL     1       2.575   4.908  18.578  0.00  0.00    +0.000 A 
ENDBRANCH   1   2
BRANCH   1  17
ATOM     12  C   UNL     1      -1.744  11.994  21.222  0.00  0.00    +0.000 C 
ATOM     13  N   UNL     1      -0.542  11.430  20.615  0.00  0.00    +0.000 NA
ATOM     14  C   UNL     1      -0.760  11.141  19.182  0.00  0.00    +0.000 C 
ATOM     15  C   UNL     1       0.501  10.551  18.519  0.00  0.00    +0.000 C 
ATOM     16  N   UNL     1       1.016   9.386  19.240  0.00  0.00    +0.000 N 
ATOM     17  C   UNL     1       1.896   8.534  18.571  0.00  0.00    +0.000 C 
ATOM     18  O   UNL     1       2.242   8.727  17.402  0.00  0.00    +0.000 OA
ATOM     19  C   UNL     1       1.128   9.584  20.687  0.00  0.00    +0.000 C 
ATOM     20  C   UNL     1      -0.141  10.189  21.305  0.00  0.00    +0.000 C 
ENDBRANCH   1  17
TORSDOF 2
ENDMDL
MODEL 6
REMARK VINA RESULT:      -6.8      1.594      2.634
REMARK  Name = 
REMARK  3 active torsions:
REMARK  status: ('A' for Active; 'I' for Inactive)
REMARK    1  A    between atoms: C_1  and  N_2
REMARK    2  A    between atoms: C_6  and  C_8
REMARK    3  A    between atoms: C_8  and  C_9
REMARK                            x       y       z     vdW  Elec       q    Type
REMARK                         _______ _______ _______ _____ _____    ______ ____
ROOT
ATOM      1  C   UNL     1       1.854   7.344  17.977  0.00  0.00    +0.000 C 
ENDROOT
BRANCH   1   2
ATOM      2  C   UNL     1       3.227   6.695  18.059  0.00  0.00    +0.000 A 
ATOM      3  C   UNL     1       4.303   7.211  17.315  0.00  0.00    +0.000 A 
ATOM      4  C   UNL     1       5.530   6.556  17.290  0.00  0.00    +0.000 A 
ATOM      5  C   UNL     1       5.680   5.349  17.963  0.00  0.00    +0.000 A 
ATOM      6  C   UNL     1       4.612   4.806  18.683  0.00  0.00    +0.000 A 
ATOM      7  C   UNL     1       4.727   3.550  19.304  0.00  0.00    +0.000 A 
ATOM      8  C   UNL     1       3.652   3.018  20.001  0.00  0.00    +0.000 A 
ATOM      9  C   UNL     1       2.514   3.792  20.108  0.00  0.00    +0.000 A 
ATOM     10  N   UNL     1       2.367   5.006  19.527  0.00  0.00    +0.000 NA
ATOM     11  C   UNL     1       3.381   5.500  18.783  0.00  0.00    +0.000 A 
ENDBRANCH   1   2
BRANCH   1  17
ATOM     12  C   UNL     1      -0.689  10.500  23.078  0.00  0.00    +0.000 C 
ATOM     13  N   UNL     1       0.299  10.193  22.049  0.00  0.00    +0.000 NA
ATOM     14  C   UNL     1       0.041  10.972  20.820  0.00  0.00    +0.000 C 
ATOM     15  C   UNL     1       1.079  10.670  19.720  0.00  0.00    +0.000 C 
ATOM     16  N   UNL     1       1.197   9.237  19.446  0.00  0.00    +0.000 N 
ATOM     17  C   UNL     1       1.793   8.844  18.247  0.00  0.00    +0.000 C 
ATOM     18  O   UNL     1       2.211   9.658  17.417  0.00  0.00    +0.000 OA
ATOM     19  C   UNL     1       1.327   8.410  20.647  0.00  0.00    +0.000 C 
ATOM     20  C   UNL     1       0.287   8.754  21.723  0.00  0.00    +0.000 C 
ENDBRANCH   1  17
TORSDOF 2
ENDMDL
MODEL 7
REMARK VINA RESULT:      -6.7      1.248      1.699
REMARK  Name = 
REMARK  3 active torsions:
REMARK  status: ('A' for Active; 'I' for Inactive)
REMARK    1  A    between atoms: C_1  and  N_2
REMARK    2  A    between atoms: C_6  and  C_8
REMARK    3  A    between atoms: C_8  and  C_9
REMARK                            x       y       z     vdW  Elec       q    Type
REMARK                         _______ _______ _______ _____ _____    ______ ____
ROOT
ATOM      1  C   UNL     1       2.695   7.591  18.432  0.00  0.00    +0.000 C 
ENDROOT
BRANCH   1   2
ATOM      2  C   UNL     1       2.892   6.190  17.877  0.00  0.00    +0.000 A 
ATOM      3  C   UNL     1       1.868   5.231  17.985  0.00  0.00    +0.000 A 
ATOM      4  C   UNL     1       2.080   3.916  17.587  0.00  0.00    +0.000 A 
ATOM      5  C   UNL     1       3.335   3.527  17.130  0.00  0.00    +0.000 A 
ATOM      6  C   UNL     1       4.372   4.460  17.045  0.00  0.00    +0.000 A 
ATOM      7  C   UNL     1       5.665   4.065  16.657  0.00  0.00    +0.000 A 
ATOM      8  C   UNL     1       6.688   5.000  16.592  0.00  0.00    +0.000 A 
ATOM      9  C   UNL     1       6.367   6.316  16.859  0.00  0.00    +0.000 A 
ATOM     10  N   UNL     1       5.136   6.734  17.232  0.00  0.00    +0.000 NA
ATOM     11  C   UNL     1       4.150   5.821  17.371  0.00  0.00    +0.000 A 
ENDBRANCH   1   2
BRANCH   1  17
ATOM     12  C   UNL     1      -0.610  12.672  20.824  0.00  0.00    +0.000 C 
ATOM     13  N   UNL     1      -0.365  11.275  20.478  0.00  0.00    +0.000 NA
ATOM     14  C   UNL     1       0.301  10.565  21.590  0.00  0.00    +0.000 C 
ATOM     15  C   UNL     1       0.563   9.084  21.249  0.00  0.00    +0.000 C 
ATOM     16  N   UNL     1       1.284   8.922  19.985  0.00  0.00    +0.000 N 
ATOM     17  C   UNL     1       1.915   7.703  19.739  0.00  0.00    +0.000 C 
ATOM     18  O   UNL     1       1.890   6.770  20.548  0.00  0.00    +0.000 OA
ATOM     19  C   UNL     1       0.733   9.712  18.881  0.00  0.00    +0.000 C 
ATOM     20  C   UNL     1       0.472  11.175  19.267  0.00  0.00    +0.000 C 
ENDBRANCH   1  17
TORSDOF 2
ENDMDL
MODEL 8
REMARK VINA RESULT:      -6.6      4.214      6.895
REMARK  Name = 
REMARK  3 active torsions:
REMARK  status: ('A' for Active; 'I' for Inactive)
REMARK    1  A    between atoms: C_1  and  N_2
REMARK    2  A    between atoms: C_6  and  C_8
REMARK    3  A    between atoms: C_8  and  C_9
REMARK                            x       y       z     vdW  Elec       q    Type
REMARK                         _______ _______ _______ _____ _____    ______ ____
ROOT
ATOM      1  C   UNL     1       4.223   5.880  19.322  0.00  0.00    +0.000 C 
ENDROOT
BRANCH   1   2
ATOM      2  C   UNL     1       3.086   4.956  18.916  0.00  0.00    +0.000 A 
ATOM      3  C   UNL     1       2.505   5.060  17.639  0.00  0.00    +0.000 A 
ATOM      4  C   UNL     1       1.389   4.303  17.301  0.00  0.00    +0.000 A 
ATOM      5  C   UNL     1       0.805   3.473  18.251  0.00  0.00    +0.000 A 
ATOM      6  C   UNL     1       1.352   3.379  19.535  0.00  0.00    +0.000 A 
ATOM      7  C   UNL     1       0.727   2.603  20.527  0.00  0.00    +0.000 A 
ATOM      8  C   UNL     1       1.273   2.533  21.801  0.00  0.00    +0.000 A 
ATOM      9  C   UNL     1       2.465   3.195  22.022  0.00  0.00    +0.000 A 
ATOM     10  N   UNL     1       3.096   3.948  21.092  0.00  0.00    +0.000 NA
ATOM     11  C   UNL     1       2.534   4.084  19.871  0.00  0.00    +0.000 A 
ENDBRANCH   1   2
BRANCH   1  17
ATOM     12  C   UNL     1       7.153   4.916  13.582  0.00  0.00    +0.000 C 
ATOM     13  N   UNL     1       7.027   5.372  14.964  0.00  0.00    +0.000 NA
ATOM     14  C   UNL     1       7.455   4.318  15.908  0.00  0.00    +0.000 C 
ATOM     15  C   UNL     1       7.338   4.781  17.375  0.00  0.00    +0.000 C 
ATOM     16  N   UNL     1       6.004   5.293  17.692  0.00  0.00    +0.000 N 
ATOM     17  C   UNL     1       5.637   5.386  19.035  0.00  0.00    +0.000 C 
ATOM     18  O   UNL     1       6.392   5.047  19.952  0.00  0.00    +0.000 OA
ATOM     19  C   UNL     1       5.484   6.248  16.710  0.00  0.00    +0.000 C 
ATOM     20  C   UNL     1       5.635   5.757  15.264  0.00  0.00    +0.000 C 
ENDBRANCH   1  17
TORSDOF 2
ENDMDL
MODEL 9
REMARK VINA RESULT:      -6.6      2.486      4.005
REMARK  Name = 
REMARK  3 active torsions:
REMARK  status: ('A' for Active; 'I' for Inactive)
REMARK    1  A    between atoms: C_1  and  N_2
REMARK    2  A    between atoms: C_6  and  C_8
REMARK    3  A    between atoms: C_8  and  C_9
REMARK                            x       y       z     vdW  Elec       q    Type
REMARK                         _______ _______ _______ _____ _____    ______ ____
ROOT
ATOM      1  C   UNL     1       3.773   3.905  18.632  0.00  0.00    +0.000 C 
ENDROOT
BRANCH   1   2
ATOM      2  C   UNL     1       5.173   4.453  18.408  0.00  0.00    +0.000 A 
ATOM      3  C   UNL     1       5.876   5.062  19.464  0.00  0.00    +0.000 A 
ATOM      4  C   UNL     1       7.106   5.671  19.242  0.00  0.00    +0.000 A 
ATOM      5  C   UNL     1       7.624   5.729  17.953  0.00  0.00    +0.000 A 
ATOM      6  C   UNL     1       6.925   5.156  16.888  0.00  0.00    +0.000 A 
ATOM      7  C   UNL     1       7.399   5.275  15.569  0.00  0.00    +0.000 A 
ATOM      8  C   UNL     1       6.685   4.713  14.520  0.00  0.00    +0.000 A 
ATOM      9  C   UNL     1       5.548   3.996  14.833  0.00  0.00    +0.000 A 
ATOM     10  N   UNL     1       5.063   3.858  16.089  0.00  0.00    +0.000 NA
ATOM     11  C   UNL     1       5.709   4.463  17.109  0.00  0.00    +0.000 A 
ENDBRANCH   1   2
BRANCH   1  17
ATOM     12  C   UNL     1       1.525  10.021  18.695  0.00  0.00    +0.000 C 
ATOM     13  N   UNL     1       1.472   8.571  18.861  0.00  0.00    +0.000 NA
ATOM     14  C   UNL     1       1.856   8.183  20.234  0.00  0.00    +0.000 C 
ATOM     15  C   UNL     1       1.799   6.655  20.435  0.00  0.00    +0.000 C 
ATOM     16  N   UNL     1       2.573   5.932  19.424  0.00  0.00    +0.000 N 
ATOM     17  C   UNL     1       2.927   4.608  19.689  0.00  0.00    +0.000 C 
ATOM     18  O   UNL     1       2.617   4.038  20.740  0.00  0.00    +0.000 OA
ATOM     19  C   UNL     1       2.319   6.374  18.051  0.00  0.00    +0.000 C 
ATOM     20  C   UNL     1       2.368   7.901  17.898  0.00  0.00    +0.000 C 
ENDBRANCH   1  17
TORSDOF 2
ENDMDL
