MODEL 1
REMARK VINA RESULT:      -8.5      0.000      0.000
REMARK  Name = 
REMARK  9 active torsions:
REMARK  status: ('A' for Active; 'I' for Inactive)
REMARK    1  A    between atoms: C_1  and  O_2
REMARK    2  A    between atoms: O_2  and  C_3
REMARK    3  A    between atoms: C_6  and  C_7
REMARK    4  A    between atoms: N_17  and  C_18
REMARK    5  A    between atoms: C_18  and  C_19
REMARK    6  A    between atoms: C_19  and  O_20
REMARK    7  A    between atoms: O_20  and  C_21
REMARK    8  A    between atoms: C_23  and  C_24
REMARK    9  A    between atoms: C_27  and  C_28
REMARK                            x       y       z     vdW  Elec       q    Type
REMARK                         _______ _______ _______ _____ _____    ______ ____
ROOT
ATOM      1  C   UNL     1       4.860   4.195  16.536  0.00  0.00    +0.000 A 
ATOM      2  N   UNL     1       4.945   3.623  15.367  0.00  0.00    +0.000 NA
ATOM      3  C   UNL     1       5.856   4.125  14.423  0.00  0.00    +0.000 A 
ATOM      4  C   UNL     1       5.832   3.673  13.102  0.00  0.00    +0.000 A 
ATOM      5  C   UNL     1       6.786   4.122  12.178  0.00  0.00    +0.000 A 
ATOM      6  C   UNL     1       7.783   5.016  12.567  0.00  0.00    +0.000 A 
ATOM      7  C   UNL     1       7.811   5.476  13.880  0.00  0.00    +0.000 A 
ATOM      8  C   UNL     1       6.838   5.033  14.785  0.00  0.00    +0.000 A 
ATOM      9  C   UNL     1       6.769   5.589  16.136  0.00  0.00    +0.000 A 
ATOM     10  O   UNL     1       7.726   6.255  16.531  0.00  0.00    +0.000 OA
ATOM     11  N   UNL     1       5.617   5.326  16.866  0.00  0.00    +0.000 N 
ENDROOT
BRANCH   1  15
ATOM     12  C   UNL     1       2.344   2.557  19.654  0.00  0.00    +0.000 A 
ATOM     13  C   UNL     1       1.806   2.867  18.409  0.00  0.00    +0.000 A 
ATOM     14  C   UNL     1       2.613   3.390  17.395  0.00  0.00    +0.000 A 
ATOM     15  C   UNL     1       3.992   3.541  17.578  0.00  0.00    +0.000 A 
ATOM     16  C   UNL     1       4.526   3.244  18.844  0.00  0.00    +0.000 A 
ATOM     17  C   UNL     1       3.704   2.767  19.880  0.00  0.00    +0.000 A 
BRANCH  12  19
ATOM     18  C   UNL     1       1.655   2.530  21.920  0.00  0.00    +0.000 C 
ATOM     19  O   UNL     1       1.428   2.135  20.574  0.00  0.00    +0.000 OA
ENDBRANCH  12  19
ENDBRANCH   1  15
BRANCH  11  20
ATOM     20  C   UNL     1       5.081   6.420  17.718  0.00  0.00    +0.000 C 
BRANCH  20  21
ATOM     21  C   UNL     1       3.938   7.267  17.137  0.00  0.00    +0.000 C 
BRANCH  21  22
ATOM     22  O   UNL     1       2.684   6.818  17.654  0.00  0.00    +0.000 OA
BRANCH  22  23
ATOM     23  C   UNL     1       2.100   7.620  18.607  0.00  0.00    +0.000 A 
ATOM     24  C   UNL     1       1.834   8.923  18.152  0.00  0.00    +0.000 A 
ATOM     25  C   UNL     1       1.340   9.914  19.013  0.00  0.00    +0.000 A 
ATOM     26  C   UNL     1       1.130  11.323  18.548  0.00  0.00    +0.000 C 
ATOM     27  C   UNL     1       1.087   9.584  20.343  0.00  0.00    +0.000 A 
ATOM     28  C   UNL     1       1.345   8.294  20.805  0.00  0.00    +0.000 A 
ATOM     29  C   UNL     1       1.879   7.304  19.960  0.00  0.00    +0.000 A 
ATOM     30  C   UNL     1       2.216   5.989  20.602  0.00  0.00    +0.000 C 
ENDBRANCH  22  23
ENDBRANCH  21  22
ENDBRANCH  20  21
ENDBRANCH  11  20
TORSDOF 6
ENDMDL
MODEL 2
REMARK VINA RESULT:      -8.0      3.584      6.090
REMARK  Name = 
REMARK  9 active torsions:
REMARK  status: ('A' for Active; 'I' for Inactive)
REMARK    1  A    between atoms: C_1  and  O_2
REMARK    2  A    between atoms: O_2  and  C_3
REMARK    3  A    between atoms: C_6  and  C_7
REMARK    4  A    between atoms: N_17  and  C_18
REMARK    5  A    between atoms: C_18  and  C_19
REMARK    6  A    between atoms: C_19  and  O_20
REMARK    7  A    between atoms: O_20  and  C_21
REMARK    8  A    between atoms: C_23  and  C_24
REMARK    9  A    between atoms: C_27  and  C_28
REMARK                            x       y       z     vdW  Elec       q    Type
REMARK                         _______ _______ _______ _____ _____    ______ ____
ROOT
ATOM      1  C   UNL     1       1.743   6.502  20.130  0.00  0.00    +0.000 A 
ATOM      2  N   UNL     1       1.225   5.322  20.328  0.00  0.00    +0.000 NA
ATOM      3  C   UNL     1       1.813   4.203  19.716  0.00  0.00    +0.000 A 
ATOM      4  C   UNL     1       1.174   2.962  19.739  0.00  0.00    +0.000 A 
ATOM      5  C   UNL     1       1.794   1.830  19.189  0.00  0.00    +0.000 A 
ATOM      6  C   UNL     1       3.065   1.924  18.623  0.00  0.00    +0.000 A 
ATOM      7  C   UNL     1       3.707   3.158  18.591  0.00  0.00    +0.000 A 
ATOM      8  C   UNL     1       3.066   4.282  19.126  0.00  0.00    +0.000 A 
ATOM      9  C   UNL     1       3.661   5.612  19.000  0.00  0.00    +0.000 A 
ATOM     10  O   UNL     1       4.838   5.681  18.645  0.00  0.00    +0.000 OA
ATOM     11  N   UNL     1       2.844   6.697  19.286  0.00  0.00    +0.000 N 
ENDROOT
BRANCH   1  15
ATOM     12  C   UNL     1       0.093   9.644  22.608  0.00  0.00    +0.000 A 
ATOM     13  C   UNL     1       1.471   9.472  22.517  0.00  0.00    +0.000 A 
ATOM     14  C   UNL     1       2.011   8.464  21.715  0.00  0.00    +0.000 A 
ATOM     15  C   UNL     1       1.189   7.657  20.922  0.00  0.00    +0.000 A 
ATOM     16  C   UNL     1      -0.203   7.823  21.031  0.00  0.00    +0.000 A 
ATOM     17  C   UNL     1      -0.747   8.803  21.879  0.00  0.00    +0.000 A 
BRANCH  12  19
ATOM     18  C   UNL     1      -1.391  11.424  23.094  0.00  0.00    +0.000 C 
ATOM     19  O   UNL     1      -0.298  10.609  23.491  0.00  0.00    +0.000 OA
ENDBRANCH  12  19
ENDBRANCH   1  15
BRANCH  11  20
ATOM     20  C   UNL     1       2.983   7.904  18.429  0.00  0.00    +0.000 C 
BRANCH  20  21
ATOM     21  C   UNL     1       1.695   8.505  17.845  0.00  0.00    +0.000 C 
BRANCH  21  22
ATOM     22  O   UNL     1       1.660   9.913  18.082  0.00  0.00    +0.000 OA
BRANCH  22  23
ATOM     23  C   UNL     1       0.457  10.425  18.509  0.00  0.00    +0.000 A 
ATOM     24  C   UNL     1      -0.654   9.847  17.870  0.00  0.00    +0.000 A 
ATOM     25  C   UNL     1      -1.956  10.316  18.097  0.00  0.00    +0.000 A 
ATOM     26  C   UNL     1      -3.131   9.754  17.358  0.00  0.00    +0.000 C 
ATOM     27  C   UNL     1      -2.147  11.363  18.997  0.00  0.00    +0.000 A 
ATOM     28  C   UNL     1      -1.053  11.942  19.639  0.00  0.00    +0.000 A 
ATOM     29  C   UNL     1       0.261  11.507  19.387  0.00  0.00    +0.000 A 
ATOM     30  C   UNL     1       1.360  12.283  20.055  0.00  0.00    +0.000 C 
ENDBRANCH  22  23
ENDBRANCH  21  22
ENDBRANCH  20  21
ENDBRANCH  11  20
TORSDOF 6
ENDMDL
MODEL 3
REMARK VINA RESULT:      -7.7      2.348      7.333
REMARK  Name = 
REMARK  9 active torsions:
REMARK  status: ('A' for Active; 'I' for Inactive)
REMARK    1  A    between atoms: C_1  and  O_2
REMARK    2  A    between atoms: O_2  and  C_3
REMARK    3  A    between atoms: C_6  and  C_7
REMARK    4  A    between atoms: N_17  and  C_18
REMARK    5  A    between atoms: C_18  and  C_19
REMARK    6  A    between atoms: C_19  and  O_20
REMARK    7  A    between atoms: O_20  and  C_21
REMARK    8  A    between atoms: C_23  and  C_24
REMARK    9  A    between atoms: C_27  and  C_28
REMARK                            x       y       z     vdW  Elec       q    Type
REMARK                         _______ _______ _______ _____ _____    ______ ____
ROOT
ATOM      1  C   UNL     1       1.939   7.312  19.663  0.00  0.00    +0.000 A 
ATOM      2  N   UNL     1       1.427   7.423  20.857  0.00  0.00    +0.000 NA
ATOM      3  C   UNL     1       0.830   8.636  21.237  0.00  0.00    +0.000 A 
ATOM      4  C   UNL     1       0.456   8.860  22.564  0.00  0.00    +0.000 A 
ATOM      5  C   UNL     1      -0.204  10.042  22.929  0.00  0.00    +0.000 A 
ATOM      6  C   UNL     1      -0.511  11.006  21.970  0.00  0.00    +0.000 A 
ATOM      7  C   UNL     1      -0.138  10.794  20.646  0.00  0.00    +0.000 A 
ATOM      8  C   UNL     1       0.539   9.618  20.302  0.00  0.00    +0.000 A 
ATOM      9  C   UNL     1       1.049   9.420  18.946  0.00  0.00    +0.000 A 
ATOM     10  O   UNL     1       0.653  10.186  18.067  0.00  0.00    +0.000 OA
ATOM     11  N   UNL     1       1.952   8.382  18.758  0.00  0.00    +0.000 N 
ENDROOT
BRANCH   1  15
ATOM     12  C   UNL     1       3.478   3.536  18.213  0.00  0.00    +0.000 A 
ATOM     13  C   UNL     1       4.087   4.175  19.289  0.00  0.00    +0.000 A 
ATOM     14  C   UNL     1       3.591   5.391  19.767  0.00  0.00    +0.000 A 
ATOM     15  C   UNL     1       2.430   5.955  19.230  0.00  0.00    +0.000 A 
ATOM     16  C   UNL     1       1.831   5.315  18.132  0.00  0.00    +0.000 A 
ATOM     17  C   UNL     1       2.360   4.118  17.619  0.00  0.00    +0.000 A 
BRANCH  12  19
ATOM     18  C   UNL     1       3.835   1.216  18.530  0.00  0.00    +0.000 C 
ATOM     19  O   UNL     1       4.115   2.402  17.799  0.00  0.00    +0.000 OA
ENDBRANCH  12  19
ENDBRANCH   1  15
BRANCH  11  20
ATOM     20  C   UNL     1       3.085   8.619  17.826  0.00  0.00    +0.000 C 
BRANCH  20  21
ATOM     21  C   UNL     1       3.753   7.384  17.201  0.00  0.00    +0.000 C 
BRANCH  21  22
ATOM     22  O   UNL     1       5.157   7.402  17.462  0.00  0.00    +0.000 OA
BRANCH  22  23
ATOM     23  C   UNL     1       5.877   6.338  16.971  0.00  0.00    +0.000 A 
ATOM     24  C   UNL     1       5.387   5.850  15.747  0.00  0.00    +0.000 A 
ATOM     25  C   UNL     1       5.924   4.703  15.146  0.00  0.00    +0.000 A 
ATOM     26  C   UNL     1       5.351   4.137  13.883  0.00  0.00    +0.000 C 
ATOM     27  C   UNL     1       6.987   4.052  15.771  0.00  0.00    +0.000 A 
ATOM     28  C   UNL     1       7.484   4.528  16.983  0.00  0.00    +0.000 A 
ATOM     29  C   UNL     1       6.924   5.653  17.615  0.00  0.00    +0.000 A 
ATOM     30  C   UNL     1       7.474   6.001  18.969  0.00  0.00    +0.000 C 
ENDBRANCH  22  23
ENDBRANCH  21  22
ENDBRANCH  20  21
ENDBRANCH  11  20
TORSDOF 6
ENDMDL
MODEL 4
REMARK VINA RESULT:      -7.6      0.511      1.792
REMARK  Name = 
REMARK  9 active torsions:
REMARK  status: ('A' for Active; 'I' for Inactive)
REMARK    1  A    between atoms: C_1  and  O_2
REMARK    2  A    between atoms: O_2  and  C_3
REMARK    3  A    between atoms: C_6  and  C_7
REMARK    4  A    between atoms: N_17  and  C_18
REMARK    5  A    between atoms: C_18  and  C_19
REMARK    6  A    between atoms: C_19  and  O_20
REMARK    7  A    between atoms: O_20  and  C_21
REMARK    8  A    between atoms: C_23  and  C_24
REMARK    9  A    between atoms: C_27  and  C_28
REMARK                            x       y       z     vdW  Elec       q    Type
REMARK                         _______ _______ _______ _____ _____    ______ ____
ROOT
ATOM      1  C   UNL     1       4.823   4.153  16.411  0.00  0.00    +0.000 A 
ATOM      2  N   UNL     1       4.918   3.570  15.248  0.00  0.00    +0.000 NA
ATOM      3  C   UNL     1       5.834   4.064  14.305  0.00  0.00    +0.000 A 
ATOM      4  C   UNL     1       5.820   3.599  12.989  0.00  0.00    +0.000 A 
ATOM      5  C   UNL     1       6.780   4.041  12.067  0.00  0.00    +0.000 A 
ATOM      6  C   UNL     1       7.772   4.941  12.454  0.00  0.00    +0.000 A 
ATOM      7  C   UNL     1       7.790   5.415  13.763  0.00  0.00    +0.000 A 
ATOM      8  C   UNL     1       6.812   4.979  14.666  0.00  0.00    +0.000 A 
ATOM      9  C   UNL     1       6.732   5.547  16.010  0.00  0.00    +0.000 A 
ATOM     10  O   UNL     1       7.685   6.219  16.406  0.00  0.00    +0.000 OA
ATOM     11  N   UNL     1       5.576   5.289  16.735  0.00  0.00    +0.000 N 
ENDROOT
BRANCH   1  15
ATOM     12  C   UNL     1       2.305   2.536  19.538  0.00  0.00    +0.000 A 
ATOM     13  C   UNL     1       1.754   2.907  18.315  0.00  0.00    +0.000 A 
ATOM     14  C   UNL     1       2.562   3.423  17.299  0.00  0.00    +0.000 A 
ATOM     15  C   UNL     1       3.949   3.507  17.454  0.00  0.00    +0.000 A 
ATOM     16  C   UNL     1       4.497   3.148  18.697  0.00  0.00    +0.000 A 
ATOM     17  C   UNL     1       3.677   2.677  19.737  0.00  0.00    +0.000 A 
BRANCH  12  19
ATOM     18  C   UNL     1       1.705   2.400  21.825  0.00  0.00    +0.000 C 
ATOM     19  O   UNL     1       1.391   2.127  20.466  0.00  0.00    +0.000 OA
ENDBRANCH  12  19
ENDBRANCH   1  15
BRANCH  11  20
ATOM     20  C   UNL     1       5.031   6.390  17.572  0.00  0.00    +0.000 C 
BRANCH  20  21
ATOM     21  C   UNL     1       4.501   7.633  16.841  0.00  0.00    +0.000 C 
BRANCH  21  22
ATOM     22  O   UNL     1       3.074   7.669  16.909  0.00  0.00    +0.000 OA
BRANCH  22  23
ATOM     23  C   UNL     1       2.534   7.916  18.150  0.00  0.00    +0.000 A 
ATOM     24  C   UNL     1       2.462   6.772  18.964  0.00  0.00    +0.000 A 
ATOM     25  C   UNL     1       1.843   6.805  20.222  0.00  0.00    +0.000 A 
ATOM     26  C   UNL     1       1.696   5.569  21.056  0.00  0.00    +0.000 C 
ATOM     27  C   UNL     1       1.310   8.009  20.678  0.00  0.00    +0.000 A 
ATOM     28  C   UNL     1       1.378   9.151  19.881  0.00  0.00    +0.000 A 
ATOM     29  C   UNL     1       1.960   9.119  18.600  0.00  0.00    +0.000 A 
ATOM     30  C   UNL     1       1.873  10.384  17.796  0.00  0.00    +0.000 C 
ENDBRANCH  22  23
ENDBRANCH  21  22
ENDBRANCH  20  21
ENDBRANCH  11  20
TORSDOF 6
ENDMDL
MODEL 5
REMARK VINA RESULT:      -7.5      2.306      7.180
REMARK  Name = 
REMARK  9 active torsions:
REMARK  status: ('A' for Active; 'I' for Inactive)
REMARK    1  A    between atoms: C_1  and  O_2
REMARK    2  A    between atoms: O_2  and  C_3
REMARK    3  A    between atoms: C_6  and  C_7
REMARK    4  A    between atoms: N_17  and  C_18
REMARK    5  A    between atoms: C_18  and  C_19
REMARK    6  A    between atoms: C_19  and  O_20
REMARK    7  A    between atoms: O_20  and  C_21
REMARK    8  A    between atoms: C_23  and  C_24
REMARK    9  A    between atoms: C_27  and  C_28
REMARK                            x       y       z     vdW  Elec       q    Type
REMARK                         _______ _______ _______ _____ _____    ______ ____
ROOT
ATOM      1  C   UNL     1       1.903   7.189  19.481  0.00  0.00    +0.000 A 
ATOM      2  N   UNL     1       1.552   7.346  20.727  0.00  0.00    +0.000 NA
ATOM      3  C   UNL     1       0.987   8.567  21.131  0.00  0.00    +0.000 A 
ATOM      4  C   UNL     1       0.788   8.845  22.485  0.00  0.00    +0.000 A 
ATOM      5  C   UNL     1       0.160  10.034  22.884  0.00  0.00    +0.000 A 
ATOM      6  C   UNL     1      -0.289  10.950  21.934  0.00  0.00    +0.000 A 
ATOM      7  C   UNL     1      -0.090  10.684  20.582  0.00  0.00    +0.000 A 
ATOM      8  C   UNL     1       0.557   9.502  20.202  0.00  0.00    +0.000 A 
ATOM      9  C   UNL     1       0.887   9.250  18.800  0.00  0.00    +0.000 A 
ATOM     10  O   UNL     1       0.364   9.972  17.950  0.00  0.00    +0.000 OA
ATOM     11  N   UNL     1       1.777   8.217  18.538  0.00  0.00    +0.000 N 
ENDROOT
BRANCH   1  15
ATOM     12  C   UNL     1       3.033   3.151  18.408  0.00  0.00    +0.000 A 
ATOM     13  C   UNL     1       2.161   3.874  17.599  0.00  0.00    +0.000 A 
ATOM     14  C   UNL     1       1.797   5.180  17.936  0.00  0.00    +0.000 A 
ATOM     15  C   UNL     1       2.358   5.820  19.045  0.00  0.00    +0.000 A 
ATOM     16  C   UNL     1       3.223   5.079  19.868  0.00  0.00    +0.000 A 
ATOM     17  C   UNL     1       3.549   3.747  19.557  0.00  0.00    +0.000 A 
BRANCH  12  19
ATOM     18  C   UNL     1       4.202   1.117  18.733  0.00  0.00    +0.000 C 
ATOM     19  O   UNL     1       3.236   1.862  18.006  0.00  0.00    +0.000 OA
ENDBRANCH  12  19
ENDBRANCH   1  15
BRANCH  11  20
ATOM     20  C   UNL     1       2.772   8.427  17.454  0.00  0.00    +0.000 C 
BRANCH  20  21
ATOM     21  C   UNL     1       4.174   7.832  17.662  0.00  0.00    +0.000 C 
BRANCH  21  22
ATOM     22  O   UNL     1       4.520   6.998  16.554  0.00  0.00    +0.000 OA
BRANCH  22  23
ATOM     23  C   UNL     1       5.494   6.055  16.788  0.00  0.00    +0.000 A 
ATOM     24  C   UNL     1       6.160   6.233  18.013  0.00  0.00    +0.000 A 
ATOM     25  C   UNL     1       7.255   5.435  18.375  0.00  0.00    +0.000 A 
ATOM     26  C   UNL     1       8.014   5.675  19.643  0.00  0.00    +0.000 C 
ATOM     27  C   UNL     1       7.670   4.428  17.505  0.00  0.00    +0.000 A 
ATOM     28  C   UNL     1       7.015   4.240  16.289  0.00  0.00    +0.000 A 
ATOM     29  C   UNL     1       5.942   5.062  15.898  0.00  0.00    +0.000 A 
ATOM     30  C   UNL     1       5.393   4.831  14.519  0.00  0.00    +0.000 C 
ENDBRANCH  22  23
ENDBRANCH  21  22
ENDBRANCH  20  21
ENDBRANCH  11  20
TORSDOF 6
ENDMDL
MODEL 6
REMARK VINA RESULT:      -7.5      0.551      2.014
REMARK  Name = 
REMARK  9 active torsions:
REMARK  status: ('A' for Active; 'I' for Inactive)
REMARK    1  A    between atoms: C_1  and  O_2
REMARK    2  A    between atoms: O_2  and  C_3
REMARK    3  A    between atoms: C_6  and  C_7
REMARK    4  A    between atoms: N_17  and  C_18
REMARK    5  A    between atoms: C_18  and  C_19
REMARK    6  A    between atoms: C_19  and  O_20
REMARK    7  A    between atoms: O_20  and  C_21
REMARK    8  A    between atoms: C_23  and  C_24
REMARK    9  A    between atoms: C_27  and  C_28
REMARK                            x       y       z     vdW  Elec       q    Type
REMARK                         _______ _______ _______ _____ _____    ______ ____
ROOT
ATOM      1  C   UNL     1       4.720   4.448  16.427  0.00  0.00    +0.000 A 
ATOM      2  N   UNL     1       4.841   3.715  15.356  0.00  0.00    +0.000 NA
ATOM      3  C   UNL     1       5.769   4.088  14.370  0.00  0.00    +0.000 A 
ATOM      4  C   UNL     1       5.784   3.449  13.128  0.00  0.00    +0.000 A 
ATOM      5  C   UNL     1       6.756   3.773  12.171  0.00  0.00    +0.000 A 
ATOM      6  C   UNL     1       7.733   4.728  12.450  0.00  0.00    +0.000 A 
ATOM      7  C   UNL     1       7.723   5.374  13.683  0.00  0.00    +0.000 A 
ATOM      8  C   UNL     1       6.733   5.053  14.620  0.00  0.00    +0.000 A 
ATOM      9  C   UNL     1       6.624   5.797  15.874  0.00  0.00    +0.000 A 
ATOM     10  O   UNL     1       7.563   6.526  16.191  0.00  0.00    +0.000 OA
ATOM     11  N   UNL     1       5.457   5.626  16.607  0.00  0.00    +0.000 N 
ENDROOT
BRANCH   1  15
ATOM     12  C   UNL     1       2.183   2.738  19.488  0.00  0.00    +0.000 A 
ATOM     13  C   UNL     1       3.535   2.955  19.737  0.00  0.00    +0.000 A 
ATOM     14  C   UNL     1       4.358   3.512  18.756  0.00  0.00    +0.000 A 
ATOM     15  C   UNL     1       3.833   3.939  17.532  0.00  0.00    +0.000 A 
ATOM     16  C   UNL     1       2.471   3.701  17.280  0.00  0.00    +0.000 A 
ATOM     17  C   UNL     1       1.654   3.092  18.248  0.00  0.00    +0.000 A 
BRANCH  12  19
ATOM     18  C   UNL     1       2.024   2.315  21.813  0.00  0.00    +0.000 C 
ATOM     19  O   UNL     1       1.517   2.112  20.502  0.00  0.00    +0.000 OA
ENDBRANCH  12  19
ENDBRANCH   1  15
BRANCH  11  20
ATOM     20  C   UNL     1       4.888   6.824  17.279  0.00  0.00    +0.000 C 
BRANCH  20  21
ATOM     21  C   UNL     1       3.445   7.212  16.920  0.00  0.00    +0.000 C 
BRANCH  21  22
ATOM     22  O   UNL     1       3.136   8.500  17.457  0.00  0.00    +0.000 OA
BRANCH  22  23
ATOM     23  C   UNL     1       2.398   8.510  18.618  0.00  0.00    +0.000 A 
ATOM     24  C   UNL     1       2.378   7.269  19.277  0.00  0.00    +0.000 A 
ATOM     25  C   UNL     1       1.590   7.057  20.418  0.00  0.00    +0.000 A 
ATOM     26  C   UNL     1       1.507   5.714  21.075  0.00  0.00    +0.000 C 
ATOM     27  C   UNL     1       0.833   8.115  20.918  0.00  0.00    +0.000 A 
ATOM     28  C   UNL     1       0.847   9.352  20.274  0.00  0.00    +0.000 A 
ATOM     29  C   UNL     1       1.601   9.562  19.104  0.00  0.00    +0.000 A 
ATOM     30  C   UNL     1       1.447  10.902  18.443  0.00  0.00    +0.000 C 
ENDBRANCH  22  23
ENDBRANCH  21  22
ENDBRANCH  20  21
ENDBRANCH  11  20
TORSDOF 6
ENDMDL
MODEL 7
REMARK VINA RESULT:      -7.3      3.618      6.092
REMARK  Name = 
REMARK  9 active torsions:
REMARK  status: ('A' for Active; 'I' for Inactive)
REMARK    1  A    between atoms: C_1  and  O_2
REMARK    2  A    between atoms: O_2  and  C_3
REMARK    3  A    between atoms: C_6  and  C_7
REMARK    4  A    between atoms: N_17  and  C_18
REMARK    5  A    between atoms: C_18  and  C_19
REMARK    6  A    between atoms: C_19  and  O_20
REMARK    7  A    between atoms: O_20  and  C_21
REMARK    8  A    between atoms: C_23  and  C_24
REMARK    9  A    between atoms: C_27  and  C_28
REMARK                            x       y       z     vdW  Elec       q    Type
REMARK                         _______ _______ _______ _____ _____    ______ ____
ROOT
ATOM      1  C   UNL     1       1.745   6.566  20.232  0.00  0.00    +0.000 A 
ATOM      2  N   UNL     1       1.289   5.376  20.508  0.00  0.00    +0.000 NA
ATOM      3  C   UNL     1       1.895   4.254  19.919  0.00  0.00    +0.000 A 
ATOM      4  C   UNL     1       1.312   2.990  20.029  0.00  0.00    +0.000 A 
ATOM      5  C   UNL     1       1.954   1.861  19.501  0.00  0.00    +0.000 A 
ATOM      6  C   UNL     1       3.191   1.980  18.870  0.00  0.00    +0.000 A 
ATOM      7  C   UNL     1       3.777   3.237  18.751  0.00  0.00    +0.000 A 
ATOM      8  C   UNL     1       3.114   4.357  19.266  0.00  0.00    +0.000 A 
ATOM      9  C   UNL     1       3.645   5.703  19.051  0.00  0.00    +0.000 A 
ATOM     10  O   UNL     1       4.800   5.803  18.636  0.00  0.00    +0.000 OA
ATOM     11  N   UNL     1       2.796   6.766  19.327  0.00  0.00    +0.000 N 
ENDROOT
BRANCH   1  15
ATOM     12  C   UNL     1       0.048   9.744  22.630  0.00  0.00    +0.000 A 
ATOM     13  C   UNL     1       1.425   9.542  22.605  0.00  0.00    +0.000 A 
ATOM     14  C   UNL     1       1.981   8.523  21.828  0.00  0.00    +0.000 A 
ATOM     15  C   UNL     1       1.179   7.732  20.998  0.00  0.00    +0.000 A 
ATOM     16  C   UNL     1      -0.212   7.929  21.042  0.00  0.00    +0.000 A 
ATOM     17  C   UNL     1      -0.774   8.921  21.863  0.00  0.00    +0.000 A 
BRANCH  12  19
ATOM     18  C   UNL     1      -1.643  11.282  23.249  0.00  0.00    +0.000 C 
ATOM     19  O   UNL     1      -0.362  10.718  23.494  0.00  0.00    +0.000 OA
ENDBRANCH  12  19
ENDBRANCH   1  15
BRANCH  11  20
ATOM     20  C   UNL     1       2.842   7.936  18.411  0.00  0.00    +0.000 C 
BRANCH  20  21
ATOM     21  C   UNL     1       1.511   8.410  17.808  0.00  0.00    +0.000 C 
BRANCH  21  22
ATOM     22  O   UNL     1       1.575   9.808  17.519  0.00  0.00    +0.000 OA
BRANCH  22  23
ATOM     23  C   UNL     1       0.723  10.614  18.239  0.00  0.00    +0.000 A 
ATOM     24  C   UNL     1       1.383  11.432  19.172  0.00  0.00    +0.000 A 
ATOM     25  C   UNL     1       0.673  12.241  20.070  0.00  0.00    +0.000 A 
ATOM     26  C   UNL     1       1.373  13.053  21.116  0.00  0.00    +0.000 C 
ATOM     27  C   UNL     1      -0.720  12.247  20.013  0.00  0.00    +0.000 A 
ATOM     28  C   UNL     1      -1.386  11.442  19.090  0.00  0.00    +0.000 A 
ATOM     29  C   UNL     1      -0.684  10.595  18.212  0.00  0.00    +0.000 A 
ATOM     30  C   UNL     1      -1.516   9.697  17.343  0.00  0.00    +0.000 C 
ENDBRANCH  22  23
ENDBRANCH  21  22
ENDBRANCH  20  21
ENDBRANCH  11  20
TORSDOF 6
ENDMDL
MODEL 8
REMARK VINA RESULT:      -7.2      2.250      7.246
REMARK  Name = 
REMARK  9 active torsions:
REMARK  status: ('A' for Active; 'I' for Inactive)
REMARK    1  A    between atoms: C_1  and  O_2
REMARK    2  A    between atoms: O_2  and  C_3
REMARK    3  A    between atoms: C_6  and  C_7
REMARK    4  A    between atoms: N_17  and  C_18
REMARK    5  A    between atoms: C_18  and  C_19
REMARK    6  A    between atoms: C_19  and  O_20
REMARK    7  A    between atoms: O_20  and  C_21
REMARK    8  A    between atoms: C_23  and  C_24
REMARK    9  A    between atoms: C_27  and  C_28
REMARK                            x       y       z     vdW  Elec       q    Type
REMARK                         _______ _______ _______ _____ _____    ______ ____
ROOT
ATOM      1  C   UNL     1       1.666   7.159  20.113  0.00  0.00    +0.000 A 
ATOM      2  N   UNL     1       0.946   7.436  21.163  0.00  0.00    +0.000 NA
ATOM      3  C   UNL     1       0.463   8.743  21.339  0.00  0.00    +0.000 A 
ATOM      4  C   UNL     1      -0.134   9.126  22.542  0.00  0.00    +0.000 A 
ATOM      5  C   UNL     1      -0.679  10.410  22.690  0.00  0.00    +0.000 A 
ATOM      6  C   UNL     1      -0.645  11.319  21.634  0.00  0.00    +0.000 A 
ATOM      7  C   UNL     1      -0.048  10.949  20.434  0.00  0.00    +0.000 A 
ATOM      8  C   UNL     1       0.509   9.670  20.308  0.00  0.00    +0.000 A 
ATOM      9  C   UNL     1       1.249   9.293  19.104  0.00  0.00    +0.000 A 
ATOM     10  O   UNL     1       1.151  10.026  18.119  0.00  0.00    +0.000 OA
ATOM     11  N   UNL     1       2.014   8.136  19.172  0.00  0.00    +0.000 N 
ENDROOT
BRANCH   1  15
ATOM     12  C   UNL     1       2.476   2.951  19.502  0.00  0.00    +0.000 A 
ATOM     13  C   UNL     1       2.171   3.771  18.420  0.00  0.00    +0.000 A 
ATOM     14  C   UNL     1       1.915   5.131  18.609  0.00  0.00    +0.000 A 
ATOM     15  C   UNL     1       2.036   5.718  19.872  0.00  0.00    +0.000 A 
ATOM     16  C   UNL     1       2.326   4.882  20.964  0.00  0.00    +0.000 A 
ATOM     17  C   UNL     1       2.533   3.504  20.781  0.00  0.00    +0.000 A 
BRANCH  12  19
ATOM     18  C   UNL     1       3.672   1.307  18.287  0.00  0.00    +0.000 C 
ATOM     19  O   UNL     1       2.620   1.631  19.186  0.00  0.00    +0.000 OA
ENDBRANCH  12  19
ENDBRANCH   1  15
BRANCH  11  20
ATOM     20  C   UNL     1       3.334   8.146  18.488  0.00  0.00    +0.000 C 
BRANCH  20  21
ATOM     21  C   UNL     1       3.417   7.473  17.109  0.00  0.00    +0.000 C 
BRANCH  21  22
ATOM     22  O   UNL     1       4.779   7.392  16.685  0.00  0.00    +0.000 OA
BRANCH  22  23
ATOM     23  C   UNL     1       5.277   6.126  16.490  0.00  0.00    +0.000 A 
ATOM     24  C   UNL     1       5.283   5.729  15.141  0.00  0.00    +0.000 A 
ATOM     25  C   UNL     1       5.654   4.432  14.759  0.00  0.00    +0.000 A 
ATOM     26  C   UNL     1       5.585   3.985  13.331  0.00  0.00    +0.000 C 
ATOM     27  C   UNL     1       6.050   3.529  15.744  0.00  0.00    +0.000 A 
ATOM     28  C   UNL     1       6.052   3.911  17.085  0.00  0.00    +0.000 A 
ATOM     29  C   UNL     1       5.641   5.197  17.482  0.00  0.00    +0.000 A 
ATOM     30  C   UNL     1       5.582   5.450  18.961  0.00  0.00    +0.000 C 
ENDBRANCH  22  23
ENDBRANCH  21  22
ENDBRANCH  20  21
ENDBRANCH  11  20
TORSDOF 6
ENDMDL
MODEL 9
REMARK VINA RESULT:      -7.2      2.227      7.355
REMARK  Name = 
REMARK  9 active torsions:
REMARK  status: ('A' for Active; 'I' for Inactive)
REMARK    1  A    between atoms: C_1  and  O_2
REMARK    2  A    between atoms: O_2  and  C_3
REMARK    3  A    between atoms: C_6  and  C_7
REMARK    4  A    between atoms: N_17  and  C_18
REMARK    5  A    between atoms: C_18  and  C_19
REMARK    6  A    between atoms: C_19  and  O_20
REMARK    7  A    between atoms: O_20  and  C_21
REMARK    8  A    between atoms: C_23  and  C_24
REMARK    9  A    between atoms: C_27  and  C_28
REMARK                            x       y       z     vdW  Elec       q    Type
REMARK                         _______ _______ _______ _____ _____    ______ ____
ROOT
ATOM      1  C   UNL     1       2.482   7.515  18.928  0.00  0.00    +0.000 A 
ATOM      2  N   UNL     1       2.008   8.492  18.207  0.00  0.00    +0.000 NA
ATOM      3  C   UNL     1       1.054   9.358  18.767  0.00  0.00    +0.000 A 
ATOM      4  C   UNL     1       0.378  10.284  17.970  0.00  0.00    +0.000 A 
ATOM      5  C   UNL     1      -0.522  11.194  18.542  0.00  0.00    +0.000 A 
ATOM      6  C   UNL     1      -0.745  11.199  19.918  0.00  0.00    +0.000 A 
ATOM      7  C   UNL     1      -0.081  10.276  20.720  0.00  0.00    +0.000 A 
ATOM      8  C   UNL     1       0.800   9.360  20.131  0.00  0.00    +0.000 A 
ATOM      9  C   UNL     1       1.420   8.303  20.927  0.00  0.00    +0.000 A 
ATOM     10  O   UNL     1       1.350   8.394  22.153  0.00  0.00    +0.000 OA
ATOM     11  N   UNL     1       2.036   7.270  20.233  0.00  0.00    +0.000 N 
ENDROOT
BRANCH   1  15
ATOM     12  C   UNL     1       5.877   5.414  17.256  0.00  0.00    +0.000 A 
ATOM     13  C   UNL     1       5.662   5.419  18.631  0.00  0.00    +0.000 A 
ATOM     14  C   UNL     1       4.565   6.089  19.177  0.00  0.00    +0.000 A 
ATOM     15  C   UNL     1       3.614   6.703  18.355  0.00  0.00    +0.000 A 
ATOM     16  C   UNL     1       3.846   6.710  16.969  0.00  0.00    +0.000 A 
ATOM     17  C   UNL     1       4.978   6.080  16.425  0.00  0.00    +0.000 A 
BRANCH  12  19
ATOM     18  C   UNL     1       7.235   4.658  15.469  0.00  0.00    +0.000 C 
ATOM     19  O   UNL     1       7.029   4.793  16.869  0.00  0.00    +0.000 OA
ENDBRANCH  12  19
ENDBRANCH   1  15
BRANCH  11  20
ATOM     20  C   UNL     1       1.887   5.894  20.776  0.00  0.00    +0.000 C 
BRANCH  20  21
ATOM     21  C   UNL     1       0.605   5.129  20.413  0.00  0.00    +0.000 C 
BRANCH  21  22
ATOM     22  O   UNL     1       0.833   3.721  20.505  0.00  0.00    +0.000 OA
BRANCH  22  23
ATOM     23  C   UNL     1       1.855   3.222  19.732  0.00  0.00    +0.000 A 
ATOM     24  C   UNL     1       2.857   2.579  20.479  0.00  0.00    +0.000 A 
ATOM     25  C   UNL     1       4.030   2.102  19.876  0.00  0.00    +0.000 A 
ATOM     26  C   UNL     1       5.132   1.488  20.683  0.00  0.00    +0.000 C 
ATOM     27  C   UNL     1       4.187   2.252  18.500  0.00  0.00    +0.000 A 
ATOM     28  C   UNL     1       3.199   2.885  17.747  0.00  0.00    +0.000 A 
ATOM     29  C   UNL     1       2.037   3.404  18.348  0.00  0.00    +0.000 A 
ATOM     30  C   UNL     1       1.102   4.160  17.450  0.00  0.00    +0.000 C 
ENDBRANCH  22  23
ENDBRANCH  21  22
ENDBRANCH  20  21
ENDBRANCH  11  20
TORSDOF 6
ENDMDL
