MODEL 1
REMARK VINA RESULT:      -6.4      0.000      0.000
REMARK  Name = 
REMARK  4 active torsions:
REMARK  status: ('A' for Active; 'I' for Inactive)
REMARK    1  A    between atoms: C_1  and  O_2
REMARK    2  A    between atoms: O_2  and  C_3
REMARK    3  A    between atoms: C_3  and  C_4
REMARK    4  A    between atoms: C_10  and  C_11
REMARK                            x       y       z     vdW  Elec       q    Type
REMARK                         _______ _______ _______ _____ _____    ______ ____
ROOT
ATOM      1  C   UNL     1       0.672  10.209  19.972  0.00  0.00    +0.000 A 
ATOM      2  C   UNL     1       0.008  10.347  21.177  0.00  0.00    +0.000 A 
ATOM      3  S   UNL     1       0.306   8.988  22.172  0.00  0.00    +0.000 S 
ATOM      4  C   UNL     1       1.271   8.287  20.924  0.00  0.00    +0.000 A 
ATOM      5  N   UNL     1       1.765   7.042  21.081  0.00  0.00    +0.000 N 
ATOM      6  C   UNL     1       2.156   6.187  20.052  0.00  0.00    +0.000 A 
ATOM      7  C   UNL     1       2.606   6.599  18.794  0.00  0.00    +0.000 A 
ATOM      8  N   UNL     1       2.948   5.743  17.792  0.00  0.00    +0.000 NA
ATOM      9  C   UNL     1       2.820   4.439  18.093  0.00  0.00    +0.000 A 
ATOM     10  C   UNL     1       2.401   4.009  19.337  0.00  0.00    +0.000 A 
ATOM     11  N   UNL     1       2.073   4.865  20.336  0.00  0.00    +0.000 NA
ATOM     12  N   UNL     1       1.432   9.057  19.874  0.00  0.00    +0.000 NA
ATOM     13  H   UNL     1       1.443   6.494  21.868  0.00  0.00    +0.000 HD
ENDROOT
BRANCH   1  20
ATOM     14  C   UNL     1      -1.521  10.675  17.745  0.00  0.00    +0.000 C 
ATOM     15  O   UNL     1      -1.231   9.490  17.556  0.00  0.00    +0.000 OA
ATOM     16  N   UNL     1      -0.705  11.534  18.453  0.00  0.00    +0.000 N 
ATOM     17  C   UNL     1      -0.926  12.939  18.750  0.00  0.00    +0.000 C 
ATOM     18  C   UNL     1       0.451  13.551  18.567  0.00  0.00    +0.000 C 
ATOM     19  C   UNL     1       1.391  12.464  19.082  0.00  0.00    +0.000 C 
ATOM     20  C   UNL     1       0.658  11.144  18.794  0.00  0.00    +0.000 C 
BRANCH  14  21
ATOM     21  C   UNL     1      -2.799  11.264  17.135  0.00  0.00    +0.000 C 
BRANCH  21  23
ATOM     22  C   UNL     1      -3.202  10.515  14.924  0.00  0.00    +0.000 C 
ATOM     23  O   UNL     1      -3.537  10.378  16.300  0.00  0.00    +0.000 OA
ENDBRANCH  21  23
ENDBRANCH  14  21
ENDBRANCH   1  20
TORSDOF 3
ENDMDL
MODEL 2
REMARK VINA RESULT:      -6.3      6.228      8.490
REMARK  Name = 
REMARK  4 active torsions:
REMARK  status: ('A' for Active; 'I' for Inactive)
REMARK    1  A    between atoms: C_1  and  O_2
REMARK    2  A    between atoms: O_2  and  C_3
REMARK    3  A    between atoms: C_3  and  C_4
REMARK    4  A    between atoms: C_10  and  C_11
REMARK                            x       y       z     vdW  Elec       q    Type
REMARK                         _______ _______ _______ _____ _____    ______ ____
ROOT
ATOM      1  C   UNL     1       5.460   4.357  18.383  0.00  0.00    +0.000 A 
ATOM      2  C   UNL     1       6.297   5.092  19.202  0.00  0.00    +0.000 A 
ATOM      3  S   UNL     1       7.293   6.115  18.261  0.00  0.00    +0.000 S 
ATOM      4  C   UNL     1       6.572   5.491  16.822  0.00  0.00    +0.000 A 
ATOM      5  N   UNL     1       7.044   5.874  15.618  0.00  0.00    +0.000 N 
ATOM      6  C   UNL     1       6.900   5.165  14.426  0.00  0.00    +0.000 A 
ATOM      7  C   UNL     1       5.858   4.278  14.141  0.00  0.00    +0.000 A 
ATOM      8  N   UNL     1       5.759   3.569  12.983  0.00  0.00    +0.000 NA
ATOM      9  C   UNL     1       6.755   3.779  12.104  0.00  0.00    +0.000 A 
ATOM     10  C   UNL     1       7.782   4.669  12.355  0.00  0.00    +0.000 A 
ATOM     11  N   UNL     1       7.869   5.382  13.505  0.00  0.00    +0.000 NA
ATOM     12  N   UNL     1       5.593   4.645  17.036  0.00  0.00    +0.000 NA
ATOM     13  H   UNL     1       7.901   6.411  15.587  0.00  0.00    +0.000 HD
ENDROOT
BRANCH   1  20
ATOM     14  C   UNL     1       2.785   4.613  20.047  0.00  0.00    +0.000 C 
ATOM     15  O   UNL     1       3.623   4.976  20.877  0.00  0.00    +0.000 OA
ATOM     16  N   UNL     1       3.123   3.894  18.917  0.00  0.00    +0.000 N 
ATOM     17  C   UNL     1       2.245   3.412  17.867  0.00  0.00    +0.000 C 
ATOM     18  C   UNL     1       2.796   2.030  17.564  0.00  0.00    +0.000 C 
ATOM     19  C   UNL     1       4.302   2.208  17.727  0.00  0.00    +0.000 C 
ATOM     20  C   UNL     1       4.454   3.313  18.783  0.00  0.00    +0.000 C 
BRANCH  14  21
ATOM     21  C   UNL     1       1.296   4.901  20.276  0.00  0.00    +0.000 C 
BRANCH  21  23
ATOM     22  C   UNL     1       1.176   2.830  21.420  0.00  0.00    +0.000 C 
ATOM     23  O   UNL     1       0.498   3.763  20.585  0.00  0.00    +0.000 OA
ENDBRANCH  21  23
ENDBRANCH  14  21
ENDBRANCH   1  20
TORSDOF 3
ENDMDL
MODEL 3
REMARK VINA RESULT:      -6.2      4.714      8.976
REMARK  Name = 
REMARK  4 active torsions:
REMARK  status: ('A' for Active; 'I' for Inactive)
REMARK    1  A    between atoms: C_1  and  O_2
REMARK    2  A    between atoms: O_2  and  C_3
REMARK    3  A    between atoms: C_3  and  C_4
REMARK    4  A    between atoms: C_10  and  C_11
REMARK                            x       y       z     vdW  Elec       q    Type
REMARK                         _______ _______ _______ _____ _____    ______ ____
ROOT
ATOM      1  C   UNL     1       3.338   3.715  18.248  0.00  0.00    +0.000 A 
ATOM      2  C   UNL     1       4.126   3.446  17.144  0.00  0.00    +0.000 A 
ATOM      3  S   UNL     1       4.711   4.904  16.469  0.00  0.00    +0.000 S 
ATOM      4  C   UNL     1       3.851   5.802  17.666  0.00  0.00    +0.000 A 
ATOM      5  N   UNL     1       3.835   7.150  17.607  0.00  0.00    +0.000 N 
ATOM      6  C   UNL     1       2.872   7.976  18.182  0.00  0.00    +0.000 A 
ATOM      7  C   UNL     1       2.107   7.654  19.307  0.00  0.00    +0.000 A 
ATOM      8  N   UNL     1       1.146   8.465  19.830  0.00  0.00    +0.000 NA
ATOM      9  C   UNL     1       0.970   9.628  19.178  0.00  0.00    +0.000 A 
ATOM     10  C   UNL     1       1.732   9.977  18.079  0.00  0.00    +0.000 A 
ATOM     11  N   UNL     1       2.696   9.172  17.570  0.00  0.00    +0.000 NA
ATOM     12  N   UNL     1       3.244   5.059  18.561  0.00  0.00    +0.000 NA
ATOM     13  H   UNL     1       4.211   7.598  16.781  0.00  0.00    +0.000 HD
ENDROOT
BRANCH   1  20
ATOM     14  C   UNL     1       4.391   1.717  20.458  0.00  0.00    +0.000 C 
ATOM     15  O   UNL     1       4.970   1.294  19.453  0.00  0.00    +0.000 OA
ATOM     16  N   UNL     1       3.284   2.538  20.386  0.00  0.00    +0.000 N 
ATOM     17  C   UNL     1       2.516   3.105  21.480  0.00  0.00    +0.000 C 
ATOM     18  C   UNL     1       1.083   2.981  20.998  0.00  0.00    +0.000 C 
ATOM     19  C   UNL     1       1.193   3.238  19.498  0.00  0.00    +0.000 C 
ATOM     20  C   UNL     1       2.595   2.737  19.117  0.00  0.00    +0.000 C 
BRANCH  14  21
ATOM     21  C   UNL     1       4.856   1.287  21.856  0.00  0.00    +0.000 C 
BRANCH  21  23
ATOM     22  C   UNL     1       6.407  -0.444  22.314  0.00  0.00    +0.000 C 
ATOM     23  O   UNL     1       6.229   0.921  21.952  0.00  0.00    +0.000 OA
ENDBRANCH  21  23
ENDBRANCH  14  21
ENDBRANCH   1  20
TORSDOF 3
ENDMDL
MODEL 4
REMARK VINA RESULT:      -6.2      6.334      8.297
REMARK  Name = 
REMARK  4 active torsions:
REMARK  status: ('A' for Active; 'I' for Inactive)
REMARK    1  A    between atoms: C_1  and  O_2
REMARK    2  A    between atoms: O_2  and  C_3
REMARK    3  A    between atoms: C_3  and  C_4
REMARK    4  A    between atoms: C_10  and  C_11
REMARK                            x       y       z     vdW  Elec       q    Type
REMARK                         _______ _______ _______ _____ _____    ______ ____
ROOT
ATOM      1  C   UNL     1       5.714   4.794  18.840  0.00  0.00    +0.000 A 
ATOM      2  C   UNL     1       6.696   5.477  19.534  0.00  0.00    +0.000 A 
ATOM      3  S   UNL     1       7.704   6.327  18.445  0.00  0.00    +0.000 S 
ATOM      4  C   UNL     1       6.792   5.706  17.118  0.00  0.00    +0.000 A 
ATOM      5  N   UNL     1       7.190   5.964  15.855  0.00  0.00    +0.000 N 
ATOM      6  C   UNL     1       6.863   5.209  14.730  0.00  0.00    +0.000 A 
ATOM      7  C   UNL     1       5.712   4.428  14.594  0.00  0.00    +0.000 A 
ATOM      8  N   UNL     1       5.433   3.669  13.498  0.00  0.00    +0.000 NA
ATOM      9  C   UNL     1       6.361   3.716  12.526  0.00  0.00    +0.000 A 
ATOM     10  C   UNL     1       7.494   4.500  12.629  0.00  0.00    +0.000 A 
ATOM     11  N   UNL     1       7.762   5.263  13.717  0.00  0.00    +0.000 NA
ATOM     12  N   UNL     1       5.753   4.987  17.470  0.00  0.00    +0.000 NA
ATOM     13  H   UNL     1       8.092   6.400  15.716  0.00  0.00    +0.000 HD
ENDROOT
BRANCH   1  20
ATOM     14  C   UNL     1       2.602   4.725  18.295  0.00  0.00    +0.000 C 
ATOM     15  O   UNL     1       2.739   5.850  18.784  0.00  0.00    +0.000 OA
ATOM     16  N   UNL     1       3.552   3.733  18.440  0.00  0.00    +0.000 N 
ATOM     17  C   UNL     1       3.520   2.379  17.918  0.00  0.00    +0.000 C 
ATOM     18  C   UNL     1       4.087   1.555  19.060  0.00  0.00    +0.000 C 
ATOM     19  C   UNL     1       5.156   2.467  19.655  0.00  0.00    +0.000 C 
ATOM     20  C   UNL     1       4.645   3.892  19.393  0.00  0.00    +0.000 C 
BRANCH  14  21
ATOM     21  C   UNL     1       1.316   4.360  17.543  0.00  0.00    +0.000 C 
BRANCH  21  23
ATOM     22  C   UNL     1       0.524   3.305  19.511  0.00  0.00    +0.000 C 
ATOM     23  O   UNL     1       0.582   3.269  18.089  0.00  0.00    +0.000 OA
ENDBRANCH  21  23
ENDBRANCH  14  21
ENDBRANCH   1  20
TORSDOF 3
ENDMDL
MODEL 5
REMARK VINA RESULT:      -6.2      5.765      8.333
REMARK  Name = 
REMARK  4 active torsions:
REMARK  status: ('A' for Active; 'I' for Inactive)
REMARK    1  A    between atoms: C_1  and  O_2
REMARK    2  A    between atoms: O_2  and  C_3
REMARK    3  A    between atoms: C_3  and  C_4
REMARK    4  A    between atoms: C_10  and  C_11
REMARK                            x       y       z     vdW  Elec       q    Type
REMARK                         _______ _______ _______ _____ _____    ______ ____
ROOT
ATOM      1  C   UNL     1       4.885   5.610  17.206  0.00  0.00    +0.000 A 
ATOM      2  C   UNL     1       6.015   5.952  17.924  0.00  0.00    +0.000 A 
ATOM      3  S   UNL     1       7.391   5.919  16.909  0.00  0.00    +0.000 S 
ATOM      4  C   UNL     1       6.402   5.419  15.586  0.00  0.00    +0.000 A 
ATOM      5  N   UNL     1       6.973   5.103  14.406  0.00  0.00    +0.000 N 
ATOM      6  C   UNL     1       6.414   4.287  13.425  0.00  0.00    +0.000 A 
ATOM      7  C   UNL     1       5.044   4.095  13.226  0.00  0.00    +0.000 A 
ATOM      8  N   UNL     1       4.522   3.263  12.283  0.00  0.00    +0.000 NA
ATOM      9  C   UNL     1       5.432   2.615  11.534  0.00  0.00    +0.000 A 
ATOM     10  C   UNL     1       6.790   2.808  11.697  0.00  0.00    +0.000 A 
ATOM     11  N   UNL     1       7.304   3.647  12.629  0.00  0.00    +0.000 NA
ATOM     12  N   UNL     1       5.121   5.368  15.864  0.00  0.00    +0.000 NA
ATOM     13  H   UNL     1       7.982   5.034  14.365  0.00  0.00    +0.000 HD
ENDROOT
BRANCH   1  20
ATOM     14  C   UNL     1       3.469   3.240  18.743  0.00  0.00    +0.000 C 
ATOM     15  O   UNL     1       3.774   2.692  17.680  0.00  0.00    +0.000 OA
ATOM     16  N   UNL     1       3.417   4.613  18.881  0.00  0.00    +0.000 N 
ATOM     17  C   UNL     1       3.079   5.381  20.066  0.00  0.00    +0.000 C 
ATOM     18  C   UNL     1       2.231   6.513  19.514  0.00  0.00    +0.000 C 
ATOM     19  C   UNL     1       2.883   6.817  18.168  0.00  0.00    +0.000 C 
ATOM     20  C   UNL     1       3.473   5.475  17.707  0.00  0.00    +0.000 C 
BRANCH  14  21
ATOM     21  C   UNL     1       3.069   2.396  19.960  0.00  0.00    +0.000 C 
BRANCH  21  23
ATOM     22  C   UNL     1       1.380   2.657  21.600  0.00  0.00    +0.000 C 
ATOM     23  O   UNL     1       1.674   2.358  20.240  0.00  0.00    +0.000 OA
ENDBRANCH  21  23
ENDBRANCH  14  21
ENDBRANCH   1  20
TORSDOF 3
ENDMDL
MODEL 6
REMARK VINA RESULT:      -6.2      3.957      7.805
REMARK  Name = 
REMARK  4 active torsions:
REMARK  status: ('A' for Active; 'I' for Inactive)
REMARK    1  A    between atoms: C_1  and  O_2
REMARK    2  A    between atoms: O_2  and  C_3
REMARK    3  A    between atoms: C_3  and  C_4
REMARK    4  A    between atoms: C_10  and  C_11
REMARK                            x       y       z     vdW  Elec       q    Type
REMARK                         _______ _______ _______ _____ _____    ______ ____
ROOT
ATOM      1  C   UNL     1       4.026   4.910  18.159  0.00  0.00    +0.000 A 
ATOM      2  C   UNL     1       4.270   3.885  19.054  0.00  0.00    +0.000 A 
ATOM      3  S   UNL     1       3.301   4.079  20.450  0.00  0.00    +0.000 S 
ATOM      4  C   UNL     1       2.643   5.531  19.791  0.00  0.00    +0.000 A 
ATOM      5  N   UNL     1       1.802   6.281  20.532  0.00  0.00    +0.000 N 
ATOM      6  C   UNL     1       1.550   7.640  20.351  0.00  0.00    +0.000 A 
ATOM      7  C   UNL     1       1.667   8.322  19.136  0.00  0.00    +0.000 A 
ATOM      8  N   UNL     1       1.449   9.659  18.991  0.00  0.00    +0.000 NA
ATOM      9  C   UNL     1       1.107  10.302  20.122  0.00  0.00    +0.000 A 
ATOM     10  C   UNL     1       0.961   9.643  21.327  0.00  0.00    +0.000 A 
ATOM     11  N   UNL     1       1.167   8.310  21.464  0.00  0.00    +0.000 NA
ATOM     12  N   UNL     1       3.053   5.802  18.574  0.00  0.00    +0.000 NA
ATOM     13  H   UNL     1       1.686   6.047  21.510  0.00  0.00    +0.000 HD
ENDROOT
BRANCH   1  20
ATOM     14  C   UNL     1       6.290   6.951  17.327  0.00  0.00    +0.000 C 
ATOM     15  O   UNL     1       5.395   7.718  17.695  0.00  0.00    +0.000 OA
ATOM     16  N   UNL     1       6.048   5.633  16.998  0.00  0.00    +0.000 N 
ATOM     17  C   UNL     1       7.001   4.630  16.558  0.00  0.00    +0.000 C 
ATOM     18  C   UNL     1       6.244   3.887  15.472  0.00  0.00    +0.000 C 
ATOM     19  C   UNL     1       4.809   3.871  15.992  0.00  0.00    +0.000 C 
ATOM     20  C   UNL     1       4.681   5.154  16.827  0.00  0.00    +0.000 C 
BRANCH  14  21
ATOM     21  C   UNL     1       7.726   7.464  17.160  0.00  0.00    +0.000 C 
BRANCH  21  23
ATOM     22  C   UNL     1       8.453   9.443  18.241  0.00  0.00    +0.000 C 
ATOM     23  O   UNL     1       8.308   8.030  18.330  0.00  0.00    +0.000 OA
ENDBRANCH  21  23
ENDBRANCH  14  21
ENDBRANCH   1  20
TORSDOF 3
ENDMDL
MODEL 7
REMARK VINA RESULT:      -6.2      5.082      8.156
REMARK  Name = 
REMARK  4 active torsions:
REMARK  status: ('A' for Active; 'I' for Inactive)
REMARK    1  A    between atoms: C_1  and  O_2
REMARK    2  A    between atoms: O_2  and  C_3
REMARK    3  A    between atoms: C_3  and  C_4
REMARK    4  A    between atoms: C_10  and  C_11
REMARK                            x       y       z     vdW  Elec       q    Type
REMARK                         _______ _______ _______ _____ _____    ______ ____
ROOT
ATOM      1  C   UNL     1       5.295   4.283  18.443  0.00  0.00    +0.000 A 
ATOM      2  C   UNL     1       6.196   4.896  19.294  0.00  0.00    +0.000 A 
ATOM      3  S   UNL     1       7.302   5.845  18.399  0.00  0.00    +0.000 S 
ATOM      4  C   UNL     1       6.534   5.354  16.933  0.00  0.00    +0.000 A 
ATOM      5  N   UNL     1       7.055   5.730  15.747  0.00  0.00    +0.000 N 
ATOM      6  C   UNL     1       6.850   5.085  14.528  0.00  0.00    +0.000 A 
ATOM      7  C   UNL     1       5.725   4.322  14.203  0.00  0.00    +0.000 A 
ATOM      8  N   UNL     1       5.565   3.672  13.018  0.00  0.00    +0.000 NA
ATOM      9  C   UNL     1       6.586   3.810  12.154  0.00  0.00    +0.000 A 
ATOM     10  C   UNL     1       7.696   4.579  12.445  0.00  0.00    +0.000 A 
ATOM     11  N   UNL     1       7.846   5.235  13.621  0.00  0.00    +0.000 NA
ATOM     12  N   UNL     1       5.471   4.605  17.109  0.00  0.00    +0.000 NA
ATOM     13  H   UNL     1       7.963   6.176  15.742  0.00  0.00    +0.000 HD
ENDROOT
BRANCH   1  20
ATOM     14  C   UNL     1       2.714   4.714  20.214  0.00  0.00    +0.000 C 
ATOM     15  O   UNL     1       3.611   4.908  21.040  0.00  0.00    +0.000 OA
ATOM     16  N   UNL     1       2.935   4.054  19.022  0.00  0.00    +0.000 N 
ATOM     17  C   UNL     1       1.979   3.764  17.969  0.00  0.00    +0.000 C 
ATOM     18  C   UNL     1       2.352   2.356  17.541  0.00  0.00    +0.000 C 
ATOM     19  C   UNL     1       3.874   2.344  17.664  0.00  0.00    +0.000 C 
ATOM     20  C   UNL     1       4.183   3.335  18.797  0.00  0.00    +0.000 C 
BRANCH  14  21
ATOM     21  C   UNL     1       1.277   5.154  20.517  0.00  0.00    +0.000 C 
BRANCH  21  23
ATOM     22  C   UNL     1       1.872   7.401  20.057  0.00  0.00    +0.000 C 
ATOM     23  O   UNL     1       1.127   6.520  20.891  0.00  0.00    +0.000 OA
ENDBRANCH  21  23
ENDBRANCH  14  21
ENDBRANCH   1  20
TORSDOF 3
ENDMDL
MODEL 8
REMARK VINA RESULT:      -5.9      4.778      6.974
REMARK  Name = 
REMARK  4 active torsions:
REMARK  status: ('A' for Active; 'I' for Inactive)
REMARK    1  A    between atoms: C_1  and  O_2
REMARK    2  A    between atoms: O_2  and  C_3
REMARK    3  A    between atoms: C_3  and  C_4
REMARK    4  A    between atoms: C_10  and  C_11
REMARK                            x       y       z     vdW  Elec       q    Type
REMARK                         _______ _______ _______ _____ _____    ______ ____
ROOT
ATOM      1  C   UNL     1      -1.713  11.803  18.793  0.00  0.00    +0.000 A 
ATOM      2  C   UNL     1      -0.814  12.651  18.173  0.00  0.00    +0.000 A 
ATOM      3  S   UNL     1      -0.096  13.692  19.324  0.00  0.00    +0.000 S 
ATOM      4  C   UNL     1      -1.051  12.973  20.569  0.00  0.00    +0.000 A 
ATOM      5  N   UNL     1      -1.006  13.475  21.820  0.00  0.00    +0.000 N 
ATOM      6  C   UNL     1      -1.995  13.327  22.791  0.00  0.00    +0.000 A 
ATOM      7  C   UNL     1      -2.898  12.262  22.860  0.00  0.00    +0.000 A 
ATOM      8  N   UNL     1      -3.880  12.159  23.799  0.00  0.00    +0.000 NA
ATOM      9  C   UNL     1      -3.931  13.174  24.679  0.00  0.00    +0.000 A 
ATOM     10  C   UNL     1      -3.033  14.224  24.644  0.00  0.00    +0.000 A 
ATOM     11  N   UNL     1      -2.049  14.316  23.715  0.00  0.00    +0.000 NA
ATOM     12  N   UNL     1      -1.788  11.965  20.165  0.00  0.00    +0.000 NA
ATOM     13  H   UNL     1      -0.518  14.348  21.969  0.00  0.00    +0.000 HD
ENDROOT
BRANCH   1  20
ATOM     14  C   UNL     1      -4.790  11.870  18.074  0.00  0.00    +0.000 C 
ATOM     15  O   UNL     1      -4.824  12.006  19.301  0.00  0.00    +0.000 OA
ATOM     16  N   UNL     1      -3.682  11.378  17.414  0.00  0.00    +0.000 N 
ATOM     17  C   UNL     1      -3.508  11.172  15.987  0.00  0.00    +0.000 C 
ATOM     18  C   UNL     1      -2.763   9.851  15.917  0.00  0.00    +0.000 C 
ATOM     19  C   UNL     1      -1.838   9.904  17.129  0.00  0.00    +0.000 C 
ATOM     20  C   UNL     1      -2.592  10.760  18.159  0.00  0.00    +0.000 C 
BRANCH  14  21
ATOM     21  C   UNL     1      -6.027  12.191  17.227  0.00  0.00    +0.000 C 
BRANCH  21  23
ATOM     22  C   UNL     1      -7.791  13.624  17.895  0.00  0.00    +0.000 C 
ATOM     23  O   UNL     1      -6.493  13.534  17.318  0.00  0.00    +0.000 OA
ENDBRANCH  21  23
ENDBRANCH  14  21
ENDBRANCH   1  20
TORSDOF 3
ENDMDL
MODEL 9
REMARK VINA RESULT:      -5.9      4.595      7.751
REMARK  Name = 
REMARK  4 active torsions:
REMARK  status: ('A' for Active; 'I' for Inactive)
REMARK    1  A    between atoms: C_1  and  O_2
REMARK    2  A    between atoms: O_2  and  C_3
REMARK    3  A    between atoms: C_3  and  C_4
REMARK    4  A    between atoms: C_10  and  C_11
REMARK                            x       y       z     vdW  Elec       q    Type
REMARK                         _______ _______ _______ _____ _____    ______ ____
ROOT
ATOM      1  C   UNL     1       4.979   4.094  19.072  0.00  0.00    +0.000 A 
ATOM      2  C   UNL     1       4.790   2.913  19.765  0.00  0.00    +0.000 A 
ATOM      3  S   UNL     1       3.251   2.907  20.511  0.00  0.00    +0.000 S 
ATOM      4  C   UNL     1       2.948   4.491  19.895  0.00  0.00    +0.000 A 
ATOM      5  N   UNL     1       1.822   5.142  20.251  0.00  0.00    +0.000 N 
ATOM      6  C   UNL     1       1.639   6.524  20.223  0.00  0.00    +0.000 A 
ATOM      7  C   UNL     1       2.315   7.406  19.374  0.00  0.00    +0.000 A 
ATOM      8  N   UNL     1       2.145   8.757  19.391  0.00  0.00    +0.000 NA
ATOM      9  C   UNL     1       1.264   9.205  20.303  0.00  0.00    +0.000 A 
ATOM     10  C   UNL     1       0.567   8.350  21.135  0.00  0.00    +0.000 A 
ATOM     11  N   UNL     1       0.731   7.004  21.106  0.00  0.00    +0.000 NA
ATOM     12  N   UNL     1       3.895   4.952  19.112  0.00  0.00    +0.000 NA
ATOM     13  H   UNL     1       1.247   4.743  20.981  0.00  0.00    +0.000 HD
ENDROOT
BRANCH   1  20
ATOM     14  C   UNL     1       5.541   4.155  15.963  0.00  0.00    +0.000 C 
ATOM     15  O   UNL     1       5.368   2.948  16.155  0.00  0.00    +0.000 OA
ATOM     16  N   UNL     1       5.831   5.035  16.987  0.00  0.00    +0.000 N 
ATOM     17  C   UNL     1       6.053   6.467  16.902  0.00  0.00    +0.000 C 
ATOM     18  C   UNL     1       7.205   6.697  17.863  0.00  0.00    +0.000 C 
ATOM     19  C   UNL     1       6.927   5.703  18.988  0.00  0.00    +0.000 C 
ATOM     20  C   UNL     1       6.197   4.535  18.307  0.00  0.00    +0.000 C 
BRANCH  14  21
ATOM     21  C   UNL     1       5.498   4.725  14.540  0.00  0.00    +0.000 C 
BRANCH  21  23
ATOM     22  C   UNL     1       6.102   3.483  12.615  0.00  0.00    +0.000 C 
ATOM     23  O   UNL     1       6.557   4.304  13.686  0.00  0.00    +0.000 OA
ENDBRANCH  21  23
ENDBRANCH  14  21
ENDBRANCH   1  20
TORSDOF 3
ENDMDL
