MODEL 1
REMARK VINA RESULT:      -8.2      0.000      0.000
REMARK  Name = 
REMARK  6 active torsions:
REMARK  status: ('A' for Active; 'I' for Inactive)
REMARK    1  A    between atoms: C_1  and  N_2
REMARK    2  A    between atoms: N_2  and  C_3
REMARK    3  A    between atoms: N_2  and  C_4
REMARK    4  A    between atoms: C_4  and  C_5
REMARK    5  A    between atoms: C_5  and  N_6
REMARK    6  A    between atoms: C_7  and  C_9
REMARK                            x       y       z     vdW  Elec       q    Type
REMARK                         _______ _______ _______ _____ _____    ______ ____
ROOT
ATOM      1  C   UNL     1       2.416   7.028  19.434  0.00  0.00    +0.000 A 
ATOM      2  C   UNL     1       2.697   7.483  18.124  0.00  0.00    +0.000 A 
ATOM      3  C   UNL     1       2.233   8.754  17.668  0.00  0.00    +0.000 A 
ATOM      4  C   UNL     1       1.503   9.547  18.533  0.00  0.00    +0.000 A 
ATOM      5  C   UNL     1       1.368   9.089  19.841  0.00  0.00    +0.000 A 
ATOM      6  C   UNL     1       1.757   7.865  20.320  0.00  0.00    +0.000 A 
ATOM      7  C   UNL     1       0.780  10.153  20.615  0.00  0.00    +0.000 C 
ATOM      8  O   UNL     1       0.886  10.221  21.820  0.00  0.00    +0.000 OA
ATOM      9  C   UNL     1       0.301  11.158  19.608  0.00  0.00    +0.000 C 
ATOM     10  C   UNL     1      -0.602  12.083  19.977  0.00  0.00    +0.000 C 
ATOM     11  C   UNL     1      -0.987  13.239  19.101  0.00  0.00    +0.000 C 
ATOM     12  O   UNL     1      -0.682  13.417  17.937  0.00  0.00    +0.000 OA
ATOM     13  N   UNL     1      -1.755  14.069  19.912  0.00  0.00    +0.000 N 
ATOM     14  C   UNL     1      -1.951  13.508  21.173  0.00  0.00    +0.000 A 
ATOM     15  C   UNL     1      -2.686  14.041  22.219  0.00  0.00    +0.000 A 
ATOM     16  C   UNL     1      -2.799  13.285  23.389  0.00  0.00    +0.000 A 
ATOM     17  C   UNL     1      -2.241  12.004  23.462  0.00  0.00    +0.000 A 
ATOM     18  C   UNL     1      -1.538  11.478  22.377  0.00  0.00    +0.000 A 
ATOM     19  C   UNL     1      -1.324  12.264  21.255  0.00  0.00    +0.000 A 
ATOM     20  N   UNL     1       0.956  10.835  18.410  0.00  0.00    +0.000 N 
ATOM     21  H   UNL     1      -2.150  14.942  19.597  0.00  0.00    +0.000 HD
ATOM     22  H   UNL     1       0.612  11.219  17.537  0.00  0.00    +0.000 HD
ENDROOT
BRANCH   1  24
ATOM     23  N   UNL     1       1.648   4.938  20.497  0.00  0.00    +0.000 N 
ATOM     24  C   UNL     1       2.686   5.672  19.968  0.00  0.00    +0.000 C 
ATOM     25  O   UNL     1       3.825   5.220  19.868  0.00  0.00    +0.000 OA
ATOM     26  H   UNL     1       0.690   5.188  20.280  0.00  0.00    +0.000 HD
BRANCH  23  27
ATOM     27  C   UNL     1       1.923   3.541  20.795  0.00  0.00    +0.000 C 
BRANCH  27  28
ATOM     28  C   UNL     1       1.371   2.562  19.752  0.00  0.00    +0.000 C 
BRANCH  28  30
ATOM     29  C   UNL     1       2.474   2.726  17.584  0.00  0.00    +0.000 C 
ATOM     30  N   UNL     1       2.396   1.988  18.851  0.00  0.00    +0.000 NA
ATOM     31  C   UNL     1       3.703   2.040  19.517  0.00  0.00    +0.000 C 
ENDBRANCH  28  30
ENDBRANCH  27  28
ENDBRANCH  23  27
ENDBRANCH   1  24
TORSDOF 4
ENDMDL
MODEL 2
REMARK VINA RESULT:      -8.0      3.422      4.835
REMARK  Name = 
REMARK  6 active torsions:
REMARK  status: ('A' for Active; 'I' for Inactive)
REMARK    1  A    between atoms: C_1  and  N_2
REMARK    2  A    between atoms: N_2  and  C_3
REMARK    3  A    between atoms: N_2  and  C_4
REMARK    4  A    between atoms: C_4  and  C_5
REMARK    5  A    between atoms: C_5  and  N_6
REMARK    6  A    between atoms: C_7  and  C_9
REMARK                            x       y       z     vdW  Elec       q    Type
REMARK                         _______ _______ _______ _____ _____    ______ ____
ROOT
ATOM      1  C   UNL     1       4.222   5.964  17.562  0.00  0.00    +0.000 A 
ATOM      2  C   UNL     1       3.953   5.105  18.653  0.00  0.00    +0.000 A 
ATOM      3  C   UNL     1       3.109   5.519  19.728  0.00  0.00    +0.000 A 
ATOM      4  C   UNL     1       2.547   6.781  19.686  0.00  0.00    +0.000 A 
ATOM      5  C   UNL     1       2.759   7.524  18.528  0.00  0.00    +0.000 A 
ATOM      6  C   UNL     1       3.588   7.193  17.488  0.00  0.00    +0.000 A 
ATOM      7  C   UNL     1       1.914   8.690  18.600  0.00  0.00    +0.000 C 
ATOM      8  O   UNL     1       1.578   9.316  17.619  0.00  0.00    +0.000 OA
ATOM      9  C   UNL     1       1.419   8.734  20.016  0.00  0.00    +0.000 C 
ATOM     10  C   UNL     1       0.909   9.879  20.501  0.00  0.00    +0.000 C 
ATOM     11  C   UNL     1       0.214   9.962  21.829  0.00  0.00    +0.000 C 
ATOM     12  O   UNL     1       0.151   9.100  22.685  0.00  0.00    +0.000 OA
ATOM     13  N   UNL     1      -0.354  11.232  21.862  0.00  0.00    +0.000 N 
ATOM     14  C   UNL     1      -0.016  11.971  20.730  0.00  0.00    +0.000 A 
ATOM     15  C   UNL     1      -0.380  13.277  20.445  0.00  0.00    +0.000 A 
ATOM     16  C   UNL     1       0.113  13.850  19.269  0.00  0.00    +0.000 A 
ATOM     17  C   UNL     1       0.999  13.140  18.452  0.00  0.00    +0.000 A 
ATOM     18  C   UNL     1       1.378  11.838  18.786  0.00  0.00    +0.000 A 
ATOM     19  C   UNL     1       0.807  11.221  19.888  0.00  0.00    +0.000 A 
ATOM     20  N   UNL     1       1.659   7.456  20.541  0.00  0.00    +0.000 N 
ATOM     21  H   UNL     1      -0.901  11.575  22.637  0.00  0.00    +0.000 HD
ATOM     22  H   UNL     1       1.632   7.317  21.546  0.00  0.00    +0.000 HD
ENDROOT
BRANCH   1  24
ATOM     23  N   UNL     1       5.691   4.452  16.280  0.00  0.00    +0.000 N 
ATOM     24  C   UNL     1       5.208   5.726  16.481  0.00  0.00    +0.000 C 
ATOM     25  O   UNL     1       5.520   6.668  15.756  0.00  0.00    +0.000 OA
ATOM     26  H   UNL     1       5.193   3.656  16.661  0.00  0.00    +0.000 HD
BRANCH  23  27
ATOM     27  C   UNL     1       6.474   4.235  15.073  0.00  0.00    +0.000 C 
BRANCH  27  28
ATOM     28  C   UNL     1       5.631   4.106  13.799  0.00  0.00    +0.000 C 
BRANCH  28  30
ATOM     29  C   UNL     1       5.317   2.839  11.741  0.00  0.00    +0.000 C 
ATOM     30  N   UNL     1       6.293   3.367  12.701  0.00  0.00    +0.000 NA
ATOM     31  C   UNL     1       7.215   4.271  12.002  0.00  0.00    +0.000 C 
ENDBRANCH  28  30
ENDBRANCH  27  28
ENDBRANCH  23  27
ENDBRANCH   1  24
TORSDOF 4
ENDMDL
MODEL 3
REMARK VINA RESULT:      -7.9      2.935      4.355
REMARK  Name = 
REMARK  6 active torsions:
REMARK  status: ('A' for Active; 'I' for Inactive)
REMARK    1  A    between atoms: C_1  and  N_2
REMARK    2  A    between atoms: N_2  and  C_3
REMARK    3  A    between atoms: N_2  and  C_4
REMARK    4  A    between atoms: C_4  and  C_5
REMARK    5  A    between atoms: C_5  and  N_6
REMARK    6  A    between atoms: C_7  and  C_9
REMARK                            x       y       z     vdW  Elec       q    Type
REMARK                         _______ _______ _______ _____ _____    ______ ____
ROOT
ATOM      1  C   UNL     1       2.948   5.467  18.906  0.00  0.00    +0.000 A 
ATOM      2  C   UNL     1       2.355   4.983  20.096  0.00  0.00    +0.000 A 
ATOM      3  C   UNL     1       1.627   5.852  20.964  0.00  0.00    +0.000 A 
ATOM      4  C   UNL     1       1.501   7.185  20.622  0.00  0.00    +0.000 A 
ATOM      5  C   UNL     1       2.007   7.564  19.381  0.00  0.00    +0.000 A 
ATOM      6  C   UNL     1       2.746   6.785  18.530  0.00  0.00    +0.000 A 
ATOM      7  C   UNL     1       1.577   8.917  19.133  0.00  0.00    +0.000 C 
ATOM      8  O   UNL     1       1.516   9.390  18.019  0.00  0.00    +0.000 OA
ATOM      9  C   UNL     1       1.040   9.410  20.445  0.00  0.00    +0.000 C 
ATOM     10  C   UNL     1       0.895  10.732  20.643  0.00  0.00    +0.000 C 
ATOM     11  C   UNL     1       0.188  11.302  21.838  0.00  0.00    +0.000 C 
ATOM     12  O   UNL     1      -0.198  10.702  22.824  0.00  0.00    +0.000 OA
ATOM     13  N   UNL     1       0.054  12.660  21.566  0.00  0.00    +0.000 N 
ATOM     14  C   UNL     1       0.676  13.003  20.367  0.00  0.00    +0.000 A 
ATOM     15  C   UNL     1       0.766  14.265  19.803  0.00  0.00    +0.000 A 
ATOM     16  C   UNL     1       1.484  14.398  18.611  0.00  0.00    +0.000 A 
ATOM     17  C   UNL     1       2.143  13.297  18.054  0.00  0.00    +0.000 A 
ATOM     18  C   UNL     1       2.066  12.044  18.667  0.00  0.00    +0.000 A 
ATOM     19  C   UNL     1       1.264  11.879  19.785  0.00  0.00    +0.000 A 
ATOM     20  N   UNL     1       0.828   8.262  21.222  0.00  0.00    +0.000 N 
ATOM     21  H   UNL     1      -0.398  13.310  22.191  0.00  0.00    +0.000 HD
ATOM     22  H   UNL     1       0.699   8.357  22.224  0.00  0.00    +0.000 HD
ENDROOT
BRANCH   1  24
ATOM     23  N   UNL     1       4.300   5.302  16.848  0.00  0.00    +0.000 N 
ATOM     24  C   UNL     1       3.867   4.717  18.017  0.00  0.00    +0.000 C 
ATOM     25  O   UNL     1       4.263   3.613  18.384  0.00  0.00    +0.000 OA
ATOM     26  H   UNL     1       4.226   6.306  16.728  0.00  0.00    +0.000 HD
BRANCH  23  27
ATOM     27  C   UNL     1       5.368   4.620  16.134  0.00  0.00    +0.000 C 
BRANCH  27  28
ATOM     28  C   UNL     1       6.507   5.544  15.688  0.00  0.00    +0.000 C 
BRANCH  28  30
ATOM     29  C   UNL     1       7.345   6.940  17.502  0.00  0.00    +0.000 C 
ATOM     30  N   UNL     1       7.572   5.732  16.699  0.00  0.00    +0.000 NA
ATOM     31  C   UNL     1       7.601   4.564  17.587  0.00  0.00    +0.000 C 
ENDBRANCH  28  30
ENDBRANCH  27  28
ENDBRANCH  23  27
ENDBRANCH   1  24
TORSDOF 4
ENDMDL
MODEL 4
REMARK VINA RESULT:      -7.9      2.932      4.304
REMARK  Name = 
REMARK  6 active torsions:
REMARK  status: ('A' for Active; 'I' for Inactive)
REMARK    1  A    between atoms: C_1  and  N_2
REMARK    2  A    between atoms: N_2  and  C_3
REMARK    3  A    between atoms: N_2  and  C_4
REMARK    4  A    between atoms: C_4  and  C_5
REMARK    5  A    between atoms: C_5  and  N_6
REMARK    6  A    between atoms: C_7  and  C_9
REMARK                            x       y       z     vdW  Elec       q    Type
REMARK                         _______ _______ _______ _____ _____    ______ ____
ROOT
ATOM      1  C   UNL     1       2.926   6.158  18.598  0.00  0.00    +0.000 A 
ATOM      2  C   UNL     1       2.490   5.498  19.771  0.00  0.00    +0.000 A 
ATOM      3  C   UNL     1       1.747   6.190  20.775  0.00  0.00    +0.000 A 
ATOM      4  C   UNL     1       1.450   7.526  20.582  0.00  0.00    +0.000 A 
ATOM      5  C   UNL     1       1.806   8.077  19.354  0.00  0.00    +0.000 A 
ATOM      6  C   UNL     1       2.551   7.472  18.375  0.00  0.00    +0.000 A 
ATOM      7  C   UNL     1       1.212   9.388  19.278  0.00  0.00    +0.000 C 
ATOM      8  O   UNL     1       1.008   9.954  18.227  0.00  0.00    +0.000 OA
ATOM      9  C   UNL     1       0.737   9.689  20.670  0.00  0.00    +0.000 C 
ATOM     10  C   UNL     1       0.467  10.960  21.013  0.00  0.00    +0.000 C 
ATOM     11  C   UNL     1      -0.196  11.329  22.309  0.00  0.00    +0.000 C 
ATOM     12  O   UNL     1      -0.430  10.598  23.253  0.00  0.00    +0.000 OA
ATOM     13  N   UNL     1      -0.498  12.682  22.189  0.00  0.00    +0.000 N 
ATOM     14  C   UNL     1      -0.020  13.206  20.989  0.00  0.00    +0.000 A 
ATOM     15  C   UNL     1      -0.114  14.518  20.554  0.00  0.00    +0.000 A 
ATOM     16  C   UNL     1       0.483  14.845  19.333  0.00  0.00    +0.000 A 
ATOM     17  C   UNL     1       1.208  13.885  18.619  0.00  0.00    +0.000 A 
ATOM     18  C   UNL     1       1.319  12.580  19.103  0.00  0.00    +0.000 A 
ATOM     19  C   UNL     1       0.636  12.218  20.254  0.00  0.00    +0.000 A 
ATOM     20  N   UNL     1       0.716   8.456  21.338  0.00  0.00    +0.000 N 
ATOM     21  H   UNL     1      -0.964  13.213  22.909  0.00  0.00    +0.000 HD
ATOM     22  H   UNL     1       0.662   8.440  22.350  0.00  0.00    +0.000 HD
ENDROOT
BRANCH   1  24
ATOM     23  N   UNL     1       4.615   6.469  16.827  0.00  0.00    +0.000 N 
ATOM     24  C   UNL     1       3.843   5.607  17.572  0.00  0.00    +0.000 C 
ATOM     25  O   UNL     1       3.929   4.386  17.459  0.00  0.00    +0.000 OA
ATOM     26  H   UNL     1       4.767   7.418  17.149  0.00  0.00    +0.000 HD
BRANCH  23  27
ATOM     27  C   UNL     1       5.653   5.869  16.002  0.00  0.00    +0.000 C 
BRANCH  27  28
ATOM     28  C   UNL     1       7.053   5.924  16.625  0.00  0.00    +0.000 C 
BRANCH  28  30
ATOM     29  C   UNL     1       7.830   5.958  18.935  0.00  0.00    +0.000 C 
ATOM     30  N   UNL     1       7.131   6.703  17.881  0.00  0.00    +0.000 NA
ATOM     31  C   UNL     1       7.849   7.957  17.622  0.00  0.00    +0.000 C 
ENDBRANCH  28  30
ENDBRANCH  27  28
ENDBRANCH  23  27
ENDBRANCH   1  24
TORSDOF 4
ENDMDL
MODEL 5
REMARK VINA RESULT:      -7.8      0.886      1.255
REMARK  Name = 
REMARK  6 active torsions:
REMARK  status: ('A' for Active; 'I' for Inactive)
REMARK    1  A    between atoms: C_1  and  N_2
REMARK    2  A    between atoms: N_2  and  C_3
REMARK    3  A    between atoms: N_2  and  C_4
REMARK    4  A    between atoms: C_4  and  C_5
REMARK    5  A    between atoms: C_5  and  N_6
REMARK    6  A    between atoms: C_7  and  C_9
REMARK                            x       y       z     vdW  Elec       q    Type
REMARK                         _______ _______ _______ _____ _____    ______ ____
ROOT
ATOM      1  C   UNL     1       2.174   7.338  19.404  0.00  0.00    +0.000 A 
ATOM      2  C   UNL     1       2.548   7.862  18.144  0.00  0.00    +0.000 A 
ATOM      3  C   UNL     1       2.171   9.183  17.752  0.00  0.00    +0.000 A 
ATOM      4  C   UNL     1       1.435   9.955  18.630  0.00  0.00    +0.000 A 
ATOM      5  C   UNL     1       1.206   9.420  19.895  0.00  0.00    +0.000 A 
ATOM      6  C   UNL     1       1.508   8.149  20.309  0.00  0.00    +0.000 A 
ATOM      7  C   UNL     1       0.628  10.461  20.708  0.00  0.00    +0.000 C 
ATOM      8  O   UNL     1       0.671  10.445  21.918  0.00  0.00    +0.000 OA
ATOM      9  C   UNL     1       0.255  11.552  19.747  0.00  0.00    +0.000 C 
ATOM     10  C   UNL     1      -0.622  12.496  20.132  0.00  0.00    +0.000 C 
ATOM     11  C   UNL     1      -0.902  13.726  19.317  0.00  0.00    +0.000 C 
ATOM     12  O   UNL     1      -0.524  13.963  18.185  0.00  0.00    +0.000 OA
ATOM     13  N   UNL     1      -1.671  14.540  20.142  0.00  0.00    +0.000 N 
ATOM     14  C   UNL     1      -1.964  13.909  21.350  0.00  0.00    +0.000 A 
ATOM     15  C   UNL     1      -2.729  14.410  22.391  0.00  0.00    +0.000 A 
ATOM     16  C   UNL     1      -2.943  13.586  23.500  0.00  0.00    +0.000 A 
ATOM     17  C   UNL     1      -2.452  12.277  23.514  0.00  0.00    +0.000 A 
ATOM     18  C   UNL     1      -1.716  11.786  22.433  0.00  0.00    +0.000 A 
ATOM     19  C   UNL     1      -1.403  12.632  21.380  0.00  0.00    +0.000 A 
ATOM     20  N   UNL     1       0.957  11.274  18.566  0.00  0.00    +0.000 N 
ATOM     21  H   UNL     1      -2.006  15.451  19.867  0.00  0.00    +0.000 HD
ATOM     22  H   UNL     1       0.682  11.731  17.704  0.00  0.00    +0.000 HD
ENDROOT
BRANCH   1  24
ATOM     23  N   UNL     1       3.351   5.173  19.309  0.00  0.00    +0.000 N 
ATOM     24  C   UNL     1       2.348   5.938  19.858  0.00  0.00    +0.000 C 
ATOM     25  O   UNL     1       1.623   5.522  20.760  0.00  0.00    +0.000 OA
ATOM     26  H   UNL     1       4.119   5.620  18.822  0.00  0.00    +0.000 HD
BRANCH  23  27
ATOM     27  C   UNL     1       3.619   3.893  19.948  0.00  0.00    +0.000 C 
BRANCH  27  28
ATOM     28  C   UNL     1       3.155   2.681  19.132  0.00  0.00    +0.000 C 
BRANCH  28  30
ATOM     29  C   UNL     1       1.685   2.369  21.051  0.00  0.00    +0.000 C 
ATOM     30  N   UNL     1       1.922   2.040  19.640  0.00  0.00    +0.000 NA
ATOM     31  C   UNL     1       0.779   2.500  18.842  0.00  0.00    +0.000 C 
ENDBRANCH  28  30
ENDBRANCH  27  28
ENDBRANCH  23  27
ENDBRANCH   1  24
TORSDOF 4
ENDMDL
MODEL 6
REMARK VINA RESULT:      -7.7      2.825      4.035
REMARK  Name = 
REMARK  6 active torsions:
REMARK  status: ('A' for Active; 'I' for Inactive)
REMARK    1  A    between atoms: C_1  and  N_2
REMARK    2  A    between atoms: N_2  and  C_3
REMARK    3  A    between atoms: N_2  and  C_4
REMARK    4  A    between atoms: C_4  and  C_5
REMARK    5  A    between atoms: C_5  and  N_6
REMARK    6  A    between atoms: C_7  and  C_9
REMARK                            x       y       z     vdW  Elec       q    Type
REMARK                         _______ _______ _______ _____ _____    ______ ____
ROOT
ATOM      1  C   UNL     1       2.809   6.552  18.619  0.00  0.00    +0.000 A 
ATOM      2  C   UNL     1       2.504   5.890  19.832  0.00  0.00    +0.000 A 
ATOM      3  C   UNL     1       1.772   6.547  20.867  0.00  0.00    +0.000 A 
ATOM      4  C   UNL     1       1.354   7.849  20.666  0.00  0.00    +0.000 A 
ATOM      5  C   UNL     1       1.585   8.394  19.406  0.00  0.00    +0.000 A 
ATOM      6  C   UNL     1       2.313   7.826  18.393  0.00  0.00    +0.000 A 
ATOM      7  C   UNL     1       0.882   9.650  19.341  0.00  0.00    +0.000 C 
ATOM      8  O   UNL     1       0.565  10.170  18.293  0.00  0.00    +0.000 OA
ATOM      9  C   UNL     1       0.472   9.948  20.754  0.00  0.00    +0.000 C 
ATOM     10  C   UNL     1       0.121  11.202  21.088  0.00  0.00    +0.000 C 
ATOM     11  C   UNL     1      -0.486  11.550  22.416  0.00  0.00    +0.000 C 
ATOM     12  O   UNL     1      -0.600  10.828  23.388  0.00  0.00    +0.000 OA
ATOM     13  N   UNL     1      -0.906  12.871  22.287  0.00  0.00    +0.000 N 
ATOM     14  C   UNL     1      -0.549  13.401  21.048  0.00  0.00    +0.000 A 
ATOM     15  C   UNL     1      -0.779  14.688  20.592  0.00  0.00    +0.000 A 
ATOM     16  C   UNL     1      -0.289  15.030  19.328  0.00  0.00    +0.000 A 
ATOM     17  C   UNL     1       0.465  14.114  18.589  0.00  0.00    +0.000 A 
ATOM     18  C   UNL     1       0.714  12.835  19.092  0.00  0.00    +0.000 A 
ATOM     19  C   UNL     1       0.137  12.449  20.292  0.00  0.00    +0.000 A 
ATOM     20  N   UNL     1       0.596   8.736  21.448  0.00  0.00    +0.000 N 
ATOM     21  H   UNL     1      -1.368  13.381  23.025  0.00  0.00    +0.000 HD
ATOM     22  H   UNL     1       0.607   8.742  22.462  0.00  0.00    +0.000 HD
ENDROOT
BRANCH   1  24
ATOM     23  N   UNL     1       4.437   6.949  16.808  0.00  0.00    +0.000 N 
ATOM     24  C   UNL     1       3.701   6.050  17.547  0.00  0.00    +0.000 C 
ATOM     25  O   UNL     1       3.801   4.835  17.390  0.00  0.00    +0.000 OA
ATOM     26  H   UNL     1       4.586   7.888  17.157  0.00  0.00    +0.000 HD
BRANCH  23  27
ATOM     27  C   UNL     1       5.457   6.392  15.932  0.00  0.00    +0.000 C 
BRANCH  27  28
ATOM     28  C   UNL     1       6.867   6.398  16.536  0.00  0.00    +0.000 C 
BRANCH  28  30
ATOM     29  C   UNL     1       7.716   4.529  17.849  0.00  0.00    +0.000 C 
ATOM     30  N   UNL     1       7.550   5.086  16.501  0.00  0.00    +0.000 NA
ATOM     31  C   UNL     1       6.758   4.153  15.691  0.00  0.00    +0.000 C 
ENDBRANCH  28  30
ENDBRANCH  27  28
ENDBRANCH  23  27
ENDBRANCH   1  24
TORSDOF 4
ENDMDL
MODEL 7
REMARK VINA RESULT:      -7.7      2.747      9.010
REMARK  Name = 
REMARK  6 active torsions:
REMARK  status: ('A' for Active; 'I' for Inactive)
REMARK    1  A    between atoms: C_1  and  N_2
REMARK    2  A    between atoms: N_2  and  C_3
REMARK    3  A    between atoms: N_2  and  C_4
REMARK    4  A    between atoms: C_4  and  C_5
REMARK    5  A    between atoms: C_5  and  N_6
REMARK    6  A    between atoms: C_7  and  C_9
REMARK                            x       y       z     vdW  Elec       q    Type
REMARK                         _______ _______ _______ _____ _____    ______ ____
ROOT
ATOM      1  C   UNL     1       0.351   9.637  20.059  0.00  0.00    +0.000 A 
ATOM      2  C   UNL     1       0.080   8.886  21.227  0.00  0.00    +0.000 A 
ATOM      3  C   UNL     1       0.726   7.634  21.466  0.00  0.00    +0.000 A 
ATOM      4  C   UNL     1       1.634   7.164  20.537  0.00  0.00    +0.000 A 
ATOM      5  C   UNL     1       1.939   8.010  19.475  0.00  0.00    +0.000 A 
ATOM      6  C   UNL     1       1.324   9.199  19.176  0.00  0.00    +0.000 A 
ATOM      7  C   UNL     1       3.052   7.431  18.765  0.00  0.00    +0.000 C 
ATOM      8  O   UNL     1       3.786   8.083  18.055  0.00  0.00    +0.000 OA
ATOM      9  C   UNL     1       3.183   6.036  19.303  0.00  0.00    +0.000 C 
ATOM     10  C   UNL     1       3.882   5.124  18.606  0.00  0.00    +0.000 C 
ATOM     11  C   UNL     1       4.229   3.771  19.157  0.00  0.00    +0.000 C 
ATOM     12  O   UNL     1       3.823   3.266  20.187  0.00  0.00    +0.000 OA
ATOM     13  N   UNL     1       5.128   3.228  18.244  0.00  0.00    +0.000 N 
ATOM     14  C   UNL     1       5.310   4.068  17.147  0.00  0.00    +0.000 A 
ATOM     15  C   UNL     1       6.107   3.834  16.038  0.00  0.00    +0.000 A 
ATOM     16  C   UNL     1       6.106   4.792  15.020  0.00  0.00    +0.000 A 
ATOM     17  C   UNL     1       5.271   5.911  15.101  0.00  0.00    +0.000 A 
ATOM     18  C   UNL     1       4.449   6.100  16.214  0.00  0.00    +0.000 A 
ATOM     19  C   UNL     1       4.527   5.216  17.279  0.00  0.00    +0.000 A 
ATOM     20  N   UNL     1       2.451   6.022  20.499  0.00  0.00    +0.000 N 
ATOM     21  H   UNL     1       5.550   2.318  18.355  0.00  0.00    +0.000 HD
ATOM     22  H   UNL     1       2.194   5.133  20.914  0.00  0.00    +0.000 HD
ENDROOT
BRANCH   1  24
ATOM     23  N   UNL     1      -0.343  11.198  18.278  0.00  0.00    +0.000 N 
ATOM     24  C   UNL     1      -0.371  10.851  19.611  0.00  0.00    +0.000 C 
ATOM     25  O   UNL     1      -1.026  11.481  20.439  0.00  0.00    +0.000 OA
ATOM     26  H   UNL     1      -0.080  10.509  17.583  0.00  0.00    +0.000 HD
BRANCH  23  27
ATOM     27  C   UNL     1      -1.247  12.258  17.861  0.00  0.00    +0.000 C 
BRANCH  27  28
ATOM     28  C   UNL     1      -2.533  11.754  17.196  0.00  0.00    +0.000 C 
BRANCH  28  30
ATOM     29  C   UNL     1      -3.378   9.493  17.536  0.00  0.00    +0.000 C 
ATOM     30  N   UNL     1      -2.477  10.344  16.750  0.00  0.00    +0.000 NA
ATOM     31  C   UNL     1      -2.862  10.273  15.335  0.00  0.00    +0.000 C 
ENDBRANCH  28  30
ENDBRANCH  27  28
ENDBRANCH  23  27
ENDBRANCH   1  24
TORSDOF 4
ENDMDL
MODEL 8
REMARK VINA RESULT:      -7.6      3.241      4.567
REMARK  Name = 
REMARK  6 active torsions:
REMARK  status: ('A' for Active; 'I' for Inactive)
REMARK    1  A    between atoms: C_1  and  N_2
REMARK    2  A    between atoms: N_2  and  C_3
REMARK    3  A    between atoms: N_2  and  C_4
REMARK    4  A    between atoms: C_4  and  C_5
REMARK    5  A    between atoms: C_5  and  N_6
REMARK    6  A    between atoms: C_7  and  C_9
REMARK                            x       y       z     vdW  Elec       q    Type
REMARK                         _______ _______ _______ _____ _____    ______ ____
ROOT
ATOM      1  C   UNL     1       3.290   5.471  18.469  0.00  0.00    +0.000 A 
ATOM      2  C   UNL     1       2.813   4.874  19.661  0.00  0.00    +0.000 A 
ATOM      3  C   UNL     1       2.074   5.631  20.621  0.00  0.00    +0.000 A 
ATOM      4  C   UNL     1       1.820   6.966  20.366  0.00  0.00    +0.000 A 
ATOM      5  C   UNL     1       2.215   7.452  19.122  0.00  0.00    +0.000 A 
ATOM      6  C   UNL     1       2.959   6.785  18.184  0.00  0.00    +0.000 A 
ATOM      7  C   UNL     1       1.663   8.776  18.980  0.00  0.00    +0.000 C 
ATOM      8  O   UNL     1       1.494   9.302  17.902  0.00  0.00    +0.000 OA
ATOM      9  C   UNL     1       1.171   9.150  20.348  0.00  0.00    +0.000 C 
ATOM     10  C   UNL     1       0.934  10.442  20.633  0.00  0.00    +0.000 C 
ATOM     11  C   UNL     1       0.260  10.885  21.899  0.00  0.00    +0.000 C 
ATOM     12  O   UNL     1      -0.014  10.203  22.868  0.00  0.00    +0.000 OA
ATOM     13  N   UNL     1       0.001  12.240  21.716  0.00  0.00    +0.000 N 
ATOM     14  C   UNL     1       0.516  12.699  20.505  0.00  0.00    +0.000 A 
ATOM     15  C   UNL     1       0.469  13.993  20.013  0.00  0.00    +0.000 A 
ATOM     16  C   UNL     1       1.098  14.250  18.791  0.00  0.00    +0.000 A 
ATOM     17  C   UNL     1       1.806  13.240  18.132  0.00  0.00    +0.000 A 
ATOM     18  C   UNL     1       1.869  11.953  18.673  0.00  0.00    +0.000 A 
ATOM     19  C   UNL     1       1.155  11.661  19.824  0.00  0.00    +0.000 A 
ATOM     20  N   UNL     1       1.102   7.948  21.067  0.00  0.00    +0.000 N 
ATOM     21  H   UNL     1      -0.462  12.815  22.404  0.00  0.00    +0.000 HD
ATOM     22  H   UNL     1       1.029   7.977  22.078  0.00  0.00    +0.000 HD
ENDROOT
BRANCH   1  24
ATOM     23  N   UNL     1       5.535   5.217  17.479  0.00  0.00    +0.000 N 
ATOM     24  C   UNL     1       4.208   4.850  17.486  0.00  0.00    +0.000 C 
ATOM     25  O   UNL     1       3.764   3.978  16.741  0.00  0.00    +0.000 OA
ATOM     26  H   UNL     1       5.936   5.678  18.287  0.00  0.00    +0.000 HD
BRANCH  23  27
ATOM     27  C   UNL     1       6.428   4.418  16.653  0.00  0.00    +0.000 C 
BRANCH  27  28
ATOM     28  C   UNL     1       7.238   5.236  15.641  0.00  0.00    +0.000 C 
BRANCH  28  30
ATOM     29  C   UNL     1       7.823   5.241  13.275  0.00  0.00    +0.000 C 
ATOM     30  N   UNL     1       6.731   5.162  14.252  0.00  0.00    +0.000 NA
ATOM     31  C   UNL     1       6.014   3.894  14.070  0.00  0.00    +0.000 C 
ENDBRANCH  28  30
ENDBRANCH  27  28
ENDBRANCH  23  27
ENDBRANCH   1  24
TORSDOF 4
ENDMDL
MODEL 9
REMARK VINA RESULT:      -7.6      2.774      9.260
REMARK  Name = 
REMARK  6 active torsions:
REMARK  status: ('A' for Active; 'I' for Inactive)
REMARK    1  A    between atoms: C_1  and  N_2
REMARK    2  A    between atoms: N_2  and  C_3
REMARK    3  A    between atoms: N_2  and  C_4
REMARK    4  A    between atoms: C_4  and  C_5
REMARK    5  A    between atoms: C_5  and  N_6
REMARK    6  A    between atoms: C_7  and  C_9
REMARK                            x       y       z     vdW  Elec       q    Type
REMARK                         _______ _______ _______ _____ _____    ______ ____
ROOT
ATOM      1  C   UNL     1       0.314   9.734  19.739  0.00  0.00    +0.000 A 
ATOM      2  C   UNL     1       0.048   9.054  20.951  0.00  0.00    +0.000 A 
ATOM      3  C   UNL     1       0.724   7.839  21.280  0.00  0.00    +0.000 A 
ATOM      4  C   UNL     1       1.656   7.333  20.393  0.00  0.00    +0.000 A 
ATOM      5  C   UNL     1       1.952   8.116  19.280  0.00  0.00    +0.000 A 
ATOM      6  C   UNL     1       1.310   9.265  18.897  0.00  0.00    +0.000 A 
ATOM      7  C   UNL     1       3.089   7.522  18.623  0.00  0.00    +0.000 C 
ATOM      8  O   UNL     1       3.814   8.146  17.879  0.00  0.00    +0.000 OA
ATOM      9  C   UNL     1       3.250   6.170  19.254  0.00  0.00    +0.000 C 
ATOM     10  C   UNL     1       3.982   5.233  18.626  0.00  0.00    +0.000 C 
ATOM     11  C   UNL     1       4.358   3.929  19.269  0.00  0.00    +0.000 C 
ATOM     12  O   UNL     1       3.952   3.482  20.326  0.00  0.00    +0.000 OA
ATOM     13  N   UNL     1       5.282   3.352  18.404  0.00  0.00    +0.000 N 
ATOM     14  C   UNL     1       5.456   4.123  17.255  0.00  0.00    +0.000 A 
ATOM     15  C   UNL     1       6.272   3.838  16.173  0.00  0.00    +0.000 A 
ATOM     16  C   UNL     1       6.259   4.726  15.094  0.00  0.00    +0.000 A 
ATOM     17  C   UNL     1       5.393   5.825  15.091  0.00  0.00    +0.000 A 
ATOM     18  C   UNL     1       4.553   6.065  16.181  0.00  0.00    +0.000 A 
ATOM     19  C   UNL     1       4.641   5.254  17.302  0.00  0.00    +0.000 A 
ATOM     20  N   UNL     1       2.503   6.214  20.440  0.00  0.00    +0.000 N 
ATOM     21  H   UNL     1       5.727   2.463  18.579  0.00  0.00    +0.000 HD
ATOM     22  H   UNL     1       2.265   5.347  20.910  0.00  0.00    +0.000 HD
ENDROOT
BRANCH   1  24
ATOM     23  N   UNL     1      -0.976  10.822  17.939  0.00  0.00    +0.000 N 
ATOM     24  C   UNL     1      -0.434  10.895  19.203  0.00  0.00    +0.000 C 
ATOM     25  O   UNL     1      -0.600  11.871  19.932  0.00  0.00    +0.000 OA
ATOM     26  H   UNL     1      -1.106   9.920  17.497  0.00  0.00    +0.000 HD
BRANCH  23  27
ATOM     27  C   UNL     1      -1.885  11.892  17.557  0.00  0.00    +0.000 C 
BRANCH  27  28
ATOM     28  C   UNL     1      -3.320  11.423  17.288  0.00  0.00    +0.000 C 
BRANCH  28  30
ATOM     29  C   UNL     1      -4.105  12.348  19.402  0.00  0.00    +0.000 C 
ATOM     30  N   UNL     1      -4.122  11.184  18.509  0.00  0.00    +0.000 NA
ATOM     31  C   UNL     1      -5.508  10.895  18.122  0.00  0.00    +0.000 C 
ENDBRANCH  28  30
ENDBRANCH  27  28
ENDBRANCH  23  27
ENDBRANCH   1  24
TORSDOF 4
ENDMDL
