MODEL 1
REMARK VINA RESULT:      -7.6      0.000      0.000
REMARK  Name = 
REMARK  3 active torsions:
REMARK  status: ('A' for Active; 'I' for Inactive)
REMARK    1  A    between atoms: O_1  and  C_2
REMARK    2  A    between atoms: C_7  and  C_8
REMARK    3  A    between atoms: C_16  and  C_17
REMARK                            x       y       z     vdW  Elec       q    Type
REMARK                         _______ _______ _______ _____ _____    ______ ____
ROOT
ATOM      1  C   UNL     1      -1.119  12.054  20.992  0.00  0.00    +0.000 C 
ATOM      2  C   UNL     1      -0.237  11.159  20.509  0.00  0.00    +0.000 C 
ATOM      3  C   UNL     1      -0.018   9.903  21.292  0.00  0.00    +0.000 C 
ATOM      4  N   UNL     1       0.708   8.902  20.898  0.00  0.00    +0.000 NA
ATOM      5  C   UNL     1       1.325   8.952  19.699  0.00  0.00    +0.000 A 
ATOM      6  C   UNL     1       2.105   8.034  19.037  0.00  0.00    +0.000 A 
ATOM      7  C   UNL     1       2.487   8.669  17.838  0.00  0.00    +0.000 A 
ATOM      8  N   UNL     1       1.946   9.889  17.713  0.00  0.00    +0.000 NA
ATOM      9  N   UNL     1       1.282  10.051  18.883  0.00  0.00    +0.000 N 
ATOM     10  C   UNL     1       0.564  11.281  19.219  0.00  0.00    +0.000 C 
ATOM     11  C   UNL     1      -0.697   9.690  22.628  0.00  0.00    +0.000 C 
ATOM     12  C   UNL     1      -1.259  10.934  23.272  0.00  0.00    +0.000 C 
ATOM     13  C   UNL     1      -1.878  11.905  22.282  0.00  0.00    +0.000 C 
ENDROOT
BRANCH  10  14
ATOM     14  C   UNL     1       1.544  12.457  19.231  0.00  0.00    +0.000 A 
ATOM     15  C   UNL     1       1.880  13.104  18.030  0.00  0.00    +0.000 A 
ATOM     16  C   UNL     1       2.795  14.161  18.022  0.00  0.00    +0.000 A 
ATOM     17  C   UNL     1       3.392  14.585  19.211  0.00  0.00    +0.000 A 
ATOM     18 CL   UNL     1       4.518  15.894  19.128  0.00  0.00    +0.000 Cl
ATOM     19  C   UNL     1       3.073  13.948  20.414  0.00  0.00    +0.000 A 
ATOM     20 CL   UNL     1       3.763  14.416  21.927  0.00  0.00    +0.000 Cl
ATOM     21  C   UNL     1       2.163  12.886  20.419  0.00  0.00    +0.000 A 
ENDBRANCH  10  14
BRANCH   6  22
ATOM     22  C   UNL     1       2.458   6.685  19.539  0.00  0.00    +0.000 A 
ATOM     23  C   UNL     1       1.718   5.928  20.430  0.00  0.00    +0.000 A 
ATOM     24  C   UNL     1       2.435   4.730  20.660  0.00  0.00    +0.000 A 
ATOM     25  C   UNL     1       3.565   4.816  19.884  0.00  0.00    +0.000 A 
ATOM     26  O   UNL     1       3.583   5.988  19.189  0.00  0.00    +0.000 OA
ENDBRANCH   6  22
BRANCH   1  27
ATOM     27  O   UNL     1      -1.427  13.246  20.352  0.00  0.00    +0.000 OA
ATOM     28  H   UNL     1      -2.085  13.123  19.649  0.00  0.00    +0.000 HD
ENDBRANCH   1  27
TORSDOF 3
ENDMDL
MODEL 2
REMARK VINA RESULT:      -7.5      4.024      6.570
REMARK  Name = 
REMARK  3 active torsions:
REMARK  status: ('A' for Active; 'I' for Inactive)
REMARK    1  A    between atoms: O_1  and  C_2
REMARK    2  A    between atoms: C_7  and  C_8
REMARK    3  A    between atoms: C_16  and  C_17
REMARK                            x       y       z     vdW  Elec       q    Type
REMARK                         _______ _______ _______ _____ _____    ______ ____
ROOT
ATOM      1  C   UNL     1       0.830  12.967  20.576  0.00  0.00    +0.000 C 
ATOM      2  C   UNL     1      -0.202  12.393  19.929  0.00  0.00    +0.000 C 
ATOM      3  C   UNL     1      -1.587  12.764  20.358  0.00  0.00    +0.000 C 
ATOM      4  N   UNL     1      -2.674  12.386  19.757  0.00  0.00    +0.000 NA
ATOM      5  C   UNL     1      -2.596  11.605  18.659  0.00  0.00    +0.000 A 
ATOM      6  C   UNL     1      -3.569  11.105  17.828  0.00  0.00    +0.000 A 
ATOM      7  C   UNL     1      -2.878  10.333  16.872  0.00  0.00    +0.000 A 
ATOM      8  N   UNL     1      -1.550  10.378  17.045  0.00  0.00    +0.000 NA
ATOM      9  N   UNL     1      -1.413  11.123  18.169  0.00  0.00    +0.000 N 
ATOM     10  C   UNL     1      -0.110  11.403  18.776  0.00  0.00    +0.000 C 
ATOM     11  C   UNL     1      -1.817  13.682  21.539  0.00  0.00    +0.000 C 
ATOM     12  C   UNL     1      -0.631  13.864  22.456  0.00  0.00    +0.000 C 
ATOM     13  C   UNL     1       0.699  13.929  21.725  0.00  0.00    +0.000 C 
ENDROOT
BRANCH  10  14
ATOM     14  C   UNL     1       0.564  10.086  19.169  0.00  0.00    +0.000 A 
ATOM     15  C   UNL     1       0.275   9.492  20.409  0.00  0.00    +0.000 A 
ATOM     16  C   UNL     1       0.904   8.304  20.794  0.00  0.00    +0.000 A 
ATOM     17  C   UNL     1       1.834   7.694  19.949  0.00  0.00    +0.000 A 
ATOM     18 CL   UNL     1       2.578   6.230  20.490  0.00  0.00    +0.000 Cl
ATOM     19  C   UNL     1       2.138   8.276  18.715  0.00  0.00    +0.000 A 
ATOM     20 CL   UNL     1       3.272   7.581  17.612  0.00  0.00    +0.000 Cl
ATOM     21  C   UNL     1       1.513   9.468  18.334  0.00  0.00    +0.000 A 
ENDBRANCH  10  14
BRANCH   6  22
ATOM     22  C   UNL     1      -5.026  11.339  17.970  0.00  0.00    +0.000 A 
ATOM     23  C   UNL     1      -5.755  12.334  17.343  0.00  0.00    +0.000 A 
ATOM     24  C   UNL     1      -7.094  12.215  17.786  0.00  0.00    +0.000 A 
ATOM     25  C   UNL     1      -7.109  11.144  18.647  0.00  0.00    +0.000 A 
ATOM     26  O   UNL     1      -5.867  10.597  18.754  0.00  0.00    +0.000 OA
ENDBRANCH   6  22
BRANCH   1  27
ATOM     27  O   UNL     1       2.160  12.724  20.262  0.00  0.00    +0.000 OA
ATOM     28  H   UNL     1       2.753  12.939  21.000  0.00  0.00    +0.000 HD
ENDBRANCH   1  27
TORSDOF 3
ENDMDL
MODEL 3
REMARK VINA RESULT:      -7.3      0.813      1.562
REMARK  Name = 
REMARK  3 active torsions:
REMARK  status: ('A' for Active; 'I' for Inactive)
REMARK    1  A    between atoms: O_1  and  C_2
REMARK    2  A    between atoms: C_7  and  C_8
REMARK    3  A    between atoms: C_16  and  C_17
REMARK                            x       y       z     vdW  Elec       q    Type
REMARK                         _______ _______ _______ _____ _____    ______ ____
ROOT
ATOM      1  C   UNL     1      -1.057  12.356  20.979  0.00  0.00    +0.000 C 
ATOM      2  C   UNL     1      -0.198  11.432  20.510  0.00  0.00    +0.000 C 
ATOM      3  C   UNL     1      -0.080  10.144  21.263  0.00  0.00    +0.000 C 
ATOM      4  N   UNL     1       0.615   9.119  20.872  0.00  0.00    +0.000 NA
ATOM      5  C   UNL     1       1.292   9.173  19.707  0.00  0.00    +0.000 A 
ATOM      6  C   UNL     1       2.057   8.237  19.054  0.00  0.00    +0.000 A 
ATOM      7  C   UNL     1       2.529   8.886  17.896  0.00  0.00    +0.000 A 
ATOM      8  N   UNL     1       2.056  10.135  17.783  0.00  0.00    +0.000 NA
ATOM      9  N   UNL     1       1.343  10.296  18.925  0.00  0.00    +0.000 N 
ATOM     10  C   UNL     1       0.671  11.551  19.265  0.00  0.00    +0.000 C 
ATOM     11  C   UNL     1      -0.834   9.927  22.558  0.00  0.00    +0.000 C 
ATOM     12  C   UNL     1      -1.366  11.178  23.213  0.00  0.00    +0.000 C 
ATOM     13  C   UNL     1      -1.886  12.208  22.226  0.00  0.00    +0.000 C 
ENDROOT
BRANCH  10  14
ATOM     14  C   UNL     1       1.705  12.675  19.361  0.00  0.00    +0.000 A 
ATOM     15  C   UNL     1       2.334  12.948  20.588  0.00  0.00    +0.000 A 
ATOM     16  C   UNL     1       3.260  13.990  20.698  0.00  0.00    +0.000 A 
ATOM     17  C   UNL     1       3.569  14.778  19.587  0.00  0.00    +0.000 A 
ATOM     18 CL   UNL     1       4.719  16.052  19.795  0.00  0.00    +0.000 Cl
ATOM     19  C   UNL     1       2.948  14.524  18.361  0.00  0.00    +0.000 A 
ATOM     20 CL   UNL     1       3.279  15.448  16.939  0.00  0.00    +0.000 Cl
ATOM     21  C   UNL     1       2.016  13.486  18.254  0.00  0.00    +0.000 A 
ENDBRANCH  10  14
BRANCH   6  22
ATOM     22  C   UNL     1       2.318   6.857  19.530  0.00  0.00    +0.000 A 
ATOM     23  C   UNL     1       3.243   5.975  19.000  0.00  0.00    +0.000 A 
ATOM     24  C   UNL     1       3.135   4.767  19.729  0.00  0.00    +0.000 A 
ATOM     25  C   UNL     1       2.162   4.986  20.674  0.00  0.00    +0.000 A 
ATOM     26  O   UNL     1       1.671   6.252  20.573  0.00  0.00    +0.000 OA
ENDBRANCH   6  22
BRANCH   1  27
ATOM     27  O   UNL     1      -1.275  13.581  20.363  0.00  0.00    +0.000 OA
ATOM     28  H   UNL     1      -0.485  13.900  19.898  0.00  0.00    +0.000 HD
ENDBRANCH   1  27
TORSDOF 3
ENDMDL
MODEL 4
REMARK VINA RESULT:      -7.3      4.201      7.092
REMARK  Name = 
REMARK  3 active torsions:
REMARK  status: ('A' for Active; 'I' for Inactive)
REMARK    1  A    between atoms: O_1  and  C_2
REMARK    2  A    between atoms: C_7  and  C_8
REMARK    3  A    between atoms: C_16  and  C_17
REMARK                            x       y       z     vdW  Elec       q    Type
REMARK                         _______ _______ _______ _____ _____    ______ ____
ROOT
ATOM      1  C   UNL     1      -2.108  10.997  17.699  0.00  0.00    +0.000 C 
ATOM      2  C   UNL     1      -2.425  11.579  18.871  0.00  0.00    +0.000 C 
ATOM      3  C   UNL     1      -3.860  11.933  19.108  0.00  0.00    +0.000 C 
ATOM      4  N   UNL     1      -4.335  12.389  20.227  0.00  0.00    +0.000 NA
ATOM      5  C   UNL     1      -3.512  12.569  21.281  0.00  0.00    +0.000 A 
ATOM      6  C   UNL     1      -3.757  12.993  22.564  0.00  0.00    +0.000 A 
ATOM      7  C   UNL     1      -2.497  13.006  23.197  0.00  0.00    +0.000 A 
ATOM      8  N   UNL     1      -1.519  12.569  22.392  0.00  0.00    +0.000 NA
ATOM      9  N   UNL     1      -2.161  12.355  21.218  0.00  0.00    +0.000 N 
ATOM     10  C   UNL     1      -1.468  11.907  20.009  0.00  0.00    +0.000 C 
ATOM     11  C   UNL     1      -4.902  11.726  18.029  0.00  0.00    +0.000 C 
ATOM     12  C   UNL     1      -4.357  11.529  16.635  0.00  0.00    +0.000 C 
ATOM     13  C   UNL     1      -3.082  10.705  16.590  0.00  0.00    +0.000 C 
ENDROOT
BRANCH  10  14
ATOM     14  C   UNL     1      -0.405  12.937  19.619  0.00  0.00    +0.000 A 
ATOM     15  C   UNL     1       0.959  12.616  19.726  0.00  0.00    +0.000 A 
ATOM     16  C   UNL     1       1.940  13.556  19.402  0.00  0.00    +0.000 A 
ATOM     17  C   UNL     1       1.577  14.833  18.968  0.00  0.00    +0.000 A 
ATOM     18 CL   UNL     1       2.842  15.947  18.587  0.00  0.00    +0.000 Cl
ATOM     19  C   UNL     1       0.225  15.171  18.861  0.00  0.00    +0.000 A 
ATOM     20 CL   UNL     1      -0.307  16.726  18.328  0.00  0.00    +0.000 Cl
ATOM     21  C   UNL     1      -0.757  14.232  19.194  0.00  0.00    +0.000 A 
ENDBRANCH  10  14
BRANCH   6  22
ATOM     22  C   UNL     1      -5.084  13.369  23.108  0.00  0.00    +0.000 A 
ATOM     23  C   UNL     1      -5.568  14.657  23.255  0.00  0.00    +0.000 A 
ATOM     24  C   UNL     1      -6.852  14.557  23.840  0.00  0.00    +0.000 A 
ATOM     25  C   UNL     1      -7.087  13.213  24.002  0.00  0.00    +0.000 A 
ATOM     26  O   UNL     1      -6.030  12.484  23.548  0.00  0.00    +0.000 OA
ENDBRANCH   6  22
BRANCH   1  27
ATOM     27  O   UNL     1      -0.821  10.602  17.365  0.00  0.00    +0.000 OA
ATOM     28  H   UNL     1      -0.356  10.201  18.117  0.00  0.00    +0.000 HD
ENDBRANCH   1  27
TORSDOF 3
ENDMDL
MODEL 5
REMARK VINA RESULT:      -7.2      3.957      6.417
REMARK  Name = 
REMARK  3 active torsions:
REMARK  status: ('A' for Active; 'I' for Inactive)
REMARK    1  A    between atoms: O_1  and  C_2
REMARK    2  A    between atoms: C_7  and  C_8
REMARK    3  A    between atoms: C_16  and  C_17
REMARK                            x       y       z     vdW  Elec       q    Type
REMARK                         _______ _______ _______ _____ _____    ______ ____
ROOT
ATOM      1  C   UNL     1       0.872  13.191  20.334  0.00  0.00    +0.000 C 
ATOM      2  C   UNL     1      -0.171  12.588  19.734  0.00  0.00    +0.000 C 
ATOM      3  C   UNL     1      -1.538  12.854  20.280  0.00  0.00    +0.000 C 
ATOM      4  N   UNL     1      -2.644  12.440  19.741  0.00  0.00    +0.000 NA
ATOM      5  C   UNL     1      -2.606  11.719  18.601  0.00  0.00    +0.000 A 
ATOM      6  C   UNL     1      -3.608  11.201  17.817  0.00  0.00    +0.000 A 
ATOM      7  C   UNL     1      -2.948  10.519  16.774  0.00  0.00    +0.000 A 
ATOM      8  N   UNL     1      -1.616  10.636  16.853  0.00  0.00    +0.000 NA
ATOM      9  N   UNL     1      -1.437  11.333  18.001  0.00  0.00    +0.000 N 
ATOM     10  C   UNL     1      -0.110  11.662  18.526  0.00  0.00    +0.000 C 
ATOM     11  C   UNL     1      -1.731  13.698  21.522  0.00  0.00    +0.000 C 
ATOM     12  C   UNL     1      -0.492  13.907  22.359  0.00  0.00    +0.000 C 
ATOM     13  C   UNL     1       0.774  14.087  21.539  0.00  0.00    +0.000 C 
ENDROOT
BRANCH  10  14
ATOM     14  C   UNL     1       0.665  10.370  18.800  0.00  0.00    +0.000 A 
ATOM     15  C   UNL     1       1.519   9.841  17.818  0.00  0.00    +0.000 A 
ATOM     16  C   UNL     1       2.210   8.647  18.043  0.00  0.00    +0.000 A 
ATOM     17  C   UNL     1       2.057   7.961  19.250  0.00  0.00    +0.000 A 
ATOM     18 CL   UNL     1       2.939   6.489  19.460  0.00  0.00    +0.000 Cl
ATOM     19  C   UNL     1       1.207   8.471  20.236  0.00  0.00    +0.000 A 
ATOM     20 CL   UNL     1       0.968   7.686  21.756  0.00  0.00    +0.000 Cl
ATOM     21  C   UNL     1       0.509   9.661  20.006  0.00  0.00    +0.000 A 
ENDBRANCH  10  14
BRANCH   6  22
ATOM     22  C   UNL     1      -5.061  11.340  18.076  0.00  0.00    +0.000 A 
ATOM     23  C   UNL     1      -5.866  12.387  17.660  0.00  0.00    +0.000 A 
ATOM     24  C   UNL     1      -7.168  12.135  18.152  0.00  0.00    +0.000 A 
ATOM     25  C   UNL     1      -7.089  10.940  18.826  0.00  0.00    +0.000 A 
ATOM     26  O   UNL     1      -5.823  10.443  18.774  0.00  0.00    +0.000 OA
ENDBRANCH   6  22
BRANCH   1  27
ATOM     27  O   UNL     1       2.187  13.044  19.913  0.00  0.00    +0.000 OA
ATOM     28  H   UNL     1       2.435  13.713  19.254  0.00  0.00    +0.000 HD
ENDBRANCH   1  27
TORSDOF 3
ENDMDL
MODEL 6
REMARK VINA RESULT:      -7.1      3.305      5.337
REMARK  Name = 
REMARK  3 active torsions:
REMARK  status: ('A' for Active; 'I' for Inactive)
REMARK    1  A    between atoms: O_1  and  C_2
REMARK    2  A    between atoms: C_7  and  C_8
REMARK    3  A    between atoms: C_16  and  C_17
REMARK                            x       y       z     vdW  Elec       q    Type
REMARK                         _______ _______ _______ _____ _____    ______ ____
ROOT
ATOM      1  C   UNL     1       0.242  14.769  21.272  0.00  0.00    +0.000 C 
ATOM      2  C   UNL     1       0.269  13.434  21.107  0.00  0.00    +0.000 C 
ATOM      3  C   UNL     1       1.060  12.889  19.959  0.00  0.00    +0.000 C 
ATOM      4  N   UNL     1       1.274  11.628  19.741  0.00  0.00    +0.000 NA
ATOM      5  C   UNL     1       0.771  10.705  20.587  0.00  0.00    +0.000 A 
ATOM      6  C   UNL     1       0.878   9.336  20.610  0.00  0.00    +0.000 A 
ATOM      7  C   UNL     1       0.111   8.922  21.718  0.00  0.00    +0.000 A 
ATOM      8  N   UNL     1      -0.408   9.957  22.392  0.00  0.00    +0.000 NA
ATOM      9  N   UNL     1      -0.028  11.027  21.652  0.00  0.00    +0.000 N 
ATOM     10  C   UNL     1      -0.416  12.398  21.988  0.00  0.00    +0.000 C 
ATOM     11  C   UNL     1       1.729  13.814  18.965  0.00  0.00    +0.000 C 
ATOM     12  C   UNL     1       1.236  15.241  18.977  0.00  0.00    +0.000 C 
ATOM     13  C   UNL     1       0.919  15.764  20.368  0.00  0.00    +0.000 C 
ENDROOT
BRANCH  10  14
ATOM     14  C   UNL     1      -1.942  12.514  21.974  0.00  0.00    +0.000 A 
ATOM     15  C   UNL     1      -2.619  12.732  20.762  0.00  0.00    +0.000 A 
ATOM     16  C   UNL     1      -4.009  12.869  20.737  0.00  0.00    +0.000 A 
ATOM     17  C   UNL     1      -4.746  12.795  21.921  0.00  0.00    +0.000 A 
ATOM     18 CL   UNL     1      -6.462  12.978  21.818  0.00  0.00    +0.000 Cl
ATOM     19  C   UNL     1      -4.088  12.586  23.136  0.00  0.00    +0.000 A 
ATOM     20 CL   UNL     1      -4.926  12.477  24.643  0.00  0.00    +0.000 Cl
ATOM     21  C   UNL     1      -2.695  12.456  23.161  0.00  0.00    +0.000 A 
ENDBRANCH  10  14
BRANCH   6  22
ATOM     22  C   UNL     1       1.634   8.516  19.632  0.00  0.00    +0.000 A 
ATOM     23  C   UNL     1       1.855   8.832  18.304  0.00  0.00    +0.000 A 
ATOM     24  C   UNL     1       2.586   7.762  17.735  0.00  0.00    +0.000 A 
ATOM     25  C   UNL     1       2.785   6.861  18.753  0.00  0.00    +0.000 A 
ATOM     26  O   UNL     1       2.226   7.314  19.910  0.00  0.00    +0.000 OA
ENDBRANCH   6  22
BRANCH   1  27
ATOM     27  O   UNL     1      -0.435  15.399  22.307  0.00  0.00    +0.000 OA
ATOM     28  H   UNL     1      -1.365  15.125  22.353  0.00  0.00    +0.000 HD
ENDBRANCH   1  27
TORSDOF 3
ENDMDL
MODEL 7
REMARK VINA RESULT:      -7.1      3.718      6.019
REMARK  Name = 
REMARK  3 active torsions:
REMARK  status: ('A' for Active; 'I' for Inactive)
REMARK    1  A    between atoms: O_1  and  C_2
REMARK    2  A    between atoms: C_7  and  C_8
REMARK    3  A    between atoms: C_16  and  C_17
REMARK                            x       y       z     vdW  Elec       q    Type
REMARK                         _______ _______ _______ _____ _____    ______ ____
ROOT
ATOM      1  C   UNL     1      -0.730  15.491  21.446  0.00  0.00    +0.000 C 
ATOM      2  C   UNL     1      -0.555  14.159  21.377  0.00  0.00    +0.000 C 
ATOM      3  C   UNL     1       0.052  13.598  20.130  0.00  0.00    +0.000 C 
ATOM      4  N   UNL     1       0.387  12.355  19.964  0.00  0.00    +0.000 NA
ATOM      5  C   UNL     1       0.197  11.470  20.964  0.00  0.00    +0.000 A 
ATOM      6  C   UNL     1       0.492  10.131  21.063  0.00  0.00    +0.000 A 
ATOM      7  C   UNL     1       0.030   9.744  22.338  0.00  0.00    +0.000 A 
ATOM      8  N   UNL     1      -0.478  10.773  23.030  0.00  0.00    +0.000 NA
ATOM      9  N   UNL     1      -0.405  11.800  22.149  0.00  0.00    +0.000 N 
ATOM     10  C   UNL     1      -0.899  13.143  22.459  0.00  0.00    +0.000 C 
ATOM     11  C   UNL     1       0.373  14.491  18.950  0.00  0.00    +0.000 C 
ATOM     12  C   UNL     1      -0.297  15.843  18.963  0.00  0.00    +0.000 C 
ATOM     13  C   UNL     1      -0.393  16.463  20.347  0.00  0.00    +0.000 C 
ENDROOT
BRANCH  10  14
ATOM     14  C   UNL     1      -2.398  13.077  22.763  0.00  0.00    +0.000 A 
ATOM     15  C   UNL     1      -2.857  13.266  24.077  0.00  0.00    +0.000 A 
ATOM     16  C   UNL     1      -4.220  13.180  24.376  0.00  0.00    +0.000 A 
ATOM     17  C   UNL     1      -5.146  12.900  23.368  0.00  0.00    +0.000 A 
ATOM     18 CL   UNL     1      -6.814  12.803  23.807  0.00  0.00    +0.000 Cl
ATOM     19  C   UNL     1      -4.705  12.702  22.056  0.00  0.00    +0.000 A 
ATOM     20 CL   UNL     1      -5.785  12.357  20.752  0.00  0.00    +0.000 Cl
ATOM     21  C   UNL     1      -3.340  12.781  21.761  0.00  0.00    +0.000 A 
ENDBRANCH  10  14
BRANCH   6  22
ATOM     22  C   UNL     1       1.138   9.312  20.010  0.00  0.00    +0.000 A 
ATOM     23  C   UNL     1       1.160   9.598  18.656  0.00  0.00    +0.000 A 
ATOM     24  C   UNL     1       1.848   8.540  18.016  0.00  0.00    +0.000 A 
ATOM     25  C   UNL     1       2.222   7.677  19.018  0.00  0.00    +0.000 A 
ATOM     26  O   UNL     1       1.811   8.141  20.230  0.00  0.00    +0.000 OA
ENDBRANCH   6  22
BRANCH   1  27
ATOM     27  O   UNL     1      -1.262  16.138  22.553  0.00  0.00    +0.000 OA
ATOM     28  H   UNL     1      -1.894  15.578  23.033  0.00  0.00    +0.000 HD
ENDBRANCH   1  27
TORSDOF 3
ENDMDL
MODEL 8
REMARK VINA RESULT:      -7.1      4.451      7.201
REMARK  Name = 
REMARK  3 active torsions:
REMARK  status: ('A' for Active; 'I' for Inactive)
REMARK    1  A    between atoms: O_1  and  C_2
REMARK    2  A    between atoms: C_7  and  C_8
REMARK    3  A    between atoms: C_16  and  C_17
REMARK                            x       y       z     vdW  Elec       q    Type
REMARK                         _______ _______ _______ _____ _____    ______ ____
ROOT
ATOM      1  C   UNL     1      -2.386  11.248  17.679  0.00  0.00    +0.000 C 
ATOM      2  C   UNL     1      -2.706  11.782  18.872  0.00  0.00    +0.000 C 
ATOM      3  C   UNL     1      -4.149  12.066  19.146  0.00  0.00    +0.000 C 
ATOM      4  N   UNL     1      -4.622  12.470  20.285  0.00  0.00    +0.000 NA
ATOM      5  C   UNL     1      -3.787  12.656  21.329  0.00  0.00    +0.000 A 
ATOM      6  C   UNL     1      -4.025  13.033  22.629  0.00  0.00    +0.000 A 
ATOM      7  C   UNL     1      -2.755  13.083  23.238  0.00  0.00    +0.000 A 
ATOM      8  N   UNL     1      -1.774  12.712  22.403  0.00  0.00    +0.000 NA
ATOM      9  N   UNL     1      -2.430  12.503  21.235  0.00  0.00    +0.000 N 
ATOM     10  C   UNL     1      -1.741  12.120  20.002  0.00  0.00    +0.000 C 
ATOM     11  C   UNL     1      -5.202  11.845  18.080  0.00  0.00    +0.000 C 
ATOM     12  C   UNL     1      -4.676  11.711  16.671  0.00  0.00    +0.000 C 
ATOM     13  C   UNL     1      -3.368  10.945  16.580  0.00  0.00    +0.000 C 
ENDROOT
BRANCH  10  14
ATOM     14  C   UNL     1      -0.731  13.206  19.623  0.00  0.00    +0.000 A 
ATOM     15  C   UNL     1      -1.118  14.557  19.624  0.00  0.00    +0.000 A 
ATOM     16  C   UNL     1      -0.216  15.557  19.252  0.00  0.00    +0.000 A 
ATOM     17  C   UNL     1       1.086  15.225  18.869  0.00  0.00    +0.000 A 
ATOM     18 CL   UNL     1       2.148  16.511  18.418  0.00  0.00    +0.000 Cl
ATOM     19  C   UNL     1       1.485  13.885  18.856  0.00  0.00    +0.000 A 
ATOM     20 CL   UNL     1       3.077  13.392  18.401  0.00  0.00    +0.000 Cl
ATOM     21  C   UNL     1       0.578  12.885  19.221  0.00  0.00    +0.000 A 
ENDBRANCH  10  14
BRANCH   6  22
ATOM     22  C   UNL     1      -5.356  13.335  23.206  0.00  0.00    +0.000 A 
ATOM     23  C   UNL     1      -5.947  14.584  23.280  0.00  0.00    +0.000 A 
ATOM     24  C   UNL     1      -7.191  14.421  23.933  0.00  0.00    +0.000 A 
ATOM     25  C   UNL     1      -7.298  13.079  24.207  0.00  0.00    +0.000 A 
ATOM     26  O   UNL     1      -6.200  12.410  23.758  0.00  0.00    +0.000 OA
ENDBRANCH   6  22
BRANCH   1  27
ATOM     27  O   UNL     1      -1.089  10.919  17.310  0.00  0.00    +0.000 OA
ATOM     28  H   UNL     1      -0.462  11.633  17.508  0.00  0.00    +0.000 HD
ENDBRANCH   1  27
TORSDOF 3
ENDMDL
MODEL 9
REMARK VINA RESULT:      -6.9      3.683      6.674
REMARK  Name = 
REMARK  3 active torsions:
REMARK  status: ('A' for Active; 'I' for Inactive)
REMARK    1  A    between atoms: O_1  and  C_2
REMARK    2  A    between atoms: C_7  and  C_8
REMARK    3  A    between atoms: C_16  and  C_17
REMARK                            x       y       z     vdW  Elec       q    Type
REMARK                         _______ _______ _______ _____ _____    ______ ____
ROOT
ATOM      1  C   UNL     1       1.783  13.086  18.554  0.00  0.00    +0.000 C 
ATOM      2  C   UNL     1       0.549  12.549  18.560  0.00  0.00    +0.000 C 
ATOM      3  C   UNL     1      -0.528  13.284  19.295  0.00  0.00    +0.000 C 
ATOM      4  N   UNL     1      -1.783  12.955  19.293  0.00  0.00    +0.000 NA
ATOM      5  C   UNL     1      -2.193  11.880  18.587  0.00  0.00    +0.000 A 
ATOM      6  C   UNL     1      -3.443  11.345  18.388  0.00  0.00    +0.000 A 
ATOM      7  C   UNL     1      -3.234  10.207  17.583  0.00  0.00    +0.000 A 
ATOM      8  N   UNL     1      -1.947  10.052  17.244  0.00  0.00    +0.000 NA
ATOM      9  N   UNL     1      -1.332  11.060  17.909  0.00  0.00    +0.000 N 
ATOM     10  C   UNL     1       0.118  11.260  17.874  0.00  0.00    +0.000 C 
ATOM     11  C   UNL     1      -0.216  14.541  20.081  0.00  0.00    +0.000 C 
ATOM     12  C   UNL     1       1.244  14.764  20.389  0.00  0.00    +0.000 C 
ATOM     13  C   UNL     1       2.175  14.355  19.260  0.00  0.00    +0.000 C 
ENDROOT
BRANCH  10  14
ATOM     14  C   UNL     1       0.818  10.020  18.435  0.00  0.00    +0.000 A 
ATOM     15  C   UNL     1       1.587   9.203  17.589  0.00  0.00    +0.000 A 
ATOM     16  C   UNL     1       2.208   8.052  18.080  0.00  0.00    +0.000 A 
ATOM     17  C   UNL     1       2.068   7.695  19.424  0.00  0.00    +0.000 A 
ATOM     18 CL   UNL     1       2.860   6.256  19.964  0.00  0.00    +0.000 Cl
ATOM     19  C   UNL     1       1.302   8.493  20.278  0.00  0.00    +0.000 A 
ATOM     20 CL   UNL     1       1.085   8.124  21.952  0.00  0.00    +0.000 Cl
ATOM     21  C   UNL     1       0.674   9.641  19.782  0.00  0.00    +0.000 A 
ENDBRANCH  10  14
BRANCH   6  22
ATOM     22  C   UNL     1      -4.707  11.881  18.947  0.00  0.00    +0.000 A 
ATOM     23  C   UNL     1      -5.851  12.184  18.230  0.00  0.00    +0.000 A 
ATOM     24  C   UNL     1      -6.797  12.697  19.148  0.00  0.00    +0.000 A 
ATOM     25  C   UNL     1      -6.184  12.663  20.377  0.00  0.00    +0.000 A 
ATOM     26  O   UNL     1      -4.924  12.157  20.270  0.00  0.00    +0.000 OA
ENDBRANCH   6  22
BRANCH   1  27
ATOM     27  O   UNL     1       2.862  12.516  17.893  0.00  0.00    +0.000 OA
ATOM     28  H   UNL     1       2.600  12.104  17.054  0.00  0.00    +0.000 HD
ENDBRANCH   1  27
TORSDOF 3
ENDMDL
