MODEL 1
REMARK VINA RESULT:      -7.4      0.000      0.000
REMARK  Name = 
REMARK  9 active torsions:
REMARK  status: ('A' for Active; 'I' for Inactive)
REMARK    1  A    between atoms: C_1  and  C_2
REMARK    2  A    between atoms: C_2  and  O_3
REMARK    3  A    between atoms: O_3  and  C_4
REMARK    4  A    between atoms: C_4  and  C_6
REMARK    5  A    between atoms: C_7  and  C_8
REMARK    6  A    between atoms: C_16  and  C_17
REMARK    7  A    between atoms: C_16  and  C_21
REMARK    8  A    between atoms: C_17  and  O_19
REMARK    9  A    between atoms: O_19  and  C_20
REMARK                            x       y       z     vdW  Elec       q    Type
REMARK                         _______ _______ _______ _____ _____    ______ ____
ROOT
ATOM      1  C   UNL     1       5.546   4.364  16.720  0.00  0.00    +0.000 C 
ATOM      2  C   UNL     1       5.723   5.153  17.791  0.00  0.00    +0.000 C 
ATOM      3  O   UNL     1       4.733   5.059  18.782  0.00  0.00    +0.000 OA
ATOM      4  C   UNL     1       3.716   4.206  18.347  0.00  0.00    +0.000 C 
ATOM      5  C   UNL     1       2.526   4.028  18.959  0.00  0.00    +0.000 C 
ATOM      6  S   UNL     1       4.125   3.381  16.856  0.00  0.00    +0.000 S 
ENDROOT
BRANCH   2   7
ATOM      7  C   UNL     1       6.745   6.194  17.925  0.00  0.00    +0.000 A 
ATOM      8  C   UNL     1       7.747   6.067  18.895  0.00  0.00    +0.000 A 
ATOM      9  C   UNL     1       8.591   7.143  19.183  0.00  0.00    +0.000 A 
ATOM     10  C   UNL     1       8.444   8.349  18.500  0.00  0.00    +0.000 A 
ATOM     11  C   UNL     1       7.471   8.474  17.510  0.00  0.00    +0.000 A 
ATOM     12  C   UNL     1       6.624   7.399  17.221  0.00  0.00    +0.000 A 
ENDBRANCH   2   7
BRANCH   5  13
ATOM     13  C   UNL     1       1.435   3.198  18.374  0.00  0.00    +0.000 C 
ATOM     14  F   UNL     1       0.383   2.927  19.187  0.00  0.00    +0.000 F 
ATOM     15  F   UNL     1       0.879   3.822  17.293  0.00  0.00    +0.000 F 
ATOM     16  F   UNL     1       1.890   1.995  17.929  0.00  0.00    +0.000 F 
ENDBRANCH   5  13
BRANCH   1  17
ATOM     17  C   UNL     1       6.322   4.413  15.456  0.00  0.00    +0.000 C 
ATOM     18  O   UNL     1       7.510   4.660  15.371  0.00  0.00    +0.000 OA
BRANCH  17  19
ATOM     19  O   UNL     1       5.473   4.281  14.402  0.00  0.00    +0.000 OA
BRANCH  19  21
ATOM     20  C   UNL     1       4.961   3.411  12.246  0.00  0.00    +0.000 C 
ATOM     21  C   UNL     1       6.076   3.864  13.173  0.00  0.00    +0.000 C 
ENDBRANCH  19  21
ENDBRANCH  17  19
ENDBRANCH   1  17
BRANCH   5  22
ATOM     22  C   UNL     1       2.173   4.615  20.258  0.00  0.00    +0.000 C 
ATOM     23  O   UNL     1       1.478   5.612  20.375  0.00  0.00    +0.000 OA
BRANCH  22  24
ATOM     24  O   UNL     1       2.717   3.945  21.302  0.00  0.00    +0.000 OA
ATOM     25  C   UNL     1       1.824   2.997  21.896  0.00  0.00    +0.000 C 
ENDBRANCH  22  24
ENDBRANCH   5  22
TORSDOF 7
ENDMDL
MODEL 2
REMARK VINA RESULT:      -7.3      2.026      4.231
REMARK  Name = 
REMARK  9 active torsions:
REMARK  status: ('A' for Active; 'I' for Inactive)
REMARK    1  A    between atoms: C_1  and  C_2
REMARK    2  A    between atoms: C_2  and  O_3
REMARK    3  A    between atoms: O_3  and  C_4
REMARK    4  A    between atoms: C_4  and  C_6
REMARK    5  A    between atoms: C_7  and  C_8
REMARK    6  A    between atoms: C_16  and  C_17
REMARK    7  A    between atoms: C_16  and  C_21
REMARK    8  A    between atoms: C_17  and  O_19
REMARK    9  A    between atoms: O_19  and  C_20
REMARK                            x       y       z     vdW  Elec       q    Type
REMARK                         _______ _______ _______ _____ _____    ______ ____
ROOT
ATOM      1  C   UNL     1       6.121   5.055  17.807  0.00  0.00    +0.000 C 
ATOM      2  C   UNL     1       5.442   4.742  16.693  0.00  0.00    +0.000 C 
ATOM      3  O   UNL     1       4.066   4.517  16.865  0.00  0.00    +0.000 OA
ATOM      4  C   UNL     1       3.749   4.584  18.224  0.00  0.00    +0.000 C 
ATOM      5  C   UNL     1       2.564   4.239  18.770  0.00  0.00    +0.000 C 
ATOM      6  S   UNL     1       5.093   5.143  19.200  0.00  0.00    +0.000 S 
ENDROOT
BRANCH   2   7
ATOM      7  C   UNL     1       6.035   4.457  15.384  0.00  0.00    +0.000 A 
ATOM      8  C   UNL     1       7.126   5.211  14.933  0.00  0.00    +0.000 A 
ATOM      9  C   UNL     1       7.560   5.104  13.609  0.00  0.00    +0.000 A 
ATOM     10  C   UNL     1       6.912   4.237  12.730  0.00  0.00    +0.000 A 
ATOM     11  C   UNL     1       5.847   3.459  13.178  0.00  0.00    +0.000 A 
ATOM     12  C   UNL     1       5.410   3.566  14.502  0.00  0.00    +0.000 A 
ENDBRANCH   2   7
BRANCH   5  13
ATOM     13  C   UNL     1       2.333   4.213  20.243  0.00  0.00    +0.000 C 
ATOM     14  F   UNL     1       1.072   3.920  20.648  0.00  0.00    +0.000 F 
ATOM     15  F   UNL     1       3.112   3.263  20.838  0.00  0.00    +0.000 F 
ATOM     16  F   UNL     1       2.654   5.396  20.831  0.00  0.00    +0.000 F 
ENDBRANCH   5  13
BRANCH   1  17
ATOM     17  C   UNL     1       7.596   5.143  17.941  0.00  0.00    +0.000 C 
ATOM     18  O   UNL     1       8.371   4.215  17.795  0.00  0.00    +0.000 OA
BRANCH  17  19
ATOM     19  O   UNL     1       7.934   6.380  18.391  0.00  0.00    +0.000 OA
BRANCH  19  21
ATOM     20  C   UNL     1       8.257   8.716  18.064  0.00  0.00    +0.000 C 
ATOM     21  C   UNL     1       7.567   7.469  17.539  0.00  0.00    +0.000 C 
ENDBRANCH  19  21
ENDBRANCH  17  19
ENDBRANCH   1  17
BRANCH   5  22
ATOM     22  C   UNL     1       1.378   3.861  17.991  0.00  0.00    +0.000 C 
ATOM     23  O   UNL     1       0.796   4.629  17.242  0.00  0.00    +0.000 OA
BRANCH  22  24
ATOM     24  O   UNL     1       0.994   2.580  18.210  0.00  0.00    +0.000 OA
ATOM     25  C   UNL     1       2.071   1.641  18.120  0.00  0.00    +0.000 C 
ENDBRANCH  22  24
ENDBRANCH   5  22
TORSDOF 7
ENDMDL
MODEL 3
REMARK VINA RESULT:      -7.3      3.737      7.090
REMARK  Name = 
REMARK  9 active torsions:
REMARK  status: ('A' for Active; 'I' for Inactive)
REMARK    1  A    between atoms: C_1  and  C_2
REMARK    2  A    between atoms: C_2  and  O_3
REMARK    3  A    between atoms: O_3  and  C_4
REMARK    4  A    between atoms: C_4  and  C_6
REMARK    5  A    between atoms: C_7  and  C_8
REMARK    6  A    between atoms: C_16  and  C_17
REMARK    7  A    between atoms: C_16  and  C_21
REMARK    8  A    between atoms: C_17  and  O_19
REMARK    9  A    between atoms: O_19  and  C_20
REMARK                            x       y       z     vdW  Elec       q    Type
REMARK                         _______ _______ _______ _____ _____    ______ ____
ROOT
ATOM      1  C   UNL     1       6.157   4.484  16.723  0.00  0.00    +0.000 C 
ATOM      2  C   UNL     1       5.055   3.793  16.395  0.00  0.00    +0.000 C 
ATOM      3  O   UNL     1       4.983   3.367  15.058  0.00  0.00    +0.000 OA
ATOM      4  C   UNL     1       6.074   3.873  14.348  0.00  0.00    +0.000 C 
ATOM      5  C   UNL     1       6.230   3.820  13.009  0.00  0.00    +0.000 C 
ATOM      6  S   UNL     1       7.253   4.646  15.390  0.00  0.00    +0.000 S 
ENDROOT
BRANCH   2   7
ATOM      7  C   UNL     1       3.881   3.601  17.250  0.00  0.00    +0.000 A 
ATOM      8  C   UNL     1       3.560   2.320  17.718  0.00  0.00    +0.000 A 
ATOM      9  C   UNL     1       2.334   2.083  18.345  0.00  0.00    +0.000 A 
ATOM     10  C   UNL     1       1.425   3.126  18.516  0.00  0.00    +0.000 A 
ATOM     11  C   UNL     1       1.748   4.410  18.083  0.00  0.00    +0.000 A 
ATOM     12  C   UNL     1       2.974   4.649  17.453  0.00  0.00    +0.000 A 
ENDBRANCH   2   7
BRANCH   5  13
ATOM     13  C   UNL     1       7.358   4.491  12.301  0.00  0.00    +0.000 C 
ATOM     14  F   UNL     1       8.007   5.462  12.991  0.00  0.00    +0.000 F 
ATOM     15  F   UNL     1       8.332   3.590  11.980  0.00  0.00    +0.000 F 
ATOM     16  F   UNL     1       6.961   5.058  11.130  0.00  0.00    +0.000 F 
ENDBRANCH   5  13
BRANCH   1  17
ATOM     17  C   UNL     1       6.390   5.213  17.994  0.00  0.00    +0.000 C 
ATOM     18  O   UNL     1       6.313   4.726  19.107  0.00  0.00    +0.000 OA
BRANCH  17  19
ATOM     19  O   UNL     1       6.559   6.536  17.730  0.00  0.00    +0.000 OA
BRANCH  19  21
ATOM     20  C   UNL     1       7.873   8.518  17.645  0.00  0.00    +0.000 C 
ATOM     21  C   UNL     1       7.782   7.107  18.201  0.00  0.00    +0.000 C 
ENDBRANCH  19  21
ENDBRANCH  17  19
ENDBRANCH   1  17
BRANCH   5  22
ATOM     22  C   UNL     1       5.326   3.100  12.103  0.00  0.00    +0.000 C 
ATOM     23  O   UNL     1       5.605   2.029  11.588  0.00  0.00    +0.000 OA
BRANCH  22  24
ATOM     24  O   UNL     1       4.163   3.762  11.888  0.00  0.00    +0.000 OA
ATOM     25  C   UNL     1       3.527   3.407  10.656  0.00  0.00    +0.000 C 
ENDBRANCH  22  24
ENDBRANCH   5  22
TORSDOF 7
ENDMDL
MODEL 4
REMARK VINA RESULT:      -7.2      0.615      1.143
REMARK  Name = 
REMARK  9 active torsions:
REMARK  status: ('A' for Active; 'I' for Inactive)
REMARK    1  A    between atoms: C_1  and  C_2
REMARK    2  A    between atoms: C_2  and  O_3
REMARK    3  A    between atoms: O_3  and  C_4
REMARK    4  A    between atoms: C_4  and  C_6
REMARK    5  A    between atoms: C_7  and  C_8
REMARK    6  A    between atoms: C_16  and  C_17
REMARK    7  A    between atoms: C_16  and  C_21
REMARK    8  A    between atoms: C_17  and  O_19
REMARK    9  A    between atoms: O_19  and  C_20
REMARK                            x       y       z     vdW  Elec       q    Type
REMARK                         _______ _______ _______ _____ _____    ______ ____
ROOT
ATOM      1  C   UNL     1       5.568   4.248  16.997  0.00  0.00    +0.000 C 
ATOM      2  C   UNL     1       5.714   5.148  17.980  0.00  0.00    +0.000 C 
ATOM      3  O   UNL     1       4.699   5.154  18.951  0.00  0.00    +0.000 OA
ATOM      4  C   UNL     1       3.698   4.252  18.585  0.00  0.00    +0.000 C 
ATOM      5  C   UNL     1       2.494   4.132  19.183  0.00  0.00    +0.000 C 
ATOM      6  S   UNL     1       4.148   3.274  17.202  0.00  0.00    +0.000 S 
ENDROOT
BRANCH   2   7
ATOM      7  C   UNL     1       6.728   6.205  18.026  0.00  0.00    +0.000 A 
ATOM      8  C   UNL     1       7.747   6.153  18.985  0.00  0.00    +0.000 A 
ATOM      9  C   UNL     1       8.585   7.253  19.186  0.00  0.00    +0.000 A 
ATOM     10  C   UNL     1       8.414   8.409  18.426  0.00  0.00    +0.000 A 
ATOM     11  C   UNL     1       7.424   8.458  17.447  0.00  0.00    +0.000 A 
ATOM     12  C   UNL     1       6.583   7.359  17.246  0.00  0.00    +0.000 A 
ENDBRANCH   2   7
BRANCH   5  13
ATOM     13  C   UNL     1       1.421   3.237  18.664  0.00  0.00    +0.000 C 
ATOM     14  F   UNL     1       0.368   3.018  19.490  0.00  0.00    +0.000 F 
ATOM     15  F   UNL     1       0.865   3.756  17.530  0.00  0.00    +0.000 F 
ATOM     16  F   UNL     1       1.900   2.009  18.327  0.00  0.00    +0.000 F 
ENDBRANCH   5  13
BRANCH   1  17
ATOM     17  C   UNL     1       6.375   4.165  15.754  0.00  0.00    +0.000 C 
ATOM     18  O   UNL     1       7.582   4.313  15.690  0.00  0.00    +0.000 OA
BRANCH  17  19
ATOM     19  O   UNL     1       5.545   4.043  14.685  0.00  0.00    +0.000 OA
BRANCH  19  21
ATOM     20  C   UNL     1       5.611   3.200  12.460  0.00  0.00    +0.000 C 
ATOM     21  C   UNL     1       6.150   4.259  13.407  0.00  0.00    +0.000 C 
ENDBRANCH  19  21
ENDBRANCH  17  19
ENDBRANCH   1  17
BRANCH   5  22
ATOM     22  C   UNL     1       2.105   4.854  20.402  0.00  0.00    +0.000 C 
ATOM     23  O   UNL     1       2.407   4.483  21.525  0.00  0.00    +0.000 OA
BRANCH  22  24
ATOM     24  O   UNL     1       1.364   5.958  20.143  0.00  0.00    +0.000 OA
ATOM     25  C   UNL     1       2.053   7.182  20.420  0.00  0.00    +0.000 C 
ENDBRANCH  22  24
ENDBRANCH   5  22
TORSDOF 7
ENDMDL
MODEL 5
REMARK VINA RESULT:      -7.1      0.750      1.518
REMARK  Name = 
REMARK  9 active torsions:
REMARK  status: ('A' for Active; 'I' for Inactive)
REMARK    1  A    between atoms: C_1  and  C_2
REMARK    2  A    between atoms: C_2  and  O_3
REMARK    3  A    between atoms: O_3  and  C_4
REMARK    4  A    between atoms: C_4  and  C_6
REMARK    5  A    between atoms: C_7  and  C_8
REMARK    6  A    between atoms: C_16  and  C_17
REMARK    7  A    between atoms: C_16  and  C_21
REMARK    8  A    between atoms: C_17  and  O_19
REMARK    9  A    between atoms: O_19  and  C_20
REMARK                            x       y       z     vdW  Elec       q    Type
REMARK                         _______ _______ _______ _____ _____    ______ ____
ROOT
ATOM      1  C   UNL     1       5.433   4.134  17.282  0.00  0.00    +0.000 C 
ATOM      2  C   UNL     1       5.492   5.036  18.273  0.00  0.00    +0.000 C 
ATOM      3  O   UNL     1       4.494   4.924  19.255  0.00  0.00    +0.000 OA
ATOM      4  C   UNL     1       3.592   3.922  18.891  0.00  0.00    +0.000 C 
ATOM      5  C   UNL     1       2.415   3.667  19.500  0.00  0.00    +0.000 C 
ATOM      6  S   UNL     1       4.129   3.010  17.493  0.00  0.00    +0.000 S 
ENDROOT
BRANCH   2   7
ATOM      7  C   UNL     1       6.386   6.196  18.319  0.00  0.00    +0.000 A 
ATOM      8  C   UNL     1       6.163   7.283  17.463  0.00  0.00    +0.000 A 
ATOM      9  C   UNL     1       7.122   8.291  17.336  0.00  0.00    +0.000 A 
ATOM     10  C   UNL     1       8.306   8.224  18.069  0.00  0.00    +0.000 A 
ATOM     11  C   UNL     1       8.523   7.164  18.947  0.00  0.00    +0.000 A 
ATOM     12  C   UNL     1       7.565   6.153  19.074  0.00  0.00    +0.000 A 
ENDBRANCH   2   7
BRANCH   5  13
ATOM     13  C   UNL     1       1.440   2.665  18.984  0.00  0.00    +0.000 C 
ATOM     14  F   UNL     1       0.262   2.574  19.649  0.00  0.00    +0.000 F 
ATOM     15  F   UNL     1       1.084   2.955  17.698  0.00  0.00    +0.000 F 
ATOM     16  F   UNL     1       1.961   1.408  18.962  0.00  0.00    +0.000 F 
ENDBRANCH   5  13
BRANCH   1  17
ATOM     17  C   UNL     1       6.230   4.150  16.031  0.00  0.00    +0.000 C 
ATOM     18  O   UNL     1       7.432   4.328  15.967  0.00  0.00    +0.000 OA
BRANCH  17  19
ATOM     19  O   UNL     1       5.392   4.080  14.962  0.00  0.00    +0.000 OA
BRANCH  19  21
ATOM     20  C   UNL     1       5.008   3.552  12.673  0.00  0.00    +0.000 C 
ATOM     21  C   UNL     1       6.027   4.056  13.681  0.00  0.00    +0.000 C 
ENDBRANCH  19  21
ENDBRANCH  17  19
ENDBRANCH   1  17
BRANCH   5  22
ATOM     22  C   UNL     1       1.965   4.332  20.730  0.00  0.00    +0.000 C 
ATOM     23  O   UNL     1       2.285   3.960  21.848  0.00  0.00    +0.000 OA
BRANCH  22  24
ATOM     24  O   UNL     1       1.145   5.383  20.488  0.00  0.00    +0.000 OA
ATOM     25  C   UNL     1       1.779   6.653  20.677  0.00  0.00    +0.000 C 
ENDBRANCH  22  24
ENDBRANCH   5  22
TORSDOF 7
ENDMDL
MODEL 6
REMARK VINA RESULT:      -7.0      3.391      6.380
REMARK  Name = 
REMARK  9 active torsions:
REMARK  status: ('A' for Active; 'I' for Inactive)
REMARK    1  A    between atoms: C_1  and  C_2
REMARK    2  A    between atoms: C_2  and  O_3
REMARK    3  A    between atoms: O_3  and  C_4
REMARK    4  A    between atoms: C_4  and  C_6
REMARK    5  A    between atoms: C_7  and  C_8
REMARK    6  A    between atoms: C_16  and  C_17
REMARK    7  A    between atoms: C_16  and  C_21
REMARK    8  A    between atoms: C_17  and  O_19
REMARK    9  A    between atoms: O_19  and  C_20
REMARK                            x       y       z     vdW  Elec       q    Type
REMARK                         _______ _______ _______ _____ _____    ______ ____
ROOT
ATOM      1  C   UNL     1       2.860   5.318  17.708  0.00  0.00    +0.000 C 
ATOM      2  C   UNL     1       3.170   6.531  18.190  0.00  0.00    +0.000 C 
ATOM      3  O   UNL     1       4.523   6.894  18.092  0.00  0.00    +0.000 OA
ATOM      4  C   UNL     1       5.259   5.820  17.586  0.00  0.00    +0.000 C 
ATOM      5  C   UNL     1       6.605   5.748  17.532  0.00  0.00    +0.000 C 
ATOM      6  S   UNL     1       4.237   4.505  17.038  0.00  0.00    +0.000 S 
ENDROOT
BRANCH   2   7
ATOM      7  C   UNL     1       2.267   7.407  18.940  0.00  0.00    +0.000 A 
ATOM      8  C   UNL     1       1.754   8.563  18.336  0.00  0.00    +0.000 A 
ATOM      9  C   UNL     1       1.076   9.518  19.099  0.00  0.00    +0.000 A 
ATOM     10  C   UNL     1       0.900   9.321  20.467  0.00  0.00    +0.000 A 
ATOM     11  C   UNL     1       1.378   8.160  21.071  0.00  0.00    +0.000 A 
ATOM     12  C   UNL     1       2.058   7.204  20.310  0.00  0.00    +0.000 A 
ENDBRANCH   2   7
BRANCH   5  13
ATOM     13  C   UNL     1       7.330   4.520  17.096  0.00  0.00    +0.000 C 
ATOM     14  F   UNL     1       7.857   4.545  15.847  0.00  0.00    +0.000 F 
ATOM     15  F   UNL     1       8.397   4.273  17.913  0.00  0.00    +0.000 F 
ATOM     16  F   UNL     1       6.541   3.414  17.153  0.00  0.00    +0.000 F 
ENDBRANCH   5  13
BRANCH   1  17
ATOM     17  C   UNL     1       1.563   4.615  17.867  0.00  0.00    +0.000 C 
ATOM     18  O   UNL     1       0.745   4.442  16.981  0.00  0.00    +0.000 OA
BRANCH  17  19
ATOM     19  O   UNL     1       1.366   4.324  19.180  0.00  0.00    +0.000 OA
BRANCH  19  21
ATOM     20  C   UNL     1       1.310   2.793  21.001  0.00  0.00    +0.000 C 
ATOM     21  C   UNL     1       1.236   2.934  19.491  0.00  0.00    +0.000 C 
ENDBRANCH  19  21
ENDBRANCH  17  19
ENDBRANCH   1  17
BRANCH   5  22
ATOM     22  C   UNL     1       7.503   6.856  17.884  0.00  0.00    +0.000 C 
ATOM     23  O   UNL     1       8.236   6.840  18.860  0.00  0.00    +0.000 OA
BRANCH  22  24
ATOM     24  O   UNL     1       7.413   7.897  17.022  0.00  0.00    +0.000 OA
ATOM     25  C   UNL     1       7.915   9.125  17.561  0.00  0.00    +0.000 C 
ENDBRANCH  22  24
ENDBRANCH   5  22
TORSDOF 7
ENDMDL
MODEL 7
REMARK VINA RESULT:      -6.9      0.480      1.078
REMARK  Name = 
REMARK  9 active torsions:
REMARK  status: ('A' for Active; 'I' for Inactive)
REMARK    1  A    between atoms: C_1  and  C_2
REMARK    2  A    between atoms: C_2  and  O_3
REMARK    3  A    between atoms: O_3  and  C_4
REMARK    4  A    between atoms: C_4  and  C_6
REMARK    5  A    between atoms: C_7  and  C_8
REMARK    6  A    between atoms: C_16  and  C_17
REMARK    7  A    between atoms: C_16  and  C_21
REMARK    8  A    between atoms: C_17  and  O_19
REMARK    9  A    between atoms: O_19  and  C_20
REMARK                            x       y       z     vdW  Elec       q    Type
REMARK                         _______ _______ _______ _____ _____    ______ ____
ROOT
ATOM      1  C   UNL     1       5.362   4.252  17.059  0.00  0.00    +0.000 C 
ATOM      2  C   UNL     1       5.434   5.078  18.113  0.00  0.00    +0.000 C 
ATOM      3  O   UNL     1       4.378   4.979  19.034  0.00  0.00    +0.000 OA
ATOM      4  C   UNL     1       3.425   4.076  18.555  0.00  0.00    +0.000 C 
ATOM      5  C   UNL     1       2.201   3.873  19.086  0.00  0.00    +0.000 C 
ATOM      6  S   UNL     1       3.969   3.222  17.125  0.00  0.00    +0.000 S 
ENDROOT
BRANCH   2   7
ATOM      7  C   UNL     1       6.407   6.160  18.285  0.00  0.00    +0.000 A 
ATOM      8  C   UNL     1       6.361   7.281  17.446  0.00  0.00    +0.000 A 
ATOM      9  C   UNL     1       7.405   8.209  17.449  0.00  0.00    +0.000 A 
ATOM     10  C   UNL     1       8.498   8.028  18.295  0.00  0.00    +0.000 A 
ATOM     11  C   UNL     1       8.538   6.934  19.156  0.00  0.00    +0.000 A 
ATOM     12  C   UNL     1       7.495   6.002  19.153  0.00  0.00    +0.000 A 
ENDBRANCH   2   7
BRANCH   5  13
ATOM     13  C   UNL     1       1.184   2.987  18.452  0.00  0.00    +0.000 C 
ATOM     14  F   UNL     1       0.087   2.703  19.196  0.00  0.00    +0.000 F 
ATOM     15  F   UNL     1       0.687   3.557  17.315  0.00  0.00    +0.000 F 
ATOM     16  F   UNL     1       1.711   1.789  18.080  0.00  0.00    +0.000 F 
ENDBRANCH   5  13
BRANCH   1  17
ATOM     17  C   UNL     1       6.225   4.290  15.853  0.00  0.00    +0.000 C 
ATOM     18  O   UNL     1       7.437   4.406  15.860  0.00  0.00    +0.000 OA
BRANCH  17  19
ATOM     19  O   UNL     1       5.444   4.323  14.740  0.00  0.00    +0.000 OA
BRANCH  19  21
ATOM     20  C   UNL     1       4.992   3.541  12.538  0.00  0.00    +0.000 C 
ATOM     21  C   UNL     1       6.082   3.917  13.526  0.00  0.00    +0.000 C 
ENDBRANCH  19  21
ENDBRANCH  17  19
ENDBRANCH   1  17
BRANCH   5  22
ATOM     22  C   UNL     1       1.735   4.487  20.336  0.00  0.00    +0.000 C 
ATOM     23  O   UNL     1       1.687   5.694  20.513  0.00  0.00    +0.000 OA
BRANCH  22  24
ATOM     24  O   UNL     1       1.385   3.571  21.271  0.00  0.00    +0.000 OA
ATOM     25  C   UNL     1       2.489   2.790  21.742  0.00  0.00    +0.000 C 
ENDBRANCH  22  24
ENDBRANCH   5  22
TORSDOF 7
ENDMDL
MODEL 8
REMARK VINA RESULT:      -6.9      3.679      7.072
REMARK  Name = 
REMARK  9 active torsions:
REMARK  status: ('A' for Active; 'I' for Inactive)
REMARK    1  A    between atoms: C_1  and  C_2
REMARK    2  A    between atoms: C_2  and  O_3
REMARK    3  A    between atoms: O_3  and  C_4
REMARK    4  A    between atoms: C_4  and  C_6
REMARK    5  A    between atoms: C_7  and  C_8
REMARK    6  A    between atoms: C_16  and  C_17
REMARK    7  A    between atoms: C_16  and  C_21
REMARK    8  A    between atoms: C_17  and  O_19
REMARK    9  A    between atoms: O_19  and  C_20
REMARK                            x       y       z     vdW  Elec       q    Type
REMARK                         _______ _______ _______ _____ _____    ______ ____
ROOT
ATOM      1  C   UNL     1       6.145   4.506  16.659  0.00  0.00    +0.000 C 
ATOM      2  C   UNL     1       5.031   3.833  16.332  0.00  0.00    +0.000 C 
ATOM      3  O   UNL     1       4.955   3.401  14.998  0.00  0.00    +0.000 OA
ATOM      4  C   UNL     1       6.057   3.882  14.288  0.00  0.00    +0.000 C 
ATOM      5  C   UNL     1       6.215   3.818  12.949  0.00  0.00    +0.000 C 
ATOM      6  S   UNL     1       7.247   4.640  15.328  0.00  0.00    +0.000 S 
ENDROOT
BRANCH   2   7
ATOM      7  C   UNL     1       3.852   3.668  17.186  0.00  0.00    +0.000 A 
ATOM      8  C   UNL     1       3.031   4.769  17.463  0.00  0.00    +0.000 A 
ATOM      9  C   UNL     1       2.039   4.682  18.443  0.00  0.00    +0.000 A 
ATOM     10  C   UNL     1       1.856   3.493  19.147  0.00  0.00    +0.000 A 
ATOM     11  C   UNL     1       2.646   2.383  18.857  0.00  0.00    +0.000 A 
ATOM     12  C   UNL     1       3.641   2.469  17.877  0.00  0.00    +0.000 A 
ENDBRANCH   2   7
BRANCH   5  13
ATOM     13  C   UNL     1       7.357   4.464  12.241  0.00  0.00    +0.000 C 
ATOM     14  F   UNL     1       7.066   5.078  11.066  0.00  0.00    +0.000 F 
ATOM     15  F   UNL     1       7.912   5.446  13.011  0.00  0.00    +0.000 F 
ATOM     16  F   UNL     1       8.355   3.581  11.969  0.00  0.00    +0.000 F 
ENDBRANCH   5  13
BRANCH   1  17
ATOM     17  C   UNL     1       6.388   5.239  17.927  0.00  0.00    +0.000 C 
ATOM     18  O   UNL     1       6.301   4.760  19.042  0.00  0.00    +0.000 OA
BRANCH  17  19
ATOM     19  O   UNL     1       6.581   6.557  17.655  0.00  0.00    +0.000 OA
BRANCH  19  21
ATOM     20  C   UNL     1       7.863   8.562  17.686  0.00  0.00    +0.000 C 
ATOM     21  C   UNL     1       7.804   7.114  18.143  0.00  0.00    +0.000 C 
ENDBRANCH  19  21
ENDBRANCH  17  19
ENDBRANCH   1  17
BRANCH   5  22
ATOM     22  C   UNL     1       5.300   3.110  12.045  0.00  0.00    +0.000 C 
ATOM     23  O   UNL     1       5.535   2.003  11.586  0.00  0.00    +0.000 OA
BRANCH  22  24
ATOM     24  O   UNL     1       4.183   3.824  11.765  0.00  0.00    +0.000 OA
ATOM     25  C   UNL     1       3.414   3.275  10.689  0.00  0.00    +0.000 C 
ENDBRANCH  22  24
ENDBRANCH   5  22
TORSDOF 7
ENDMDL
MODEL 9
REMARK VINA RESULT:      -6.8      0.798      1.432
REMARK  Name = 
REMARK  9 active torsions:
REMARK  status: ('A' for Active; 'I' for Inactive)
REMARK    1  A    between atoms: C_1  and  C_2
REMARK    2  A    between atoms: C_2  and  O_3
REMARK    3  A    between atoms: O_3  and  C_4
REMARK    4  A    between atoms: C_4  and  C_6
REMARK    5  A    between atoms: C_7  and  C_8
REMARK    6  A    between atoms: C_16  and  C_17
REMARK    7  A    between atoms: C_16  and  C_21
REMARK    8  A    between atoms: C_17  and  O_19
REMARK    9  A    between atoms: O_19  and  C_20
REMARK                            x       y       z     vdW  Elec       q    Type
REMARK                         _______ _______ _______ _____ _____    ______ ____
ROOT
ATOM      1  C   UNL     1       5.066   4.526  16.608  0.00  0.00    +0.000 C 
ATOM      2  C   UNL     1       5.506   5.034  17.769  0.00  0.00    +0.000 C 
ATOM      3  O   UNL     1       4.745   4.703  18.902  0.00  0.00    +0.000 OA
ATOM      4  C   UNL     1       3.617   3.979  18.511  0.00  0.00    +0.000 C 
ATOM      5  C   UNL     1       2.577   3.658  19.309  0.00  0.00    +0.000 C 
ATOM      6  S   UNL     1       3.657   3.537  16.816  0.00  0.00    +0.000 S 
ENDROOT
BRANCH   2   7
ATOM      7  C   UNL     1       6.586   6.014  17.917  0.00  0.00    +0.000 A 
ATOM      8  C   UNL     1       7.590   5.807  18.872  0.00  0.00    +0.000 A 
ATOM      9  C   UNL     1       8.495   6.827  19.177  0.00  0.00    +0.000 A 
ATOM     10  C   UNL     1       8.407   8.056  18.527  0.00  0.00    +0.000 A 
ATOM     11  C   UNL     1       7.431   8.261  17.553  0.00  0.00    +0.000 A 
ATOM     12  C   UNL     1       6.524   7.242  17.247  0.00  0.00    +0.000 A 
ENDBRANCH   2   7
BRANCH   5  13
ATOM     13  C   UNL     1       1.345   2.992  18.797  0.00  0.00    +0.000 C 
ATOM     14  F   UNL     1       0.766   3.554  17.707  0.00  0.00    +0.000 F 
ATOM     15  F   UNL     1       1.610   1.707  18.419  0.00  0.00    +0.000 F 
ATOM     16  F   UNL     1       0.373   2.918  19.747  0.00  0.00    +0.000 F 
ENDBRANCH   5  13
BRANCH   1  17
ATOM     17  C   UNL     1       5.558   4.877  15.253  0.00  0.00    +0.000 C 
ATOM     18  O   UNL     1       5.418   5.960  14.714  0.00  0.00    +0.000 OA
BRANCH  17  19
ATOM     19  O   UNL     1       6.058   3.764  14.653  0.00  0.00    +0.000 OA
BRANCH  19  21
ATOM     20  C   UNL     1       6.895   3.731  12.425  0.00  0.00    +0.000 C 
ATOM     21  C   UNL     1       5.660   3.565  13.293  0.00  0.00    +0.000 C 
ENDBRANCH  19  21
ENDBRANCH  17  19
ENDBRANCH   1  17
BRANCH   5  22
ATOM     22  C   UNL     1       2.538   3.916  20.754  0.00  0.00    +0.000 C 
ATOM     23  O   UNL     1       2.433   3.032  21.590  0.00  0.00    +0.000 OA
BRANCH  22  24
ATOM     24  O   UNL     1       2.611   5.235  21.053  0.00  0.00    +0.000 OA
ATOM     25  C   UNL     1       1.415   5.956  20.736  0.00  0.00    +0.000 C 
ENDBRANCH  22  24
ENDBRANCH   5  22
TORSDOF 7
ENDMDL
