MODEL 1
REMARK VINA RESULT:      -8.6      0.000      0.000
REMARK  Name = 
REMARK  5 active torsions:
REMARK  status: ('A' for Active; 'I' for Inactive)
REMARK    1  A    between atoms: C_4  and  C_5
REMARK    2  A    between atoms: C_4  and  C_7
REMARK    3  A    between atoms: C_9  and  N_10
REMARK    4  A    between atoms: N_10  and  C_11
REMARK    5  A    between atoms: C_23  and  C_24
REMARK                            x       y       z     vdW  Elec       q    Type
REMARK                         _______ _______ _______ _____ _____    ______ ____
ROOT
ATOM      1  C   UNL     1       3.314   5.895  18.709  0.00  0.00    +0.000 A 
ATOM      2  C   UNL     1       2.998   7.115  18.067  0.00  0.00    +0.000 A 
ATOM      3  C   UNL     1       2.145   8.065  18.657  0.00  0.00    +0.000 A 
ATOM      4  C   UNL     1       1.654   7.821  19.946  0.00  0.00    +0.000 A 
ATOM      5  C   UNL     1       1.942   6.627  20.595  0.00  0.00    +0.000 A 
ATOM      6  C   UNL     1       2.745   5.677  19.974  0.00  0.00    +0.000 A 
ATOM      7  F   UNL     1       2.969   4.545  20.650  0.00  0.00    +0.000 F 
ENDROOT
BRANCH   1  11
ATOM      8  N   UNL     1       5.746   5.990  14.894  0.00  0.00    +0.000 N 
ATOM      9  C   UNL     1       5.479   5.709  16.185  0.00  0.00    +0.000 C 
ATOM     10  N   UNL     1       4.381   5.179  16.568  0.00  0.00    +0.000 NA
ATOM     11  C   UNL     1       4.179   4.837  17.996  0.00  0.00    +0.000 C 
ATOM     12  C   UNL     1       5.567   4.582  18.610  0.00  0.00    +0.000 C 
ATOM     13  C   UNL     1       6.402   5.832  18.391  0.00  0.00    +0.000 C 
ATOM     14  O   UNL     1       6.516   6.061  16.968  0.00  0.00    +0.000 OA
ATOM     15  H   UNL     1       4.940   6.041  14.287  0.00  0.00    +0.000 HD
ATOM     16  H   UNL     1       6.467   6.679  14.734  0.00  0.00    +0.000 HD
BRANCH  13  17
ATOM     17  C   UNL     1       7.780   5.736  19.051  0.00  0.00    +0.000 C 
ATOM     18  F   UNL     1       8.507   4.693  18.591  0.00  0.00    +0.000 F 
ATOM     19  F   UNL     1       8.520   6.852  18.864  0.00  0.00    +0.000 F 
ATOM     20  F   UNL     1       7.649   5.570  20.391  0.00  0.00    +0.000 F 
ENDBRANCH  13  17
BRANCH  11  21
ATOM     21  C   UNL     1       3.394   3.501  18.025  0.00  0.00    +0.000 C 
ATOM     22  F   UNL     1       2.215   3.629  17.356  0.00  0.00    +0.000 F 
ENDBRANCH  11  21
ENDBRANCH   1  11
BRANCH   3  23
ATOM     23  N   UNL     1       1.839   9.274  17.986  0.00  0.00    +0.000 N 
ATOM     24  H   UNL     1       1.938   9.177  16.978  0.00  0.00    +0.000 HD
BRANCH  23  25
ATOM     25  C   UNL     1       0.730  10.113  18.272  0.00  0.00    +0.000 A 
ATOM     26  C   UNL     1       0.947  11.339  18.899  0.00  0.00    +0.000 A 
ATOM     27  C   UNL     1      -0.138  12.172  19.122  0.00  0.00    +0.000 A 
ATOM     28  N   UNL     1      -1.399  11.882  18.739  0.00  0.00    +0.000 NA
ATOM     29  C   UNL     1      -1.585  10.705  18.106  0.00  0.00    +0.000 A 
ATOM     30 BR   UNL     1      -3.340  10.281  17.525  0.00  0.00    +0.000 Br
ATOM     31  C   UNL     1      -0.563   9.804  17.845  0.00  0.00    +0.000 A 
ENDBRANCH  23  25
ENDBRANCH   3  23
TORSDOF 5
ENDMDL
MODEL 2
REMARK VINA RESULT:      -8.3      1.183      1.640
REMARK  Name = 
REMARK  5 active torsions:
REMARK  status: ('A' for Active; 'I' for Inactive)
REMARK    1  A    between atoms: C_4  and  C_5
REMARK    2  A    between atoms: C_4  and  C_7
REMARK    3  A    between atoms: C_9  and  N_10
REMARK    4  A    between atoms: N_10  and  C_11
REMARK    5  A    between atoms: C_23  and  C_24
REMARK                            x       y       z     vdW  Elec       q    Type
REMARK                         _______ _______ _______ _____ _____    ______ ____
ROOT
ATOM      1  C   UNL     1       3.327   5.903  18.701  0.00  0.00    +0.000 A 
ATOM      2  C   UNL     1       3.015   7.138  18.087  0.00  0.00    +0.000 A 
ATOM      3  C   UNL     1       2.151   8.070  18.691  0.00  0.00    +0.000 A 
ATOM      4  C   UNL     1       1.646   7.791  19.967  0.00  0.00    +0.000 A 
ATOM      5  C   UNL     1       1.932   6.581  20.588  0.00  0.00    +0.000 A 
ATOM      6  C   UNL     1       2.745   5.650  19.953  0.00  0.00    +0.000 A 
ATOM      7  F   UNL     1       2.965   4.502  20.602  0.00  0.00    +0.000 F 
ENDROOT
BRANCH   1  11
ATOM      8  N   UNL     1       5.788   6.100  14.908  0.00  0.00    +0.000 N 
ATOM      9  C   UNL     1       5.513   5.788  16.190  0.00  0.00    +0.000 C 
ATOM     10  N   UNL     1       4.415   5.243  16.552  0.00  0.00    +0.000 NA
ATOM     11  C   UNL     1       4.205   4.867  17.970  0.00  0.00    +0.000 C 
ATOM     12  C   UNL     1       5.590   4.606  18.589  0.00  0.00    +0.000 C 
ATOM     13  C   UNL     1       6.418   5.865  18.405  0.00  0.00    +0.000 C 
ATOM     14  O   UNL     1       6.542   6.127  16.989  0.00  0.00    +0.000 OA
ATOM     15  H   UNL     1       4.987   6.160  14.296  0.00  0.00    +0.000 HD
ATOM     16  H   UNL     1       6.506   6.797  14.769  0.00  0.00    +0.000 HD
BRANCH  13  17
ATOM     17  C   UNL     1       7.791   5.762  19.074  0.00  0.00    +0.000 C 
ATOM     18  F   UNL     1       8.544   6.870  18.892  0.00  0.00    +0.000 F 
ATOM     19  F   UNL     1       7.701   5.556  20.408  0.00  0.00    +0.000 F 
ATOM     20  F   UNL     1       8.488   4.718  18.561  0.00  0.00    +0.000 F 
ENDBRANCH  13  17
BRANCH  11  21
ATOM     21  C   UNL     1       3.428   3.526  17.962  0.00  0.00    +0.000 C 
ATOM     22  F   UNL     1       2.399   3.579  17.072  0.00  0.00    +0.000 F 
ENDBRANCH  11  21
ENDBRANCH   1  11
BRANCH   3  23
ATOM     23  N   UNL     1       1.849   9.295  18.048  0.00  0.00    +0.000 N 
ATOM     24  H   UNL     1       1.794   9.183  17.038  0.00  0.00    +0.000 HD
BRANCH  23  25
ATOM     25  C   UNL     1       0.862  10.223  18.474  0.00  0.00    +0.000 A 
ATOM     26  C   UNL     1      -0.469  10.013  18.117  0.00  0.00    +0.000 A 
ATOM     27  C   UNL     1      -1.429  10.896  18.585  0.00  0.00    +0.000 A 
ATOM     28  N   UNL     1      -1.158  11.939  19.396  0.00  0.00    +0.000 NA
ATOM     29  C   UNL     1       0.131  12.109  19.756  0.00  0.00    +0.000 A 
ATOM     30 BR   UNL     1       0.542  13.547  20.923  0.00  0.00    +0.000 Br
ATOM     31  C   UNL     1       1.161  11.282  19.333  0.00  0.00    +0.000 A 
ENDBRANCH  23  25
ENDBRANCH   3  23
TORSDOF 5
ENDMDL
MODEL 3
REMARK VINA RESULT:      -8.2      1.795      2.263
REMARK  Name = 
REMARK  5 active torsions:
REMARK  status: ('A' for Active; 'I' for Inactive)
REMARK    1  A    between atoms: C_4  and  C_5
REMARK    2  A    between atoms: C_4  and  C_7
REMARK    3  A    between atoms: C_9  and  N_10
REMARK    4  A    between atoms: N_10  and  C_11
REMARK    5  A    between atoms: C_23  and  C_24
REMARK                            x       y       z     vdW  Elec       q    Type
REMARK                         _______ _______ _______ _____ _____    ______ ____
ROOT
ATOM      1  C   UNL     1       3.362   5.092  18.982  0.00  0.00    +0.000 A 
ATOM      2  C   UNL     1       2.943   6.440  18.915  0.00  0.00    +0.000 A 
ATOM      3  C   UNL     1       2.006   6.974  19.819  0.00  0.00    +0.000 A 
ATOM      4  C   UNL     1       1.533   6.159  20.856  0.00  0.00    +0.000 A 
ATOM      5  C   UNL     1       1.923   4.829  20.940  0.00  0.00    +0.000 A 
ATOM      6  C   UNL     1       2.809   4.305  20.005  0.00  0.00    +0.000 A 
ATOM      7  F   UNL     1       3.130   3.013  20.138  0.00  0.00    +0.000 F 
ENDROOT
BRANCH   1  11
ATOM      8  N   UNL     1       5.339   6.901  15.335  0.00  0.00    +0.000 N 
ATOM      9  C   UNL     1       5.258   6.169  16.465  0.00  0.00    +0.000 C 
ATOM     10  N   UNL     1       4.313   5.337  16.686  0.00  0.00    +0.000 NA
ATOM     11  C   UNL     1       4.321   4.517  17.921  0.00  0.00    +0.000 C 
ATOM     12  C   UNL     1       5.788   4.356  18.359  0.00  0.00    +0.000 C 
ATOM     13  C   UNL     1       6.366   5.748  18.545  0.00  0.00    +0.000 C 
ATOM     14  O   UNL     1       6.293   6.445  17.281  0.00  0.00    +0.000 OA
ATOM     15  H   UNL     1       4.479   6.986  14.813  0.00  0.00    +0.000 HD
ATOM     16  H   UNL     1       5.909   7.733  15.391  0.00  0.00    +0.000 HD
BRANCH  13  17
ATOM     17  C   UNL     1       7.799   5.717  19.081  0.00  0.00    +0.000 C 
ATOM     18  F   UNL     1       7.851   5.550  20.422  0.00  0.00    +0.000 F 
ATOM     19  F   UNL     1       8.536   4.727  18.528  0.00  0.00    +0.000 F 
ATOM     20  F   UNL     1       8.433   6.883  18.800  0.00  0.00    +0.000 F 
ENDBRANCH  13  17
BRANCH  11  21
ATOM     21  C   UNL     1       3.787   3.117  17.525  0.00  0.00    +0.000 C 
ATOM     22  F   UNL     1       2.589   3.228  16.889  0.00  0.00    +0.000 F 
ENDBRANCH  11  21
ENDBRANCH   1  11
BRANCH   3  23
ATOM     23  N   UNL     1       1.598   8.326  19.721  0.00  0.00    +0.000 N 
ATOM     24  H   UNL     1       1.150   8.516  18.827  0.00  0.00    +0.000 HD
BRANCH  23  25
ATOM     25  C   UNL     1       0.941   9.061  20.743  0.00  0.00    +0.000 A 
ATOM     26  C   UNL     1       1.258   8.805  22.076  0.00  0.00    +0.000 A 
ATOM     27  C   UNL     1       0.651   9.568  23.060  0.00  0.00    +0.000 A 
ATOM     28  N   UNL     1      -0.213  10.572  22.807  0.00  0.00    +0.000 NA
ATOM     29  C   UNL     1      -0.484  10.826  21.509  0.00  0.00    +0.000 A 
ATOM     30 BR   UNL     1      -1.669  12.254  21.116  0.00  0.00    +0.000 Br
ATOM     31  C   UNL     1       0.069  10.113  20.457  0.00  0.00    +0.000 A 
ENDBRANCH  23  25
ENDBRANCH   3  23
TORSDOF 5
ENDMDL
MODEL 4
REMARK VINA RESULT:      -8.0      1.659      1.887
REMARK  Name = 
REMARK  5 active torsions:
REMARK  status: ('A' for Active; 'I' for Inactive)
REMARK    1  A    between atoms: C_4  and  C_5
REMARK    2  A    between atoms: C_4  and  C_7
REMARK    3  A    between atoms: C_9  and  N_10
REMARK    4  A    between atoms: N_10  and  C_11
REMARK    5  A    between atoms: C_23  and  C_24
REMARK                            x       y       z     vdW  Elec       q    Type
REMARK                         _______ _______ _______ _____ _____    ______ ____
ROOT
ATOM      1  C   UNL     1       3.348   5.971  18.648  0.00  0.00    +0.000 A 
ATOM      2  C   UNL     1       3.030   7.141  17.922  0.00  0.00    +0.000 A 
ATOM      3  C   UNL     1       2.183   8.135  18.447  0.00  0.00    +0.000 A 
ATOM      4  C   UNL     1       1.702   7.986  19.754  0.00  0.00    +0.000 A 
ATOM      5  C   UNL     1       1.992   6.842  20.486  0.00  0.00    +0.000 A 
ATOM      6  C   UNL     1       2.788   5.847  19.930  0.00  0.00    +0.000 A 
ATOM      7  F   UNL     1       3.015   4.766  20.685  0.00  0.00    +0.000 F 
ENDROOT
BRANCH   1  11
ATOM      8  N   UNL     1       5.836   5.817  14.871  0.00  0.00    +0.000 N 
ATOM      9  C   UNL     1       5.546   5.612  16.171  0.00  0.00    +0.000 C 
ATOM     10  N   UNL     1       4.433   5.122  16.565  0.00  0.00    +0.000 NA
ATOM     11  C   UNL     1       4.206   4.862  18.007  0.00  0.00    +0.000 C 
ATOM     12  C   UNL     1       5.580   4.619  18.655  0.00  0.00    +0.000 C 
ATOM     13  C   UNL     1       6.439   5.841  18.381  0.00  0.00    +0.000 C 
ATOM     14  O   UNL     1       6.577   5.990  16.950  0.00  0.00    +0.000 OA
ATOM     15  H   UNL     1       5.039   5.848  14.250  0.00  0.00    +0.000 HD
ATOM     16  H   UNL     1       6.570   6.485  14.684  0.00  0.00    +0.000 HD
BRANCH  13  17
ATOM     17  C   UNL     1       7.805   5.759  19.066  0.00  0.00    +0.000 C 
ATOM     18  F   UNL     1       8.550   4.722  18.622  0.00  0.00    +0.000 F 
ATOM     19  F   UNL     1       8.538   6.882  18.890  0.00  0.00    +0.000 F 
ATOM     20  F   UNL     1       7.652   5.596  20.404  0.00  0.00    +0.000 F 
ENDBRANCH  13  17
BRANCH  11  21
ATOM     21  C   UNL     1       3.398   3.542  18.097  0.00  0.00    +0.000 C 
ATOM     22  F   UNL     1       2.470   3.485  17.103  0.00  0.00    +0.000 F 
ENDBRANCH  11  21
ENDBRANCH   1  11
BRANCH   3  23
ATOM     23  N   UNL     1       1.875   9.293  17.693  0.00  0.00    +0.000 N 
ATOM     24  H   UNL     1       1.250   9.078  16.919  0.00  0.00    +0.000 HD
BRANCH  23  25
ATOM     25  C   UNL     1       1.534  10.560  18.236  0.00  0.00    +0.000 A 
ATOM     26  C   UNL     1       0.370  10.685  18.991  0.00  0.00    +0.000 A 
ATOM     27  C   UNL     1       0.078  11.914  19.561  0.00  0.00    +0.000 A 
ATOM     28  N   UNL     1       0.873  12.999  19.455  0.00  0.00    +0.000 NA
ATOM     29  C   UNL     1       2.011  12.850  18.746  0.00  0.00    +0.000 A 
ATOM     30 BR   UNL     1       3.168  14.347  18.604  0.00  0.00    +0.000 Br
ATOM     31  C   UNL     1       2.383  11.663  18.134  0.00  0.00    +0.000 A 
ENDBRANCH  23  25
ENDBRANCH   3  23
TORSDOF 5
ENDMDL
MODEL 5
REMARK VINA RESULT:      -7.9      6.500      8.310
REMARK  Name = 
REMARK  5 active torsions:
REMARK  status: ('A' for Active; 'I' for Inactive)
REMARK    1  A    between atoms: C_4  and  C_5
REMARK    2  A    between atoms: C_4  and  C_7
REMARK    3  A    between atoms: C_9  and  N_10
REMARK    4  A    between atoms: N_10  and  C_11
REMARK    5  A    between atoms: C_23  and  C_24
REMARK                            x       y       z     vdW  Elec       q    Type
REMARK                         _______ _______ _______ _____ _____    ______ ____
ROOT
ATOM      1  C   UNL     1      -1.172  11.326  18.949  0.00  0.00    +0.000 A 
ATOM      2  C   UNL     1      -2.402  11.996  19.145  0.00  0.00    +0.000 A 
ATOM      3  C   UNL     1      -3.547  11.682  18.390  0.00  0.00    +0.000 A 
ATOM      4  C   UNL     1      -3.478  10.629  17.470  0.00  0.00    +0.000 A 
ATOM      5  C   UNL     1      -2.280   9.960  17.253  0.00  0.00    +0.000 A 
ATOM      6  C   UNL     1      -1.145  10.320  17.971  0.00  0.00    +0.000 A 
ATOM      7  F   UNL     1      -0.023   9.644  17.701  0.00  0.00    +0.000 F 
ENDROOT
BRANCH   1  11
ATOM      8  N   UNL     1      -0.587  13.793  22.698  0.00  0.00    +0.000 N 
ATOM      9  C   UNL     1      -0.388  12.765  21.849  0.00  0.00    +0.000 C 
ATOM     10  N   UNL     1      -0.192  12.927  20.597  0.00  0.00    +0.000 NA
ATOM     11  C   UNL     1       0.085  11.757  19.731  0.00  0.00    +0.000 C 
ATOM     12  C   UNL     1       0.730  10.673  20.613  0.00  0.00    +0.000 C 
ATOM     13  C   UNL     1      -0.229  10.378  21.752  0.00  0.00    +0.000 C 
ATOM     14  O   UNL     1      -0.424  11.593  22.510  0.00  0.00    +0.000 OA
ATOM     15  H   UNL     1      -0.870  14.662  22.267  0.00  0.00    +0.000 HD
ATOM     16  H   UNL     1      -1.042  13.561  23.570  0.00  0.00    +0.000 HD
BRANCH  13  17
ATOM     17  C   UNL     1       0.260   9.236  22.646  0.00  0.00    +0.000 C 
ATOM     18  F   UNL     1       1.560   8.930  22.436  0.00  0.00    +0.000 F 
ATOM     19  F   UNL     1       0.125   9.518  23.962  0.00  0.00    +0.000 F 
ATOM     20  F   UNL     1      -0.459   8.111  22.409  0.00  0.00    +0.000 F 
ENDBRANCH  13  17
BRANCH  11  21
ATOM     21  C   UNL     1       1.141  12.214  18.693  0.00  0.00    +0.000 C 
ATOM     22  F   UNL     1       0.930  13.512  18.342  0.00  0.00    +0.000 F 
ENDBRANCH  11  21
ENDBRANCH   1  11
BRANCH   3  23
ATOM     23  N   UNL     1      -4.763  12.376  18.601  0.00  0.00    +0.000 N 
ATOM     24  H   UNL     1      -5.264  12.525  17.728  0.00  0.00    +0.000 HD
BRANCH  23  25
ATOM     25  C   UNL     1      -5.693  12.106  19.639  0.00  0.00    +0.000 A 
ATOM     26  C   UNL     1      -6.628  11.086  19.466  0.00  0.00    +0.000 A 
ATOM     27  C   UNL     1      -7.494  10.796  20.508  0.00  0.00    +0.000 A 
ATOM     28  N   UNL     1      -7.469  11.424  21.702  0.00  0.00    +0.000 NA
ATOM     29  C   UNL     1      -6.538  12.386  21.862  0.00  0.00    +0.000 A 
ATOM     30 BR   UNL     1      -6.454  13.266  23.540  0.00  0.00    +0.000 Br
ATOM     31  C   UNL     1      -5.634  12.751  20.876  0.00  0.00    +0.000 A 
ENDBRANCH  23  25
ENDBRANCH   3  23
TORSDOF 5
ENDMDL
MODEL 6
REMARK VINA RESULT:      -7.8      1.475      1.587
REMARK  Name = 
REMARK  5 active torsions:
REMARK  status: ('A' for Active; 'I' for Inactive)
REMARK    1  A    between atoms: C_4  and  C_5
REMARK    2  A    between atoms: C_4  and  C_7
REMARK    3  A    between atoms: C_9  and  N_10
REMARK    4  A    between atoms: N_10  and  C_11
REMARK    5  A    between atoms: C_23  and  C_24
REMARK                            x       y       z     vdW  Elec       q    Type
REMARK                         _______ _______ _______ _____ _____    ______ ____
ROOT
ATOM      1  C   UNL     1       3.320   5.534  18.844  0.00  0.00    +0.000 A 
ATOM      2  C   UNL     1       2.942   6.820  18.395  0.00  0.00    +0.000 A 
ATOM      3  C   UNL     1       2.040   7.624  19.116  0.00  0.00    +0.000 A 
ATOM      4  C   UNL     1       1.560   7.158  20.347  0.00  0.00    +0.000 A 
ATOM      5  C   UNL     1       1.910   5.895  20.807  0.00  0.00    +0.000 A 
ATOM      6  C   UNL     1       2.761   5.095  20.054  0.00  0.00    +0.000 A 
ATOM      7  F   UNL     1       3.043   3.884  20.550  0.00  0.00    +0.000 F 
ENDROOT
BRANCH   1  11
ATOM      8  N   UNL     1       5.598   6.287  15.006  0.00  0.00    +0.000 N 
ATOM      9  C   UNL     1       5.401   5.833  16.260  0.00  0.00    +0.000 C 
ATOM     10  N   UNL     1       4.362   5.172  16.603  0.00  0.00    +0.000 NA
ATOM     11  C   UNL     1       4.240   4.645  17.984  0.00  0.00    +0.000 C 
ATOM     12  C   UNL     1       5.665   4.434  18.526  0.00  0.00    +0.000 C 
ATOM     13  C   UNL     1       6.390   5.766  18.440  0.00  0.00    +0.000 C 
ATOM     14  O   UNL     1       6.434   6.173  17.053  0.00  0.00    +0.000 OA
ATOM     15  H   UNL     1       4.769   6.344  14.432  0.00  0.00    +0.000 HD
ATOM     16  H   UNL     1       6.256   7.048  14.913  0.00  0.00    +0.000 HD
BRANCH  13  17
ATOM     17  C   UNL     1       7.794   5.706  19.047  0.00  0.00    +0.000 C 
ATOM     18  F   UNL     1       8.531   4.685  18.556  0.00  0.00    +0.000 F 
ATOM     19  F   UNL     1       8.496   6.842  18.836  0.00  0.00    +0.000 F 
ATOM     20  F   UNL     1       7.719   5.534  20.390  0.00  0.00    +0.000 F 
ENDBRANCH  13  17
BRANCH  11  21
ATOM     21  C   UNL     1       3.565   3.255  17.869  0.00  0.00    +0.000 C 
ATOM     22  F   UNL     1       2.660   3.249  16.852  0.00  0.00    +0.000 F 
ENDBRANCH  11  21
ENDBRANCH   1  11
BRANCH   3  23
ATOM     23  N   UNL     1       1.672   8.904  18.637  0.00  0.00    +0.000 N 
ATOM     24  H   UNL     1       1.216   8.846  17.729  0.00  0.00    +0.000 HD
BRANCH  23  25
ATOM     25  C   UNL     1       1.056   9.924  19.409  0.00  0.00    +0.000 A 
ATOM     26  C   UNL     1       0.873  11.186  18.847  0.00  0.00    +0.000 A 
ATOM     27  C   UNL     1       0.221  12.156  19.593  0.00  0.00    +0.000 A 
ATOM     28  N   UNL     1      -0.279  11.945  20.828  0.00  0.00    +0.000 NA
ATOM     29  C   UNL     1      -0.119  10.708  21.343  0.00  0.00    +0.000 A 
ATOM     30 BR   UNL     1      -0.839  10.367  23.064  0.00  0.00    +0.000 Br
ATOM     31  C   UNL     1       0.525   9.677  20.676  0.00  0.00    +0.000 A 
ENDBRANCH  23  25
ENDBRANCH   3  23
TORSDOF 5
ENDMDL
MODEL 7
REMARK VINA RESULT:      -7.7      1.488      2.047
REMARK  Name = 
REMARK  5 active torsions:
REMARK  status: ('A' for Active; 'I' for Inactive)
REMARK    1  A    between atoms: C_4  and  C_5
REMARK    2  A    between atoms: C_4  and  C_7
REMARK    3  A    between atoms: C_9  and  N_10
REMARK    4  A    between atoms: N_10  and  C_11
REMARK    5  A    between atoms: C_23  and  C_24
REMARK                            x       y       z     vdW  Elec       q    Type
REMARK                         _______ _______ _______ _____ _____    ______ ____
ROOT
ATOM      1  C   UNL     1       3.320   4.688  18.974  0.00  0.00    +0.000 A 
ATOM      2  C   UNL     1       3.173   6.035  19.378  0.00  0.00    +0.000 A 
ATOM      3  C   UNL     1       2.228   6.421  20.347  0.00  0.00    +0.000 A 
ATOM      4  C   UNL     1       1.464   5.429  20.975  0.00  0.00    +0.000 A 
ATOM      5  C   UNL     1       1.584   4.099  20.591  0.00  0.00    +0.000 A 
ATOM      6  C   UNL     1       2.486   3.744  19.594  0.00  0.00    +0.000 A 
ATOM      7  F   UNL     1       2.539   2.449  19.264  0.00  0.00    +0.000 F 
ENDROOT
BRANCH   1  11
ATOM      8  N   UNL     1       5.063   7.037  15.520  0.00  0.00    +0.000 N 
ATOM      9  C   UNL     1       5.067   6.185  16.565  0.00  0.00    +0.000 C 
ATOM     10  N   UNL     1       4.200   5.256  16.707  0.00  0.00    +0.000 NA
ATOM     11  C   UNL     1       4.302   4.313  17.847  0.00  0.00    +0.000 C 
ATOM     12  C   UNL     1       5.785   4.233  18.248  0.00  0.00    +0.000 C 
ATOM     13  C   UNL     1       6.248   5.641  18.576  0.00  0.00    +0.000 C 
ATOM     14  O   UNL     1       6.091   6.460  17.395  0.00  0.00    +0.000 OA
ATOM     15  H   UNL     1       4.188   7.102  15.020  0.00  0.00    +0.000 HD
ATOM     16  H   UNL     1       5.562   7.904  15.659  0.00  0.00    +0.000 HD
BRANCH  13  17
ATOM     17  C   UNL     1       7.690   5.677  19.089  0.00  0.00    +0.000 C 
ATOM     18  F   UNL     1       7.766   5.579  20.436  0.00  0.00    +0.000 F 
ATOM     19  F   UNL     1       8.445   4.681  18.574  0.00  0.00    +0.000 F 
ATOM     20  F   UNL     1       8.286   6.844  18.740  0.00  0.00    +0.000 F 
ENDBRANCH  13  17
BRANCH  11  21
ATOM     21  C   UNL     1       3.879   2.922  17.309  0.00  0.00    +0.000 C 
ATOM     22  F   UNL     1       2.806   3.040  16.480  0.00  0.00    +0.000 F 
ENDBRANCH  11  21
ENDBRANCH   1  11
BRANCH   3  23
ATOM     23  N   UNL     1       2.096   7.779  20.725  0.00  0.00    +0.000 N 
ATOM     24  H   UNL     1       2.977   8.159  21.064  0.00  0.00    +0.000 HD
BRANCH  23  25
ATOM     25  C   UNL     1       1.407   8.775  19.982  0.00  0.00    +0.000 A 
ATOM     26  C   UNL     1       1.533   8.796  18.594  0.00  0.00    +0.000 A 
ATOM     27  C   UNL     1       0.812   9.739  17.878  0.00  0.00    +0.000 A 
ATOM     28  N   UNL     1      -0.034  10.625  18.442  0.00  0.00    +0.000 NA
ATOM     29  C   UNL     1      -0.166  10.569  19.783  0.00  0.00    +0.000 A 
ATOM     30 BR   UNL     1      -1.373  11.779  20.605  0.00  0.00    +0.000 Br
ATOM     31  C   UNL     1       0.518   9.667  20.584  0.00  0.00    +0.000 A 
ENDBRANCH  23  25
ENDBRANCH   3  23
TORSDOF 5
ENDMDL
MODEL 8
REMARK VINA RESULT:      -7.7      1.985      2.512
REMARK  Name = 
REMARK  5 active torsions:
REMARK  status: ('A' for Active; 'I' for Inactive)
REMARK    1  A    between atoms: C_4  and  C_5
REMARK    2  A    between atoms: C_4  and  C_7
REMARK    3  A    between atoms: C_9  and  N_10
REMARK    4  A    between atoms: N_10  and  C_11
REMARK    5  A    between atoms: C_23  and  C_24
REMARK                            x       y       z     vdW  Elec       q    Type
REMARK                         _______ _______ _______ _____ _____    ______ ____
ROOT
ATOM      1  C   UNL     1       3.225   6.184  18.587  0.00  0.00    +0.000 A 
ATOM      2  C   UNL     1       2.531   6.445  19.791  0.00  0.00    +0.000 A 
ATOM      3  C   UNL     1       1.929   7.691  20.046  0.00  0.00    +0.000 A 
ATOM      4  C   UNL     1       1.960   8.670  19.045  0.00  0.00    +0.000 A 
ATOM      5  C   UNL     1       2.642   8.441  17.857  0.00  0.00    +0.000 A 
ATOM      6  C   UNL     1       3.276   7.223  17.645  0.00  0.00    +0.000 A 
ATOM      7  F   UNL     1       3.925   7.077  16.485  0.00  0.00    +0.000 F 
ENDROOT
BRANCH   1  11
ATOM      8  N   UNL     1       5.457   4.417  15.069  0.00  0.00    +0.000 N 
ATOM      9  C   UNL     1       5.232   4.731  16.360  0.00  0.00    +0.000 C 
ATOM     10  N   UNL     1       4.109   4.530  16.938  0.00  0.00    +0.000 NA
ATOM     11  C   UNL     1       3.950   4.839  18.379  0.00  0.00    +0.000 C 
ATOM     12  C   UNL     1       5.338   4.717  19.033  0.00  0.00    +0.000 C 
ATOM     13  C   UNL     1       6.273   5.664  18.304  0.00  0.00    +0.000 C 
ATOM     14  O   UNL     1       6.335   5.265  16.916  0.00  0.00    +0.000 OA
ATOM     15  H   UNL     1       4.629   4.296  14.503  0.00  0.00    +0.000 HD
ATOM     16  H   UNL     1       6.231   4.895  14.629  0.00  0.00    +0.000 HD
BRANCH  13  17
ATOM     17  C   UNL     1       7.668   5.706  18.934  0.00  0.00    +0.000 C 
ATOM     18  F   UNL     1       7.634   5.619  20.282  0.00  0.00    +0.000 F 
ATOM     19  F   UNL     1       8.464   4.707  18.490  0.00  0.00    +0.000 F 
ATOM     20  F   UNL     1       8.289   6.871  18.625  0.00  0.00    +0.000 F 
ENDBRANCH  13  17
BRANCH  11  21
ATOM     21  C   UNL     1       3.045   3.729  18.972  0.00  0.00    +0.000 C 
ATOM     22  F   UNL     1       2.022   3.445  18.120  0.00  0.00    +0.000 F 
ENDBRANCH  11  21
ENDBRANCH   1  11
BRANCH   3  23
ATOM     23  N   UNL     1       1.249   7.927  21.265  0.00  0.00    +0.000 N 
ATOM     24  H   UNL     1       1.856   7.771  22.067  0.00  0.00    +0.000 HD
BRANCH  23  25
ATOM     25  C   UNL     1       0.395   9.031  21.529  0.00  0.00    +0.000 A 
ATOM     26  C   UNL     1       0.047   9.323  22.846  0.00  0.00    +0.000 A 
ATOM     27  C   UNL     1      -0.741  10.435  23.093  0.00  0.00    +0.000 A 
ATOM     28  N   UNL     1      -1.173  11.279  22.133  0.00  0.00    +0.000 NA
ATOM     29  C   UNL     1      -0.800  10.998  20.867  0.00  0.00    +0.000 A 
ATOM     30 BR   UNL     1      -1.361  12.182  19.496  0.00  0.00    +0.000 Br
ATOM     31  C   UNL     1      -0.019   9.905  20.522  0.00  0.00    +0.000 A 
ENDBRANCH  23  25
ENDBRANCH   3  23
TORSDOF 5
ENDMDL
MODEL 9
REMARK VINA RESULT:      -7.6      1.290      1.603
REMARK  Name = 
REMARK  5 active torsions:
REMARK  status: ('A' for Active; 'I' for Inactive)
REMARK    1  A    between atoms: C_4  and  C_5
REMARK    2  A    between atoms: C_4  and  C_7
REMARK    3  A    between atoms: C_9  and  N_10
REMARK    4  A    between atoms: N_10  and  C_11
REMARK    5  A    between atoms: C_23  and  C_24
REMARK                            x       y       z     vdW  Elec       q    Type
REMARK                         _______ _______ _______ _____ _____    ______ ____
ROOT
ATOM      1  C   UNL     1       3.226   5.058  18.979  0.00  0.00    +0.000 A 
ATOM      2  C   UNL     1       3.155   6.456  19.173  0.00  0.00    +0.000 A 
ATOM      3  C   UNL     1       2.236   7.037  20.067  0.00  0.00    +0.000 A 
ATOM      4  C   UNL     1       1.421   6.195  20.834  0.00  0.00    +0.000 A 
ATOM      5  C   UNL     1       1.466   4.818  20.657  0.00  0.00    +0.000 A 
ATOM      6  C   UNL     1       2.343   4.267  19.730  0.00  0.00    +0.000 A 
ATOM      7  F   UNL     1       2.322   2.935  19.601  0.00  0.00    +0.000 F 
ENDROOT
BRANCH   1  11
ATOM      8  N   UNL     1       5.201   6.799  15.298  0.00  0.00    +0.000 N 
ATOM      9  C   UNL     1       5.120   6.087  16.439  0.00  0.00    +0.000 C 
ATOM     10  N   UNL     1       4.173   5.262  16.677  0.00  0.00    +0.000 NA
ATOM     11  C   UNL     1       4.181   4.462  17.926  0.00  0.00    +0.000 C 
ATOM     12  C   UNL     1       5.648   4.305  18.364  0.00  0.00    +0.000 C 
ATOM     13  C   UNL     1       6.230   5.698  18.525  0.00  0.00    +0.000 C 
ATOM     14  O   UNL     1       6.157   6.374  17.249  0.00  0.00    +0.000 OA
ATOM     15  H   UNL     1       4.340   6.877  14.775  0.00  0.00    +0.000 HD
ATOM     16  H   UNL     1       5.773   7.630  15.338  0.00  0.00    +0.000 HD
BRANCH  13  17
ATOM     17  C   UNL     1       7.664   5.673  19.059  0.00  0.00    +0.000 C 
ATOM     18  F   UNL     1       7.718   5.519  20.401  0.00  0.00    +0.000 F 
ATOM     19  F   UNL     1       8.400   4.678  18.514  0.00  0.00    +0.000 F 
ATOM     20  F   UNL     1       8.297   6.836  18.765  0.00  0.00    +0.000 F 
ENDBRANCH  13  17
BRANCH  11  21
ATOM     21  C   UNL     1       3.643   3.057  17.555  0.00  0.00    +0.000 C 
ATOM     22  F   UNL     1       2.616   3.161  16.667  0.00  0.00    +0.000 F 
ENDBRANCH  11  21
ENDBRANCH   1  11
BRANCH   3  23
ATOM     23  N   UNL     1       2.181   8.442  20.233  0.00  0.00    +0.000 N 
ATOM     24  H   UNL     1       2.902   8.911  19.689  0.00  0.00    +0.000 HD
BRANCH  23  25
ATOM     25  C   UNL     1       0.996   9.224  20.219  0.00  0.00    +0.000 A 
ATOM     26  C   UNL     1       0.612   9.899  21.376  0.00  0.00    +0.000 A 
ATOM     27  C   UNL     1      -0.516  10.703  21.332  0.00  0.00    +0.000 A 
ATOM     28  N   UNL     1      -1.256  10.899  20.221  0.00  0.00    +0.000 NA
ATOM     29  C   UNL     1      -0.851  10.262  19.103  0.00  0.00    +0.000 A 
ATOM     30 BR   UNL     1      -1.850  10.542  17.515  0.00  0.00    +0.000 Br
ATOM     31  C   UNL     1       0.259   9.433  19.052  0.00  0.00    +0.000 A 
ENDBRANCH  23  25
ENDBRANCH   3  23
TORSDOF 5
ENDMDL
