MODEL 1
REMARK VINA RESULT:      -7.4      0.000      0.000
REMARK  Name = 
REMARK  9 active torsions:
REMARK  status: ('A' for Active; 'I' for Inactive)
REMARK    1  A    between atoms: C_1  and  O_2
REMARK    2  A    between atoms: O_2  and  C_3
REMARK    3  A    between atoms: C_8  and  N_9
REMARK    4  A    between atoms: C_10  and  C_12
REMARK    5  A    between atoms: C_12  and  O_13
REMARK    6  A    between atoms: O_13  and  C_14
REMARK    7  A    between atoms: C_14  and  C_16
REMARK    8  A    between atoms: C_16  and  O_17
REMARK    9  A    between atoms: O_17  and  C_18
REMARK                            x       y       z     vdW  Elec       q    Type
REMARK                         _______ _______ _______ _____ _____    ______ ____
ROOT
ATOM      1  C   UNL     1       3.555   2.385  20.152  0.00  0.00    +0.000 C 
ENDROOT
BRANCH   1   3
ATOM      2  N   UNL     1       4.968   3.679  18.592  0.00  0.00    +0.000 N 
ATOM      3  C   UNL     1       4.117   2.591  18.746  0.00  0.00    +0.000 C 
ATOM      4  O   UNL     1       3.870   1.750  17.881  0.00  0.00    +0.000 OA
ATOM      5  H   UNL     1       5.297   4.172  19.419  0.00  0.00    +0.000 HD
BRANCH   2  11
ATOM      6  C   UNL     1       6.869   4.589  17.312  0.00  0.00    +0.000 A 
ATOM      7  C   UNL     1       7.386   5.061  16.092  0.00  0.00    +0.000 A 
ATOM      8  C   UNL     1       6.639   4.994  14.918  0.00  0.00    +0.000 A 
ATOM      9  C   UNL     1       5.356   4.478  14.955  0.00  0.00    +0.000 A 
ATOM     10  C   UNL     1       4.812   4.049  16.165  0.00  0.00    +0.000 A 
ATOM     11  C   UNL     1       5.547   4.097  17.356  0.00  0.00    +0.000 A 
BRANCH   6  13
ATOM     12  C   UNL     1       7.775   5.861  19.092  0.00  0.00    +0.000 C 
ATOM     13  O   UNL     1       7.612   4.577  18.475  0.00  0.00    +0.000 OA
ENDBRANCH   6  13
ENDBRANCH   2  11
ENDBRANCH   1   3
BRANCH   1  14
ATOM     14  O   UNL     1       2.158   2.542  20.347  0.00  0.00    +0.000 OA
BRANCH  14  15
ATOM     15  C   UNL     1       1.664   3.707  19.824  0.00  0.00    +0.000 C 
ATOM     16  O   UNL     1       0.942   3.784  18.844  0.00  0.00    +0.000 OA
BRANCH  15  17
ATOM     17  C   UNL     1       1.997   4.867  20.752  0.00  0.00    +0.000 C 
BRANCH  17  18
ATOM     18  O   UNL     1       2.938   5.751  20.177  0.00  0.00    +0.000 OA
BRANCH  18  19
ATOM     19  C   UNL     1       2.444   6.906  19.627  0.00  0.00    +0.000 A 
ATOM     20  C   UNL     1       2.722   7.047  18.263  0.00  0.00    +0.000 A 
ATOM     21  C   UNL     1       2.306   8.181  17.561  0.00  0.00    +0.000 A 
ATOM     22  C   UNL     1       1.603   9.190  18.216  0.00  0.00    +0.000 A 
ATOM     23  C   UNL     1       1.313   9.059  19.573  0.00  0.00    +0.000 A 
ATOM     24  C   UNL     1       1.730   7.923  20.268  0.00  0.00    +0.000 A 
ATOM     25  F   UNL     1       1.423   7.853  21.572  0.00  0.00    +0.000 F 
ENDBRANCH  18  19
ENDBRANCH  17  18
ENDBRANCH  15  17
ENDBRANCH  14  15
ENDBRANCH   1  14
TORSDOF 8
ENDMDL
MODEL 2
REMARK VINA RESULT:      -7.3      2.014      5.607
REMARK  Name = 
REMARK  9 active torsions:
REMARK  status: ('A' for Active; 'I' for Inactive)
REMARK    1  A    between atoms: C_1  and  O_2
REMARK    2  A    between atoms: O_2  and  C_3
REMARK    3  A    between atoms: C_8  and  N_9
REMARK    4  A    between atoms: C_10  and  C_12
REMARK    5  A    between atoms: C_12  and  O_13
REMARK    6  A    between atoms: O_13  and  C_14
REMARK    7  A    between atoms: C_14  and  C_16
REMARK    8  A    between atoms: C_16  and  O_17
REMARK    9  A    between atoms: O_17  and  C_18
REMARK                            x       y       z     vdW  Elec       q    Type
REMARK                         _______ _______ _______ _____ _____    ______ ____
ROOT
ATOM      1  C   UNL     1       2.371   3.885  21.606  0.00  0.00    +0.000 C 
ENDROOT
BRANCH   1   3
ATOM      2  N   UNL     1       2.613   6.055  20.450  0.00  0.00    +0.000 N 
ATOM      3  C   UNL     1       1.773   4.983  20.728  0.00  0.00    +0.000 C 
ATOM      4  O   UNL     1       0.651   4.812  20.249  0.00  0.00    +0.000 OA
ATOM      5  H   UNL     1       3.598   5.990  20.693  0.00  0.00    +0.000 HD
BRANCH   2  11
ATOM      6  C   UNL     1       1.507   8.256  20.328  0.00  0.00    +0.000 A 
ATOM      7  C   UNL     1       1.090   9.355  19.556  0.00  0.00    +0.000 A 
ATOM      8  C   UNL     1       1.438   9.466  18.211  0.00  0.00    +0.000 A 
ATOM      9  C   UNL     1       2.185   8.465  17.616  0.00  0.00    +0.000 A 
ATOM     10  C   UNL     1       2.567   7.346  18.356  0.00  0.00    +0.000 A 
ATOM     11  C   UNL     1       2.238   7.218  19.711  0.00  0.00    +0.000 A 
BRANCH   6  13
ATOM     12  C   UNL     1      -0.025   8.705  22.077  0.00  0.00    +0.000 C 
ATOM     13  O   UNL     1       1.239   8.157  21.678  0.00  0.00    +0.000 OA
ENDBRANCH   6  13
ENDBRANCH   2  11
ENDBRANCH   1   3
BRANCH   1  14
ATOM     14  O   UNL     1       2.402   2.560  21.099  0.00  0.00    +0.000 OA
BRANCH  14  15
ATOM     15  C   UNL     1       2.906   2.476  19.829  0.00  0.00    +0.000 C 
ATOM     16  O   UNL     1       2.252   2.224  18.830  0.00  0.00    +0.000 OA
BRANCH  15  17
ATOM     17  C   UNL     1       4.361   2.923  19.825  0.00  0.00    +0.000 C 
BRANCH  17  18
ATOM     18  O   UNL     1       4.522   4.201  19.245  0.00  0.00    +0.000 OA
BRANCH  18  19
ATOM     19  C   UNL     1       5.187   4.257  18.047  0.00  0.00    +0.000 A 
ATOM     20  C   UNL     1       6.551   4.541  18.170  0.00  0.00    +0.000 A 
ATOM     21  C   UNL     1       7.364   4.654  17.039  0.00  0.00    +0.000 A 
ATOM     22  C   UNL     1       6.821   4.482  15.767  0.00  0.00    +0.000 A 
ATOM     23  C   UNL     1       5.464   4.193  15.631  0.00  0.00    +0.000 A 
ATOM     24  C   UNL     1       4.658   4.079  16.765  0.00  0.00    +0.000 A 
ATOM     25  F   UNL     1       3.361   3.799  16.572  0.00  0.00    +0.000 F 
ENDBRANCH  18  19
ENDBRANCH  17  18
ENDBRANCH  15  17
ENDBRANCH  14  15
ENDBRANCH   1  14
TORSDOF 8
ENDMDL
MODEL 3
REMARK VINA RESULT:      -7.2      4.327      6.749
REMARK  Name = 
REMARK  9 active torsions:
REMARK  status: ('A' for Active; 'I' for Inactive)
REMARK    1  A    between atoms: C_1  and  O_2
REMARK    2  A    between atoms: O_2  and  C_3
REMARK    3  A    between atoms: C_8  and  N_9
REMARK    4  A    between atoms: C_10  and  C_12
REMARK    5  A    between atoms: C_12  and  O_13
REMARK    6  A    between atoms: O_13  and  C_14
REMARK    7  A    between atoms: C_14  and  C_16
REMARK    8  A    between atoms: C_16  and  O_17
REMARK    9  A    between atoms: O_17  and  C_18
REMARK                            x       y       z     vdW  Elec       q    Type
REMARK                         _______ _______ _______ _____ _____    ______ ____
ROOT
ATOM      1  C   UNL     1       7.352   5.310  17.749  0.00  0.00    +0.000 C 
ENDROOT
BRANCH   1   3
ATOM      2  N   UNL     1       5.121   4.309  17.399  0.00  0.00    +0.000 N 
ATOM      3  C   UNL     1       6.084   4.686  18.328  0.00  0.00    +0.000 C 
ATOM      4  O   UNL     1       6.031   4.468  19.539  0.00  0.00    +0.000 OA
ATOM      5  H   UNL     1       5.357   4.311  16.410  0.00  0.00    +0.000 HD
BRANCH   2  11
ATOM      6  C   UNL     1       2.739   4.630  17.954  0.00  0.00    +0.000 A 
ATOM      7  C   UNL     1       1.506   4.077  18.341  0.00  0.00    +0.000 A 
ATOM      8  C   UNL     1       1.333   2.697  18.440  0.00  0.00    +0.000 A 
ATOM      9  C   UNL     1       2.401   1.857  18.178  0.00  0.00    +0.000 A 
ATOM     10  C   UNL     1       3.643   2.392  17.838  0.00  0.00    +0.000 A 
ATOM     11  C   UNL     1       3.837   3.774  17.722  0.00  0.00    +0.000 A 
BRANCH   6  13
ATOM     12  C   UNL     1       2.763   6.769  18.970  0.00  0.00    +0.000 C 
ATOM     13  O   UNL     1       2.918   5.987  17.778  0.00  0.00    +0.000 OA
ENDBRANCH   6  13
ENDBRANCH   2  11
ENDBRANCH   1   3
BRANCH   1  14
ATOM     14  O   UNL     1       7.897   6.450  18.396  0.00  0.00    +0.000 OA
BRANCH  14  15
ATOM     15  C   UNL     1       7.747   7.606  17.678  0.00  0.00    +0.000 C 
ATOM     16  O   UNL     1       6.974   7.757  16.746  0.00  0.00    +0.000 OA
BRANCH  15  17
ATOM     17  C   UNL     1       8.551   8.722  18.330  0.00  0.00    +0.000 C 
BRANCH  17  18
ATOM     18  O   UNL     1       8.081  10.001  17.957  0.00  0.00    +0.000 OA
BRANCH  18  19
ATOM     19  C   UNL     1       8.907  11.064  18.219  0.00  0.00    +0.000 A 
ATOM     20  C   UNL     1       9.968  10.758  19.078  0.00  0.00    +0.000 A 
ATOM     21  C   UNL     1      10.886  11.739  19.461  0.00  0.00    +0.000 A 
ATOM     22  C   UNL     1      10.754  13.042  18.987  0.00  0.00    +0.000 A 
ATOM     23  C   UNL     1       9.705  13.360  18.125  0.00  0.00    +0.000 A 
ATOM     24  C   UNL     1       8.793  12.375  17.745  0.00  0.00    +0.000 A 
ATOM     25  F   UNL     1       7.804  12.739  16.915  0.00  0.00    +0.000 F 
ENDBRANCH  18  19
ENDBRANCH  17  18
ENDBRANCH  15  17
ENDBRANCH  14  15
ENDBRANCH   1  14
TORSDOF 8
ENDMDL
MODEL 4
REMARK VINA RESULT:      -7.2      2.053      5.356
REMARK  Name = 
REMARK  9 active torsions:
REMARK  status: ('A' for Active; 'I' for Inactive)
REMARK    1  A    between atoms: C_1  and  O_2
REMARK    2  A    between atoms: O_2  and  C_3
REMARK    3  A    between atoms: C_8  and  N_9
REMARK    4  A    between atoms: C_10  and  C_12
REMARK    5  A    between atoms: C_12  and  O_13
REMARK    6  A    between atoms: O_13  and  C_14
REMARK    7  A    between atoms: C_14  and  C_16
REMARK    8  A    between atoms: C_16  and  O_17
REMARK    9  A    between atoms: O_17  and  C_18
REMARK                            x       y       z     vdW  Elec       q    Type
REMARK                         _______ _______ _______ _____ _____    ______ ____
ROOT
ATOM      1  C   UNL     1       2.453   3.575  21.442  0.00  0.00    +0.000 C 
ENDROOT
BRANCH   1   3
ATOM      2  N   UNL     1       2.740   5.810  20.430  0.00  0.00    +0.000 N 
ATOM      3  C   UNL     1       2.009   4.628  20.429  0.00  0.00    +0.000 C 
ATOM      4  O   UNL     1       1.121   4.339  19.626  0.00  0.00    +0.000 OA
ATOM      5  H   UNL     1       3.603   5.860  20.965  0.00  0.00    +0.000 HD
BRANCH   2  11
ATOM      6  C   UNL     1       1.643   7.996  20.109  0.00  0.00    +0.000 A 
ATOM      7  C   UNL     1       1.320   9.070  19.261  0.00  0.00    +0.000 A 
ATOM      8  C   UNL     1       1.837   9.151  17.970  0.00  0.00    +0.000 A 
ATOM      9  C   UNL     1       2.662   8.143  17.502  0.00  0.00    +0.000 A 
ATOM     10  C   UNL     1       2.954   7.048  18.315  0.00  0.00    +0.000 A 
ATOM     11  C   UNL     1       2.454   6.950  19.619  0.00  0.00    +0.000 A 
BRANCH   6  13
ATOM     12  C   UNL     1       1.376   9.137  22.168  0.00  0.00    +0.000 C 
ATOM     13  O   UNL     1       1.204   7.928  21.416  0.00  0.00    +0.000 OA
ENDBRANCH   6  13
ENDBRANCH   2  11
ENDBRANCH   1   3
BRANCH   1  14
ATOM     14  O   UNL     1       2.857   2.304  20.957  0.00  0.00    +0.000 OA
BRANCH  14  15
ATOM     15  C   UNL     1       4.202   2.218  20.711  0.00  0.00    +0.000 C 
ATOM     16  O   UNL     1       5.015   1.682  21.445  0.00  0.00    +0.000 OA
BRANCH  15  17
ATOM     17  C   UNL     1       4.499   2.726  19.308  0.00  0.00    +0.000 C 
BRANCH  17  18
ATOM     18  O   UNL     1       5.255   3.920  19.326  0.00  0.00    +0.000 OA
BRANCH  18  19
ATOM     19  C   UNL     1       5.568   4.471  18.110  0.00  0.00    +0.000 A 
ATOM     20  C   UNL     1       6.758   5.206  18.110  0.00  0.00    +0.000 A 
ATOM     21  C   UNL     1       7.203   5.850  16.953  0.00  0.00    +0.000 A 
ATOM     22  C   UNL     1       6.463   5.763  15.776  0.00  0.00    +0.000 A 
ATOM     23  C   UNL     1       5.279   5.029  15.759  0.00  0.00    +0.000 A 
ATOM     24  C   UNL     1       4.840   4.387  16.918  0.00  0.00    +0.000 A 
ATOM     25  F   UNL     1       3.693   3.695  16.842  0.00  0.00    +0.000 F 
ENDBRANCH  18  19
ENDBRANCH  17  18
ENDBRANCH  15  17
ENDBRANCH  14  15
ENDBRANCH   1  14
TORSDOF 8
ENDMDL
MODEL 5
REMARK VINA RESULT:      -7.0      4.403      7.166
REMARK  Name = 
REMARK  9 active torsions:
REMARK  status: ('A' for Active; 'I' for Inactive)
REMARK    1  A    between atoms: C_1  and  O_2
REMARK    2  A    between atoms: O_2  and  C_3
REMARK    3  A    between atoms: C_8  and  N_9
REMARK    4  A    between atoms: C_10  and  C_12
REMARK    5  A    between atoms: C_12  and  O_13
REMARK    6  A    between atoms: O_13  and  C_14
REMARK    7  A    between atoms: C_14  and  C_16
REMARK    8  A    between atoms: C_16  and  O_17
REMARK    9  A    between atoms: O_17  and  C_18
REMARK                            x       y       z     vdW  Elec       q    Type
REMARK                         _______ _______ _______ _____ _____    ______ ____
ROOT
ATOM      1  C   UNL     1       6.553   5.966  17.154  0.00  0.00    +0.000 C 
ENDROOT
BRANCH   1   3
ATOM      2  N   UNL     1       4.857   5.005  18.671  0.00  0.00    +0.000 N 
ATOM      3  C   UNL     1       5.092   5.828  17.576  0.00  0.00    +0.000 C 
ATOM      4  O   UNL     1       4.243   6.513  17.003  0.00  0.00    +0.000 OA
ATOM      5  H   UNL     1       5.646   4.674  19.222  0.00  0.00    +0.000 HD
BRANCH   2  11
ATOM      6  C   UNL     1       2.902   3.505  18.778  0.00  0.00    +0.000 A 
ATOM      7  C   UNL     1       1.603   3.249  19.250  0.00  0.00    +0.000 A 
ATOM      8  C   UNL     1       0.986   4.102  20.163  0.00  0.00    +0.000 A 
ATOM      9  C   UNL     1       1.653   5.235  20.594  0.00  0.00    +0.000 A 
ATOM     10  C   UNL     1       2.923   5.527  20.100  0.00  0.00    +0.000 A 
ATOM     11  C   UNL     1       3.567   4.680  19.189  0.00  0.00    +0.000 A 
BRANCH   6  13
ATOM     12  C   UNL     1       3.709   1.304  18.432  0.00  0.00    +0.000 C 
ATOM     13  O   UNL     1       3.564   2.640  17.930  0.00  0.00    +0.000 OA
ENDBRANCH   6  13
ENDBRANCH   2  11
ENDBRANCH   1   3
BRANCH   1  14
ATOM     14  O   UNL     1       7.047   7.262  16.853  0.00  0.00    +0.000 OA
BRANCH  14  15
ATOM     15  C   UNL     1       7.819   7.794  17.851  0.00  0.00    +0.000 C 
ATOM     16  O   UNL     1       8.370   7.151  18.729  0.00  0.00    +0.000 OA
BRANCH  15  17
ATOM     17  C   UNL     1       8.037   9.278  17.594  0.00  0.00    +0.000 C 
BRANCH  17  18
ATOM     18  O   UNL     1       8.553   9.942  18.729  0.00  0.00    +0.000 OA
BRANCH  18  19
ATOM     19  C   UNL     1       9.327  11.051  18.498  0.00  0.00    +0.000 A 
ATOM     20  C   UNL     1      10.595  10.989  19.086  0.00  0.00    +0.000 A 
ATOM     21  C   UNL     1      11.494  12.051  18.962  0.00  0.00    +0.000 A 
ATOM     22  C   UNL     1      11.136  13.190  18.244  0.00  0.00    +0.000 A 
ATOM     23  C   UNL     1       9.879  13.262  17.647  0.00  0.00    +0.000 A 
ATOM     24  C   UNL     1       8.985  12.197  17.774  0.00  0.00    +0.000 A 
ATOM     25  F   UNL     1       7.790  12.323  17.179  0.00  0.00    +0.000 F 
ENDBRANCH  18  19
ENDBRANCH  17  18
ENDBRANCH  15  17
ENDBRANCH  14  15
ENDBRANCH   1  14
TORSDOF 8
ENDMDL
MODEL 6
REMARK VINA RESULT:      -7.0      1.125      1.294
REMARK  Name = 
REMARK  9 active torsions:
REMARK  status: ('A' for Active; 'I' for Inactive)
REMARK    1  A    between atoms: C_1  and  O_2
REMARK    2  A    between atoms: O_2  and  C_3
REMARK    3  A    between atoms: C_8  and  N_9
REMARK    4  A    between atoms: C_10  and  C_12
REMARK    5  A    between atoms: C_12  and  O_13
REMARK    6  A    between atoms: O_13  and  C_14
REMARK    7  A    between atoms: C_14  and  C_16
REMARK    8  A    between atoms: C_16  and  O_17
REMARK    9  A    between atoms: O_17  and  C_18
REMARK                            x       y       z     vdW  Elec       q    Type
REMARK                         _______ _______ _______ _____ _____    ______ ____
ROOT
ATOM      1  C   UNL     1       2.787   1.898  19.570  0.00  0.00    +0.000 C 
ENDROOT
BRANCH   1   3
ATOM      2  N   UNL     1       4.451   3.252  18.345  0.00  0.00    +0.000 N 
ATOM      3  C   UNL     1       3.152   2.757  18.361  0.00  0.00    +0.000 C 
ATOM      4  O   UNL     1       2.333   2.875  17.449  0.00  0.00    +0.000 OA
ATOM      5  H   UNL     1       5.124   2.902  19.023  0.00  0.00    +0.000 HD
BRANCH   2  11
ATOM      6  C   UNL     1       5.618   5.334  17.721  0.00  0.00    +0.000 A 
ATOM      7  C   UNL     1       6.064   6.212  16.718  0.00  0.00    +0.000 A 
ATOM      8  C   UNL     1       5.945   5.885  15.369  0.00  0.00    +0.000 A 
ATOM      9  C   UNL     1       5.354   4.688  15.007  0.00  0.00    +0.000 A 
ATOM     10  C   UNL     1       4.864   3.828  15.989  0.00  0.00    +0.000 A 
ATOM     11  C   UNL     1       4.981   4.130  17.351  0.00  0.00    +0.000 A 
BRANCH   6  13
ATOM     12  C   UNL     1       7.119   5.381  19.553  0.00  0.00    +0.000 C 
ATOM     13  O   UNL     1       5.788   5.599  19.065  0.00  0.00    +0.000 OA
ENDBRANCH   6  13
ENDBRANCH   2  11
ENDBRANCH   1   3
BRANCH   1  14
ATOM     14  O   UNL     1       1.587   2.196  20.268  0.00  0.00    +0.000 OA
BRANCH  14  15
ATOM     15  C   UNL     1       1.713   3.240  21.144  0.00  0.00    +0.000 C 
ATOM     16  O   UNL     1       2.251   3.177  22.237  0.00  0.00    +0.000 OA
BRANCH  15  17
ATOM     17  C   UNL     1       1.248   4.527  20.477  0.00  0.00    +0.000 C 
BRANCH  17  18
ATOM     18  O   UNL     1       2.029   5.638  20.868  0.00  0.00    +0.000 OA
BRANCH  18  19
ATOM     19  C   UNL     1       1.950   6.757  20.079  0.00  0.00    +0.000 A 
ATOM     20  C   UNL     1       2.429   6.568  18.779  0.00  0.00    +0.000 A 
ATOM     21  C   UNL     1       2.438   7.619  17.858  0.00  0.00    +0.000 A 
ATOM     22  C   UNL     1       1.964   8.876  18.228  0.00  0.00    +0.000 A 
ATOM     23  C   UNL     1       1.477   9.077  19.518  0.00  0.00    +0.000 A 
ATOM     24  C   UNL     1       1.469   8.022  20.433  0.00  0.00    +0.000 A 
ATOM     25  F   UNL     1       0.990   8.275  21.660  0.00  0.00    +0.000 F 
ENDBRANCH  18  19
ENDBRANCH  17  18
ENDBRANCH  15  17
ENDBRANCH  14  15
ENDBRANCH   1  14
TORSDOF 8
ENDMDL
MODEL 7
REMARK VINA RESULT:      -6.9      3.034      4.907
REMARK  Name = 
REMARK  9 active torsions:
REMARK  status: ('A' for Active; 'I' for Inactive)
REMARK    1  A    between atoms: C_1  and  O_2
REMARK    2  A    between atoms: O_2  and  C_3
REMARK    3  A    between atoms: C_8  and  N_9
REMARK    4  A    between atoms: C_10  and  C_12
REMARK    5  A    between atoms: C_12  and  O_13
REMARK    6  A    between atoms: O_13  and  C_14
REMARK    7  A    between atoms: C_14  and  C_16
REMARK    8  A    between atoms: C_16  and  O_17
REMARK    9  A    between atoms: O_17  and  C_18
REMARK                            x       y       z     vdW  Elec       q    Type
REMARK                         _______ _______ _______ _____ _____    ______ ____
ROOT
ATOM      1  C   UNL     1       7.405   6.594  17.481  0.00  0.00    +0.000 C 
ENDROOT
BRANCH   1   3
ATOM      2  N   UNL     1       6.697   5.822  15.244  0.00  0.00    +0.000 N 
ATOM      3  C   UNL     1       7.360   5.495  16.421  0.00  0.00    +0.000 C 
ATOM      4  O   UNL     1       7.981   4.451  16.624  0.00  0.00    +0.000 OA
ATOM      5  H   UNL     1       6.426   6.788  15.079  0.00  0.00    +0.000 HD
BRANCH   2  11
ATOM      6  C   UNL     1       7.380   4.874  13.072  0.00  0.00    +0.000 A 
ATOM      7  C   UNL     1       7.096   4.036  11.980  0.00  0.00    +0.000 A 
ATOM      8  C   UNL     1       5.972   3.212  11.975  0.00  0.00    +0.000 A 
ATOM      9  C   UNL     1       5.104   3.238  13.052  0.00  0.00    +0.000 A 
ATOM     10  C   UNL     1       5.347   4.098  14.122  0.00  0.00    +0.000 A 
ATOM     11  C   UNL     1       6.475   4.927  14.154  0.00  0.00    +0.000 A 
BRANCH   6  13
ATOM     12  C   UNL     1       8.716   6.518  12.014  0.00  0.00    +0.000 C 
ATOM     13  O   UNL     1       8.523   5.645  13.135  0.00  0.00    +0.000 OA
ENDBRANCH   6  13
ENDBRANCH   2  11
ENDBRANCH   1   3
BRANCH   1  14
ATOM     14  O   UNL     1       6.445   6.561  18.526  0.00  0.00    +0.000 OA
BRANCH  14  15
ATOM     15  C   UNL     1       6.594   5.491  19.367  0.00  0.00    +0.000 C 
ATOM     16  O   UNL     1       7.481   5.371  20.197  0.00  0.00    +0.000 OA
BRANCH  15  17
ATOM     17  C   UNL     1       5.391   4.568  19.242  0.00  0.00    +0.000 C 
BRANCH  17  18
ATOM     18  O   UNL     1       4.171   5.266  19.385  0.00  0.00    +0.000 OA
BRANCH  18  19
ATOM     19  C   UNL     1       3.024   4.514  19.368  0.00  0.00    +0.000 A 
ATOM     20  C   UNL     1       2.382   4.432  20.608  0.00  0.00    +0.000 A 
ATOM     21  C   UNL     1       1.213   3.683  20.762  0.00  0.00    +0.000 A 
ATOM     22  C   UNL     1       0.667   3.007  19.672  0.00  0.00    +0.000 A 
ATOM     23  C   UNL     1       1.293   3.085  18.429  0.00  0.00    +0.000 A 
ATOM     24  C   UNL     1       2.460   3.837  18.282  0.00  0.00    +0.000 A 
ATOM     25  F   UNL     1       3.017   3.875  17.063  0.00  0.00    +0.000 F 
ENDBRANCH  18  19
ENDBRANCH  17  18
ENDBRANCH  15  17
ENDBRANCH  14  15
ENDBRANCH   1  14
TORSDOF 8
ENDMDL
MODEL 8
REMARK VINA RESULT:      -6.8      1.122      1.487
REMARK  Name = 
REMARK  9 active torsions:
REMARK  status: ('A' for Active; 'I' for Inactive)
REMARK    1  A    between atoms: C_1  and  O_2
REMARK    2  A    between atoms: O_2  and  C_3
REMARK    3  A    between atoms: C_8  and  N_9
REMARK    4  A    between atoms: C_10  and  C_12
REMARK    5  A    between atoms: C_12  and  O_13
REMARK    6  A    between atoms: O_13  and  C_14
REMARK    7  A    between atoms: C_14  and  C_16
REMARK    8  A    between atoms: C_16  and  O_17
REMARK    9  A    between atoms: O_17  and  C_18
REMARK                            x       y       z     vdW  Elec       q    Type
REMARK                         _______ _______ _______ _____ _____    ______ ____
ROOT
ATOM      1  C   UNL     1       3.143   2.308  20.001  0.00  0.00    +0.000 C 
ENDROOT
BRANCH   1   3
ATOM      2  N   UNL     1       4.720   3.697  18.704  0.00  0.00    +0.000 N 
ATOM      3  C   UNL     1       3.862   2.604  18.687  0.00  0.00    +0.000 C 
ATOM      4  O   UNL     1       3.721   1.822  17.746  0.00  0.00    +0.000 OA
ATOM      5  H   UNL     1       4.950   4.134  19.593  0.00  0.00    +0.000 HD
BRANCH   2  11
ATOM      6  C   UNL     1       6.337   5.271  17.708  0.00  0.00    +0.000 A 
ATOM      7  C   UNL     1       6.972   5.785  16.564  0.00  0.00    +0.000 A 
ATOM      8  C   UNL     1       6.775   5.209  15.310  0.00  0.00    +0.000 A 
ATOM      9  C   UNL     1       5.920   4.129  15.183  0.00  0.00    +0.000 A 
ATOM     10  C   UNL     1       5.247   3.638  16.301  0.00  0.00    +0.000 A 
ATOM     11  C   UNL     1       5.436   4.194  17.572  0.00  0.00    +0.000 A 
BRANCH   6  13
ATOM     12  C   UNL     1       7.940   5.726  19.392  0.00  0.00    +0.000 C 
ATOM     13  O   UNL     1       6.570   5.776  18.972  0.00  0.00    +0.000 OA
ENDBRANCH   6  13
ENDBRANCH   2  11
ENDBRANCH   1   3
BRANCH   1  14
ATOM     14  O   UNL     1       1.773   2.662  20.113  0.00  0.00    +0.000 OA
BRANCH  14  15
ATOM     15  C   UNL     1       1.485   3.892  19.585  0.00  0.00    +0.000 C 
ATOM     16  O   UNL     1       0.945   4.083  18.508  0.00  0.00    +0.000 OA
BRANCH  15  17
ATOM     17  C   UNL     1       1.770   4.972  20.619  0.00  0.00    +0.000 C 
BRANCH  17  18
ATOM     18  O   UNL     1       2.789   5.855  20.195  0.00  0.00    +0.000 OA
BRANCH  18  19
ATOM     19  C   UNL     1       2.387   7.007  19.569  0.00  0.00    +0.000 A 
ATOM     20  C   UNL     1       1.682   7.886  20.397  0.00  0.00    +0.000 A 
ATOM     21  C   UNL     1       1.184   9.094  19.902  0.00  0.00    +0.000 A 
ATOM     22  C   UNL     1       1.389   9.440  18.568  0.00  0.00    +0.000 A 
ATOM     23  C   UNL     1       2.096   8.577  17.732  0.00  0.00    +0.000 A 
ATOM     24  C   UNL     1       2.592   7.372  18.234  0.00  0.00    +0.000 A 
ATOM     25  F   UNL     1       3.264   6.581  17.384  0.00  0.00    +0.000 F 
ENDBRANCH  18  19
ENDBRANCH  17  18
ENDBRANCH  15  17
ENDBRANCH  14  15
ENDBRANCH   1  14
TORSDOF 8
ENDMDL
MODEL 9
REMARK VINA RESULT:      -6.8      4.729      6.951
REMARK  Name = 
REMARK  9 active torsions:
REMARK  status: ('A' for Active; 'I' for Inactive)
REMARK    1  A    between atoms: C_1  and  O_2
REMARK    2  A    between atoms: O_2  and  C_3
REMARK    3  A    between atoms: C_8  and  N_9
REMARK    4  A    between atoms: C_10  and  C_12
REMARK    5  A    between atoms: C_12  and  O_13
REMARK    6  A    between atoms: O_13  and  C_14
REMARK    7  A    between atoms: C_14  and  C_16
REMARK    8  A    between atoms: C_16  and  O_17
REMARK    9  A    between atoms: O_17  and  C_18
REMARK                            x       y       z     vdW  Elec       q    Type
REMARK                         _______ _______ _______ _____ _____    ______ ____
ROOT
ATOM      1  C   UNL     1       8.212   7.234  18.623  0.00  0.00    +0.000 C 
ENDROOT
BRANCH   1   3
ATOM      2  N   UNL     1       9.305   9.399  19.091  0.00  0.00    +0.000 N 
ATOM      3  C   UNL     1       8.310   8.739  18.380  0.00  0.00    +0.000 C 
ATOM      4  O   UNL     1       7.591   9.248  17.519  0.00  0.00    +0.000 OA
ATOM      5  H   UNL     1      10.001   8.854  19.595  0.00  0.00    +0.000 HD
BRANCH   2  11
ATOM      6  C   UNL     1       9.309  11.589  20.226  0.00  0.00    +0.000 A 
ATOM      7  C   UNL     1       9.466  12.984  20.154  0.00  0.00    +0.000 A 
ATOM      8  C   UNL     1       9.894  13.603  18.981  0.00  0.00    +0.000 A 
ATOM      9  C   UNL     1      10.144  12.834  17.858  0.00  0.00    +0.000 A 
ATOM     10  C   UNL     1       9.947  11.454  17.900  0.00  0.00    +0.000 A 
ATOM     11  C   UNL     1       9.528  10.810  19.070  0.00  0.00    +0.000 A 
BRANCH   6  13
ATOM     12  C   UNL     1       8.357  11.790  22.386  0.00  0.00    +0.000 C 
ATOM     13  O   UNL     1       8.957  10.944  21.394  0.00  0.00    +0.000 OA
ENDBRANCH   6  13
ENDBRANCH   2  11
ENDBRANCH   1   3
BRANCH   1  14
ATOM     14  O   UNL     1       7.117   6.532  18.056  0.00  0.00    +0.000 OA
BRANCH  14  15
ATOM     15  C   UNL     1       6.579   5.594  18.896  0.00  0.00    +0.000 C 
ATOM     16  O   UNL     1       7.062   5.249  19.962  0.00  0.00    +0.000 OA
BRANCH  15  17
ATOM     17  C   UNL     1       5.203   5.184  18.393  0.00  0.00    +0.000 C 
BRANCH  17  18
ATOM     18  O   UNL     1       4.844   3.888  18.827  0.00  0.00    +0.000 OA
BRANCH  18  19
ATOM     19  C   UNL     1       3.576   3.732  19.324  0.00  0.00    +0.000 A 
ATOM     20  C   UNL     1       3.076   4.867  19.970  0.00  0.00    +0.000 A 
ATOM     21  C   UNL     1       1.806   4.861  20.551  0.00  0.00    +0.000 A 
ATOM     22  C   UNL     1       1.015   3.716  20.490  0.00  0.00    +0.000 A 
ATOM     23  C   UNL     1       1.497   2.579  19.844  0.00  0.00    +0.000 A 
ATOM     24  C   UNL     1       2.767   2.592  19.264  0.00  0.00    +0.000 A 
ATOM     25  F   UNL     1       3.177   1.469  18.656  0.00  0.00    +0.000 F 
ENDBRANCH  18  19
ENDBRANCH  17  18
ENDBRANCH  15  17
ENDBRANCH  14  15
ENDBRANCH   1  14
TORSDOF 8
ENDMDL
