MODEL 1
REMARK VINA RESULT:      -7.9      0.000      0.000
REMARK  Name = 
REMARK  7 active torsions:
REMARK  status: ('A' for Active; 'I' for Inactive)
REMARK    1  A    between atoms: C_1  and  N_2
REMARK    2  A    between atoms: N_2  and  C_3
REMARK    3  A    between atoms: C_3  and  C_4
REMARK    4  A    between atoms: C_4  and  C_5
REMARK    5  A    between atoms: N_7  and  C_8
REMARK    6  A    between atoms: N_14  and  S_15
REMARK    7  A    between atoms: S_15  and  C_18
REMARK                            x       y       z     vdW  Elec       q    Type
REMARK                         _______ _______ _______ _____ _____    ______ ____
ROOT
ATOM      1  C   UNL     1       2.335   6.358  20.122  0.00  0.00    +0.000 A 
ATOM      2  C   UNL     1       3.063   6.293  18.937  0.00  0.00    +0.000 A 
ATOM      3  C   UNL     1       3.014   7.355  18.048  0.00  0.00    +0.000 A 
ATOM      4  C   UNL     1       2.238   8.485  18.384  0.00  0.00    +0.000 A 
ATOM      5  C   UNL     1       1.958   9.688  17.722  0.00  0.00    +0.000 A 
ATOM      6  N   UNL     1       1.055  10.430  18.364  0.00  0.00    +0.000 NA
ATOM      7  N   UNL     1       0.953   9.841  19.607  0.00  0.00    +0.000 N 
ATOM      8  C   UNL     1       1.523   8.559  19.600  0.00  0.00    +0.000 A 
ATOM      9  C   UNL     1       1.526   7.464  20.472  0.00  0.00    +0.000 A 
ENDROOT
BRANCH   1  12
ATOM     10  C   UNL     1       1.652   4.152  20.806  0.00  0.00    +0.000 C 
ATOM     11  O   UNL     1       0.687   4.086  20.047  0.00  0.00    +0.000 OA
ATOM     12  N   UNL     1       2.415   5.294  21.029  0.00  0.00    +0.000 N 
ATOM     13  H   UNL     1       3.330   5.158  21.429  0.00  0.00    +0.000 HD
BRANCH  10  14
ATOM     14  C   UNL     1       2.110   2.946  21.595  0.00  0.00    +0.000 C 
BRANCH  14  15
ATOM     15  C   UNL     1       3.401   2.355  21.031  0.00  0.00    +0.000 C 
BRANCH  15  17
ATOM     16  C   UNL     1       3.356   1.744  18.718  0.00  0.00    +0.000 C 
ATOM     17  N   UNL     1       3.647   2.816  19.666  0.00  0.00    +0.000 NA
ATOM     18  H   UNL     1       3.051   3.616  19.457  0.00  0.00    +0.000 HD
ENDBRANCH  15  17
ENDBRANCH  14  15
ENDBRANCH  10  14
ENDBRANCH   1  12
BRANCH   7  19
ATOM     19  S   UNL     1       0.217  10.753  21.112  0.00  0.00    +0.000 S 
ATOM     20  O   UNL     1      -0.275   9.671  21.943  0.00  0.00    +0.000 OA
ATOM     21  O   UNL     1       1.268  11.662  21.528  0.00  0.00    +0.000 OA
BRANCH  19  22
ATOM     22  C   UNL     1      -1.183  11.715  20.448  0.00  0.00    +0.000 A 
ATOM     23  C   UNL     1      -1.457  12.739  21.332  0.00  0.00    +0.000 A 
ATOM     24  C   UNL     1      -2.174  13.807  20.903  0.00  0.00    +0.000 A 
ATOM     25  C   UNL     1      -3.399  13.353  20.541  0.00  0.00    +0.000 A 
ATOM     26  C   UNL     1      -3.418  12.272  19.696  0.00  0.00    +0.000 A 
ATOM     27  C   UNL     1      -4.624  12.128  19.037  0.00  0.00    +0.000 A 
ATOM     28  C   UNL     1      -4.705  11.404  17.862  0.00  0.00    +0.000 A 
ATOM     29  C   UNL     1      -3.553  10.783  17.388  0.00  0.00    +0.000 A 
ATOM     30  C   UNL     1      -2.344  10.764  18.160  0.00  0.00    +0.000 A 
ATOM     31  C   UNL     1      -2.197  11.509  19.408  0.00  0.00    +0.000 A 
ENDBRANCH  19  22
ENDBRANCH   7  19
TORSDOF 6
ENDMDL
MODEL 2
REMARK VINA RESULT:      -7.6      2.387      2.986
REMARK  Name = 
REMARK  7 active torsions:
REMARK  status: ('A' for Active; 'I' for Inactive)
REMARK    1  A    between atoms: C_1  and  N_2
REMARK    2  A    between atoms: N_2  and  C_3
REMARK    3  A    between atoms: C_3  and  C_4
REMARK    4  A    between atoms: C_4  and  C_5
REMARK    5  A    between atoms: N_7  and  C_8
REMARK    6  A    between atoms: N_14  and  S_15
REMARK    7  A    between atoms: S_15  and  C_18
REMARK                            x       y       z     vdW  Elec       q    Type
REMARK                         _______ _______ _______ _____ _____    ______ ____
ROOT
ATOM      1  C   UNL     1       2.731   6.340  19.598  0.00  0.00    +0.000 A 
ATOM      2  C   UNL     1       3.122   6.714  18.316  0.00  0.00    +0.000 A 
ATOM      3  C   UNL     1       2.657   7.906  17.783  0.00  0.00    +0.000 A 
ATOM      4  C   UNL     1       1.813   8.718  18.571  0.00  0.00    +0.000 A 
ATOM      5  C   UNL     1       1.165   9.938  18.338  0.00  0.00    +0.000 A 
ATOM      6  N   UNL     1       0.348  10.284  19.333  0.00  0.00    +0.000 NA
ATOM      7  N   UNL     1       0.680   9.425  20.360  0.00  0.00    +0.000 N 
ATOM      8  C   UNL     1       1.441   8.348  19.882  0.00  0.00    +0.000 A 
ATOM      9  C   UNL     1       1.863   7.117  20.400  0.00  0.00    +0.000 A 
ENDROOT
BRANCH   1  12
ATOM     10  C   UNL     1       2.446   4.000  20.095  0.00  0.00    +0.000 C 
ATOM     11  O   UNL     1       1.235   3.981  19.885  0.00  0.00    +0.000 OA
ATOM     12  N   UNL     1       3.229   5.149  20.142  0.00  0.00    +0.000 N 
ATOM     13  H   UNL     1       4.223   5.026  20.028  0.00  0.00    +0.000 HD
BRANCH  10  14
ATOM     14  C   UNL     1       3.219   2.721  20.331  0.00  0.00    +0.000 C 
BRANCH  14  15
ATOM     15  C   UNL     1       4.012   2.301  19.095  0.00  0.00    +0.000 C 
BRANCH  15  17
ATOM     16  C   UNL     1       4.504   3.550  17.115  0.00  0.00    +0.000 C 
ATOM     17  N   UNL     1       3.452   2.884  17.877  0.00  0.00    +0.000 NA
ATOM     18  H   UNL     1       3.036   2.152  17.302  0.00  0.00    +0.000 HD
ENDBRANCH  15  17
ENDBRANCH  14  15
ENDBRANCH  10  14
ENDBRANCH   1  12
BRANCH   7  19
ATOM     19  S   UNL     1       0.219   9.778  22.177  0.00  0.00    +0.000 S 
ATOM     20  O   UNL     1      -0.877   8.861  22.422  0.00  0.00    +0.000 OA
ATOM     21  O   UNL     1       1.484   9.715  22.885  0.00  0.00    +0.000 OA
BRANCH  19  22
ATOM     22  C   UNL     1      -0.391  11.497  22.188  0.00  0.00    +0.000 A 
ATOM     23  C   UNL     1       0.587  12.302  21.640  0.00  0.00    +0.000 A 
ATOM     24  C   UNL     1       0.248  13.532  21.181  0.00  0.00    +0.000 A 
ATOM     25  C   UNL     1      -0.206  14.248  22.239  0.00  0.00    +0.000 A 
ATOM     26  C   UNL     1      -1.162  13.641  23.013  0.00  0.00    +0.000 A 
ATOM     27  C   UNL     1      -1.879  14.537  23.783  0.00  0.00    +0.000 A 
ATOM     28  C   UNL     1      -3.127  14.207  24.276  0.00  0.00    +0.000 A 
ATOM     29  C   UNL     1      -3.621  12.930  24.021  0.00  0.00    +0.000 A 
ATOM     30  C   UNL     1      -2.810  11.928  23.391  0.00  0.00    +0.000 A 
ATOM     31  C   UNL     1      -1.484  12.218  22.849  0.00  0.00    +0.000 A 
ENDBRANCH  19  22
ENDBRANCH   7  19
TORSDOF 6
ENDMDL
MODEL 3
REMARK VINA RESULT:      -7.4      3.474      9.356
REMARK  Name = 
REMARK  7 active torsions:
REMARK  status: ('A' for Active; 'I' for Inactive)
REMARK    1  A    between atoms: C_1  and  N_2
REMARK    2  A    between atoms: N_2  and  C_3
REMARK    3  A    between atoms: C_3  and  C_4
REMARK    4  A    between atoms: C_4  and  C_5
REMARK    5  A    between atoms: N_7  and  C_8
REMARK    6  A    between atoms: N_14  and  S_15
REMARK    7  A    between atoms: S_15  and  C_18
REMARK                            x       y       z     vdW  Elec       q    Type
REMARK                         _______ _______ _______ _____ _____    ______ ____
ROOT
ATOM      1  C   UNL     1       2.220   7.414  19.063  0.00  0.00    +0.000 A 
ATOM      2  C   UNL     1       1.807   7.550  20.386  0.00  0.00    +0.000 A 
ATOM      3  C   UNL     1       1.509   6.417  21.127  0.00  0.00    +0.000 A 
ATOM      4  C   UNL     1       1.653   5.152  20.518  0.00  0.00    +0.000 A 
ATOM      5  C   UNL     1       1.422   3.843  20.961  0.00  0.00    +0.000 A 
ATOM      6  N   UNL     1       1.572   2.939  19.993  0.00  0.00    +0.000 NA
ATOM      7  N   UNL     1       2.190   3.632  18.972  0.00  0.00    +0.000 N 
ATOM      8  C   UNL     1       2.099   5.016  19.185  0.00  0.00    +0.000 A 
ATOM      9  C   UNL     1       2.345   6.162  18.418  0.00  0.00    +0.000 A 
ENDROOT
BRANCH   1  12
ATOM     10  C   UNL     1       1.638   9.611  18.265  0.00  0.00    +0.000 C 
ATOM     11  O   UNL     1       0.444   9.526  18.544  0.00  0.00    +0.000 OA
ATOM     12  N   UNL     1       2.549   8.561  18.331  0.00  0.00    +0.000 N 
ATOM     13  H   UNL     1       3.526   8.809  18.366  0.00  0.00    +0.000 HD
BRANCH  10  14
ATOM     14  C   UNL     1       2.243  10.920  17.808  0.00  0.00    +0.000 C 
BRANCH  14  15
ATOM     15  C   UNL     1       1.683  12.108  18.588  0.00  0.00    +0.000 C 
BRANCH  15  17
ATOM     16  C   UNL     1       0.604  12.780  20.614  0.00  0.00    +0.000 C 
ATOM     17  N   UNL     1       1.443  11.763  19.987  0.00  0.00    +0.000 NA
ATOM     18  H   UNL     1       0.972  10.860  20.047  0.00  0.00    +0.000 HD
ENDBRANCH  15  17
ENDBRANCH  14  15
ENDBRANCH  10  14
ENDBRANCH   1  12
BRANCH   7  19
ATOM     19  S   UNL     1       3.113   2.755  17.553  0.00  0.00    +0.000 S 
ATOM     20  O   UNL     1       3.557   1.518  18.165  0.00  0.00    +0.000 OA
ATOM     21  O   UNL     1       2.184   2.804  16.439  0.00  0.00    +0.000 OA
BRANCH  19  22
ATOM     22  C   UNL     1       4.546   3.821  17.187  0.00  0.00    +0.000 A 
ATOM     23  C   UNL     1       4.822   3.720  15.838  0.00  0.00    +0.000 A 
ATOM     24  C   UNL     1       5.570   4.683  15.245  0.00  0.00    +0.000 A 
ATOM     25  C   UNL     1       6.793   4.663  15.828  0.00  0.00    +0.000 A 
ATOM     26  C   UNL     1       6.809   4.689  17.200  0.00  0.00    +0.000 A 
ATOM     27  C   UNL     1       8.026   5.093  17.716  0.00  0.00    +0.000 A 
ATOM     28  C   UNL     1       8.118   5.596  19.000  0.00  0.00    +0.000 A 
ATOM     29  C   UNL     1       6.963   5.637  19.778  0.00  0.00    +0.000 A 
ATOM     30  C   UNL     1       5.737   5.045  19.325  0.00  0.00    +0.000 A 
ATOM     31  C   UNL     1       5.579   4.499  17.979  0.00  0.00    +0.000 A 
ENDBRANCH  19  22
ENDBRANCH   7  19
TORSDOF 6
ENDMDL
MODEL 4
REMARK VINA RESULT:      -7.4      2.174      2.696
REMARK  Name = 
REMARK  7 active torsions:
REMARK  status: ('A' for Active; 'I' for Inactive)
REMARK    1  A    between atoms: C_1  and  N_2
REMARK    2  A    between atoms: N_2  and  C_3
REMARK    3  A    between atoms: C_3  and  C_4
REMARK    4  A    between atoms: C_4  and  C_5
REMARK    5  A    between atoms: N_7  and  C_8
REMARK    6  A    between atoms: N_14  and  S_15
REMARK    7  A    between atoms: S_15  and  C_18
REMARK                            x       y       z     vdW  Elec       q    Type
REMARK                         _______ _______ _______ _____ _____    ______ ____
ROOT
ATOM      1  C   UNL     1       2.777   6.348  19.544  0.00  0.00    +0.000 A 
ATOM      2  C   UNL     1       3.145   6.739  18.259  0.00  0.00    +0.000 A 
ATOM      3  C   UNL     1       2.658   7.930  17.744  0.00  0.00    +0.000 A 
ATOM      4  C   UNL     1       1.815   8.724  18.552  0.00  0.00    +0.000 A 
ATOM      5  C   UNL     1       1.148   9.938  18.340  0.00  0.00    +0.000 A 
ATOM      6  N   UNL     1       0.341  10.264  19.349  0.00  0.00    +0.000 NA
ATOM      7  N   UNL     1       0.698   9.400  20.364  0.00  0.00    +0.000 N 
ATOM      8  C   UNL     1       1.466   8.337  19.865  0.00  0.00    +0.000 A 
ATOM      9  C   UNL     1       1.911   7.107  20.364  0.00  0.00    +0.000 A 
ENDROOT
BRANCH   1  12
ATOM     10  C   UNL     1       2.553   3.987  19.968  0.00  0.00    +0.000 C 
ATOM     11  O   UNL     1       1.350   3.937  19.723  0.00  0.00    +0.000 OA
ATOM     12  N   UNL     1       3.298   5.159  20.068  0.00  0.00    +0.000 N 
ATOM     13  H   UNL     1       4.298   5.070  19.980  0.00  0.00    +0.000 HD
BRANCH  10  14
ATOM     14  C   UNL     1       3.360   2.728  20.191  0.00  0.00    +0.000 C 
BRANCH  14  15
ATOM     15  C   UNL     1       3.810   2.100  18.873  0.00  0.00    +0.000 C 
BRANCH  15  17
ATOM     16  C   UNL     1       4.544   3.496  17.074  0.00  0.00    +0.000 C 
ATOM     17  N   UNL     1       3.382   2.900  17.727  0.00  0.00    +0.000 NA
ATOM     18  H   UNL     1       2.889   2.310  17.056  0.00  0.00    +0.000 HD
ENDBRANCH  15  17
ENDBRANCH  14  15
ENDBRANCH  10  14
ENDBRANCH   1  12
BRANCH   7  19
ATOM     19  S   UNL     1       0.259   9.730  22.190  0.00  0.00    +0.000 S 
ATOM     20  O   UNL     1      -0.802   8.776  22.449  0.00  0.00    +0.000 OA
ATOM     21  O   UNL     1       1.537   9.705  22.875  0.00  0.00    +0.000 OA
BRANCH  19  22
ATOM     22  C   UNL     1      -0.407  11.428  22.220  0.00  0.00    +0.000 A 
ATOM     23  C   UNL     1      -1.657  11.388  22.804  0.00  0.00    +0.000 A 
ATOM     24  C   UNL     1      -2.193  12.533  23.293  0.00  0.00    +0.000 A 
ATOM     25  C   UNL     1      -2.349  13.385  22.251  0.00  0.00    +0.000 A 
ATOM     26  C   UNL     1      -1.252  13.563  21.446  0.00  0.00    +0.000 A 
ATOM     27  C   UNL     1      -1.320  14.720  20.693  0.00  0.00    +0.000 A 
ATOM     28  C   UNL     1      -0.176  15.294  20.174  0.00  0.00    +0.000 A 
ATOM     29  C   UNL     1       1.041  14.651  20.386  0.00  0.00    +0.000 A 
ATOM     30  C   UNL     1       1.103  13.355  20.998  0.00  0.00    +0.000 A 
ATOM     31  C   UNL     1      -0.072  12.697  21.565  0.00  0.00    +0.000 A 
ENDBRANCH  19  22
ENDBRANCH   7  19
TORSDOF 6
ENDMDL
MODEL 5
REMARK VINA RESULT:      -7.4      4.955      7.856
REMARK  Name = 
REMARK  7 active torsions:
REMARK  status: ('A' for Active; 'I' for Inactive)
REMARK    1  A    between atoms: C_1  and  N_2
REMARK    2  A    between atoms: N_2  and  C_3
REMARK    3  A    between atoms: C_3  and  C_4
REMARK    4  A    between atoms: C_4  and  C_5
REMARK    5  A    between atoms: N_7  and  C_8
REMARK    6  A    between atoms: N_14  and  S_15
REMARK    7  A    between atoms: S_15  and  C_18
REMARK                            x       y       z     vdW  Elec       q    Type
REMARK                         _______ _______ _______ _____ _____    ______ ____
ROOT
ATOM      1  C   UNL     1      -4.112  12.068  18.733  0.00  0.00    +0.000 A 
ATOM      2  C   UNL     1      -5.481  11.825  18.677  0.00  0.00    +0.000 A 
ATOM      3  C   UNL     1      -6.253  12.010  19.813  0.00  0.00    +0.000 A 
ATOM      4  C   UNL     1      -5.624  12.462  20.994  0.00  0.00    +0.000 A 
ATOM      5  C   UNL     1      -6.090  12.723  22.289  0.00  0.00    +0.000 A 
ATOM      6  N   UNL     1      -5.107  13.014  23.140  0.00  0.00    +0.000 NA
ATOM      7  N   UNL     1      -4.010  13.229  22.332  0.00  0.00    +0.000 N 
ATOM      8  C   UNL     1      -4.240  12.734  21.039  0.00  0.00    +0.000 A 
ATOM      9  C   UNL     1      -3.450  12.493  19.908  0.00  0.00    +0.000 A 
ENDROOT
BRANCH   1  12
ATOM     10  C   UNL     1      -3.239  10.648  16.994  0.00  0.00    +0.000 C 
ATOM     11  O   UNL     1      -3.514   9.590  17.556  0.00  0.00    +0.000 OA
ATOM     12  N   UNL     1      -3.344  11.909  17.573  0.00  0.00    +0.000 N 
ATOM     13  H   UNL     1      -3.376  12.696  16.943  0.00  0.00    +0.000 HD
BRANCH  10  14
ATOM     14  C   UNL     1      -2.743  10.668  15.565  0.00  0.00    +0.000 C 
BRANCH  14  15
ATOM     15  C   UNL     1      -3.726   9.991  14.612  0.00  0.00    +0.000 C 
BRANCH  15  17
ATOM     16  C   UNL     1      -4.432   9.837  12.332  0.00  0.00    +0.000 C 
ATOM     17  N   UNL     1      -3.316  10.152  13.219  0.00  0.00    +0.000 NA
ATOM     18  H   UNL     1      -3.021  11.115  13.053  0.00  0.00    +0.000 HD
ENDBRANCH  15  17
ENDBRANCH  14  15
ENDBRANCH  10  14
ENDBRANCH   1  12
BRANCH   7  19
ATOM     19  S   UNL     1      -2.466  14.173  22.933  0.00  0.00    +0.000 S 
ATOM     20  O   UNL     1      -2.530  15.416  22.189  0.00  0.00    +0.000 OA
ATOM     21  O   UNL     1      -2.548  14.105  24.380  0.00  0.00    +0.000 OA
BRANCH  19  22
ATOM     22  C   UNL     1      -1.048  13.177  22.364  0.00  0.00    +0.000 A 
ATOM     23  C   UNL     1      -0.280  13.963  21.529  0.00  0.00    +0.000 A 
ATOM     24  C   UNL     1       1.006  13.606  21.286  0.00  0.00    +0.000 A 
ATOM     25  C   UNL     1       0.981  12.401  20.666  0.00  0.00    +0.000 A 
ATOM     26  C   UNL     1       0.220  11.429  21.265  0.00  0.00    +0.000 A 
ATOM     27  C   UNL     1       0.562  10.153  20.859  0.00  0.00    +0.000 A 
ATOM     28  C   UNL     1       0.241   9.054  21.634  0.00  0.00    +0.000 A 
ATOM     29  C   UNL     1      -0.480   9.261  22.807  0.00  0.00    +0.000 A 
ATOM     30  C   UNL     1      -1.006  10.554  23.141  0.00  0.00    +0.000 A 
ATOM     31  C   UNL     1      -0.701  11.751  22.362  0.00  0.00    +0.000 A 
ENDBRANCH  19  22
ENDBRANCH   7  19
TORSDOF 6
ENDMDL
MODEL 6
REMARK VINA RESULT:      -7.2      2.249      2.771
REMARK  Name = 
REMARK  7 active torsions:
REMARK  status: ('A' for Active; 'I' for Inactive)
REMARK    1  A    between atoms: C_1  and  N_2
REMARK    2  A    between atoms: N_2  and  C_3
REMARK    3  A    between atoms: C_3  and  C_4
REMARK    4  A    between atoms: C_4  and  C_5
REMARK    5  A    between atoms: N_7  and  C_8
REMARK    6  A    between atoms: N_14  and  S_15
REMARK    7  A    between atoms: S_15  and  C_18
REMARK                            x       y       z     vdW  Elec       q    Type
REMARK                         _______ _______ _______ _____ _____    ______ ____
ROOT
ATOM      1  C   UNL     1       2.774   6.163  19.699  0.00  0.00    +0.000 A 
ATOM      2  C   UNL     1       3.255   6.336  18.405  0.00  0.00    +0.000 A 
ATOM      3  C   UNL     1       2.930   7.488  17.706  0.00  0.00    +0.000 A 
ATOM      4  C   UNL     1       2.133   8.465  18.341  0.00  0.00    +0.000 A 
ATOM      5  C   UNL     1       1.614   9.698  17.926  0.00  0.00    +0.000 A 
ATOM      6  N   UNL     1       0.790  10.238  18.824  0.00  0.00    +0.000 NA
ATOM      7  N   UNL     1       0.993   9.490  19.965  0.00  0.00    +0.000 N 
ATOM      8  C   UNL     1       1.669   8.297  19.665  0.00  0.00    +0.000 A 
ATOM      9  C   UNL     1       1.949   7.109  20.350  0.00  0.00    +0.000 A 
ENDROOT
BRANCH   1  12
ATOM     10  C   UNL     1       2.281   3.909  20.393  0.00  0.00    +0.000 C 
ATOM     11  O   UNL     1       1.100   3.936  20.055  0.00  0.00    +0.000 OA
ATOM     12  N   UNL     1       3.132   5.011  20.410  0.00  0.00    +0.000 N 
ATOM     13  H   UNL     1       4.122   4.820  20.419  0.00  0.00    +0.000 HD
BRANCH  10  14
ATOM     14  C   UNL     1       2.938   2.621  20.839  0.00  0.00    +0.000 C 
BRANCH  14  15
ATOM     15  C   UNL     1       4.307   2.427  20.188  0.00  0.00    +0.000 C 
BRANCH  15  17
ATOM     16  C   UNL     1       3.534   1.597  18.082  0.00  0.00    +0.000 C 
ATOM     17  N   UNL     1       4.255   2.677  18.749  0.00  0.00    +0.000 NA
ATOM     18  H   UNL     1       3.775   3.559  18.567  0.00  0.00    +0.000 HD
ENDBRANCH  15  17
ENDBRANCH  14  15
ENDBRANCH  10  14
ENDBRANCH   1  12
BRANCH   7  19
ATOM     19  S   UNL     1       0.487  10.108  21.697  0.00  0.00    +0.000 S 
ATOM     20  O   UNL     1      -0.797   9.468  21.911  0.00  0.00    +0.000 OA
ATOM     21  O   UNL     1       1.652   9.852  22.522  0.00  0.00    +0.000 OA
BRANCH  19  22
ATOM     22  C   UNL     1       0.264  11.908  21.513  0.00  0.00    +0.000 A 
ATOM     23  C   UNL     1      -0.926  12.257  22.120  0.00  0.00    +0.000 A 
ATOM     24  C   UNL     1      -1.136  13.552  22.462  0.00  0.00    +0.000 A 
ATOM     25  C   UNL     1      -1.130  14.280  21.318  0.00  0.00    +0.000 A 
ATOM     26  C   UNL     1      -0.065  14.075  20.477  0.00  0.00    +0.000 A 
ATOM     27  C   UNL     1       0.116  15.109  19.578  0.00  0.00    +0.000 A 
ATOM     28  C   UNL     1       1.339  15.307  18.967  0.00  0.00    +0.000 A 
ATOM     29  C   UNL     1       2.369  14.410  19.240  0.00  0.00    +0.000 A 
ATOM     30  C   UNL     1       2.139  13.226  20.018  0.00  0.00    +0.000 A 
ATOM     31  C   UNL     1       0.869  12.962  20.689  0.00  0.00    +0.000 A 
ENDBRANCH  19  22
ENDBRANCH   7  19
TORSDOF 6
ENDMDL
MODEL 7
REMARK VINA RESULT:      -7.2      2.249      2.890
REMARK  Name = 
REMARK  7 active torsions:
REMARK  status: ('A' for Active; 'I' for Inactive)
REMARK    1  A    between atoms: C_1  and  N_2
REMARK    2  A    between atoms: N_2  and  C_3
REMARK    3  A    between atoms: C_3  and  C_4
REMARK    4  A    between atoms: C_4  and  C_5
REMARK    5  A    between atoms: N_7  and  C_8
REMARK    6  A    between atoms: N_14  and  S_15
REMARK    7  A    between atoms: S_15  and  C_18
REMARK                            x       y       z     vdW  Elec       q    Type
REMARK                         _______ _______ _______ _____ _____    ______ ____
ROOT
ATOM      1  C   UNL     1       2.882   6.788  19.261  0.00  0.00    +0.000 A 
ATOM      2  C   UNL     1       3.141   7.281  17.986  0.00  0.00    +0.000 A 
ATOM      3  C   UNL     1       2.510   8.441  17.563  0.00  0.00    +0.000 A 
ATOM      4  C   UNL     1       1.634   9.099  18.453  0.00  0.00    +0.000 A 
ATOM      5  C   UNL     1       0.838  10.247  18.342  0.00  0.00    +0.000 A 
ATOM      6  N   UNL     1       0.056  10.435  19.405  0.00  0.00    +0.000 NA
ATOM      7  N   UNL     1       0.551   9.561  20.350  0.00  0.00    +0.000 N 
ATOM      8  C   UNL     1       1.396   8.611  19.756  0.00  0.00    +0.000 A 
ATOM      9  C   UNL     1       1.988   7.409  20.163  0.00  0.00    +0.000 A 
ENDROOT
BRANCH   1  12
ATOM     10  C   UNL     1       3.534   4.499  18.885  0.00  0.00    +0.000 C 
ATOM     11  O   UNL     1       2.753   4.305  17.956  0.00  0.00    +0.000 OA
ATOM     12  N   UNL     1       3.547   5.633  19.692  0.00  0.00    +0.000 N 
ATOM     13  H   UNL     1       4.392   5.811  20.212  0.00  0.00    +0.000 HD
BRANCH  10  14
ATOM     14  C   UNL     1       4.592   3.480  19.244  0.00  0.00    +0.000 C 
BRANCH  14  15
ATOM     15  C   UNL     1       4.072   2.450  20.246  0.00  0.00    +0.000 C 
BRANCH  15  17
ATOM     16  C   UNL     1       2.181   2.740  21.683  0.00  0.00    +0.000 C 
ATOM     17  N   UNL     1       2.612   2.463  20.316  0.00  0.00    +0.000 NA
ATOM     18  H   UNL     1       2.241   3.185  19.697  0.00  0.00    +0.000 HD
ENDBRANCH  15  17
ENDBRANCH  14  15
ENDBRANCH  10  14
ENDBRANCH   1  12
BRANCH   7  19
ATOM     19  S   UNL     1       0.176   9.747  22.211  0.00  0.00    +0.000 S 
ATOM     20  O   UNL     1      -0.830   8.730  22.447  0.00  0.00    +0.000 OA
ATOM     21  O   UNL     1       1.483   9.737  22.841  0.00  0.00    +0.000 OA
BRANCH  19  22
ATOM     22  C   UNL     1      -0.561  11.406  22.384  0.00  0.00    +0.000 A 
ATOM     23  C   UNL     1      -1.788  11.268  23.001  0.00  0.00    +0.000 A 
ATOM     24  C   UNL     1      -2.357  12.350  23.587  0.00  0.00    +0.000 A 
ATOM     25  C   UNL     1      -2.585  13.265  22.614  0.00  0.00    +0.000 A 
ATOM     26  C   UNL     1      -1.524  13.550  21.792  0.00  0.00    +0.000 A 
ATOM     27  C   UNL     1      -1.668  14.753  21.127  0.00  0.00    +0.000 A 
ATOM     28  C   UNL     1      -0.567  15.415  20.616  0.00  0.00    +0.000 A 
ATOM     29  C   UNL     1       0.683  14.815  20.744  0.00  0.00    +0.000 A 
ATOM     30  C   UNL     1       0.822  13.482  21.259  0.00  0.00    +0.000 A 
ATOM     31  C   UNL     1      -0.304  12.733  21.813  0.00  0.00    +0.000 A 
ENDBRANCH  19  22
ENDBRANCH   7  19
TORSDOF 6
ENDMDL
MODEL 8
REMARK VINA RESULT:      -7.1      2.762      3.882
REMARK  Name = 
REMARK  7 active torsions:
REMARK  status: ('A' for Active; 'I' for Inactive)
REMARK    1  A    between atoms: C_1  and  N_2
REMARK    2  A    between atoms: N_2  and  C_3
REMARK    3  A    between atoms: C_3  and  C_4
REMARK    4  A    between atoms: C_4  and  C_5
REMARK    5  A    between atoms: N_7  and  C_8
REMARK    6  A    between atoms: N_14  and  S_15
REMARK    7  A    between atoms: S_15  and  C_18
REMARK                            x       y       z     vdW  Elec       q    Type
REMARK                         _______ _______ _______ _____ _____    ______ ____
ROOT
ATOM      1  C   UNL     1       2.968   6.118  18.573  0.00  0.00    +0.000 A 
ATOM      2  C   UNL     1       2.680   5.276  19.643  0.00  0.00    +0.000 A 
ATOM      3  C   UNL     1       1.990   5.776  20.736  0.00  0.00    +0.000 A 
ATOM      4  C   UNL     1       1.581   7.127  20.720  0.00  0.00    +0.000 A 
ATOM      5  C   UNL     1       0.905   7.936  21.643  0.00  0.00    +0.000 A 
ATOM      6  N   UNL     1       0.843   9.211  21.260  0.00  0.00    +0.000 NA
ATOM      7  N   UNL     1       1.229   9.188  19.936  0.00  0.00    +0.000 N 
ATOM      8  C   UNL     1       1.851   7.970  19.620  0.00  0.00    +0.000 A 
ATOM      9  C   UNL     1       2.597   7.482  18.541  0.00  0.00    +0.000 A 
ENDROOT
BRANCH   1  12
ATOM     10  C   UNL     1       5.010   5.375  17.533  0.00  0.00    +0.000 C 
ATOM     11  O   UNL     1       5.757   5.858  18.381  0.00  0.00    +0.000 OA
ATOM     12  N   UNL     1       3.638   5.598  17.459  0.00  0.00    +0.000 N 
ATOM     13  H   UNL     1       3.099   4.936  16.923  0.00  0.00    +0.000 HD
BRANCH  10  14
ATOM     14  C   UNL     1       5.541   4.458  16.454  0.00  0.00    +0.000 C 
BRANCH  14  15
ATOM     15  C   UNL     1       7.047   4.626  16.256  0.00  0.00    +0.000 C 
BRANCH  15  17
ATOM     16  C   UNL     1       6.582   4.482  13.913  0.00  0.00    +0.000 C 
ATOM     17  N   UNL     1       7.354   5.179  14.938  0.00  0.00    +0.000 NA
ATOM     18  H   UNL     1       7.118   6.171  14.915  0.00  0.00    +0.000 HD
ENDBRANCH  15  17
ENDBRANCH  14  15
ENDBRANCH  10  14
ENDBRANCH   1  12
BRANCH   7  19
ATOM     19  S   UNL     1       0.840  10.616  18.733  0.00  0.00    +0.000 S 
ATOM     20  O   UNL     1       1.403  11.772  19.403  0.00  0.00    +0.000 OA
ATOM     21  O   UNL     1       1.306  10.134  17.446  0.00  0.00    +0.000 OA
BRANCH  19  22
ATOM     22  C   UNL     1      -0.980  10.734  18.707  0.00  0.00    +0.000 A 
ATOM     23  C   UNL     1      -1.429  10.172  17.528  0.00  0.00    +0.000 A 
ATOM     24  C   UNL     1      -2.725   9.786  17.434  0.00  0.00    +0.000 A 
ATOM     25  C   UNL     1      -3.490  10.896  17.576  0.00  0.00    +0.000 A 
ATOM     26  C   UNL     1      -3.206  11.691  18.658  0.00  0.00    +0.000 A 
ATOM     27  C   UNL     1      -4.247  12.536  18.992  0.00  0.00    +0.000 A 
ATOM     28  C   UNL     1      -4.339  13.077  20.260  0.00  0.00    +0.000 A 
ATOM     29  C   UNL     1      -3.329  12.792  21.175  0.00  0.00    +0.000 A 
ATOM     30  C   UNL     1      -2.148  12.077  20.784  0.00  0.00    +0.000 A 
ATOM     31  C   UNL     1      -1.993  11.481  19.459  0.00  0.00    +0.000 A 
ENDBRANCH  19  22
ENDBRANCH   7  19
TORSDOF 6
ENDMDL
MODEL 9
REMARK VINA RESULT:      -7.1      4.153      7.731
REMARK  Name = 
REMARK  7 active torsions:
REMARK  status: ('A' for Active; 'I' for Inactive)
REMARK    1  A    between atoms: C_1  and  N_2
REMARK    2  A    between atoms: N_2  and  C_3
REMARK    3  A    between atoms: C_3  and  C_4
REMARK    4  A    between atoms: C_4  and  C_5
REMARK    5  A    between atoms: N_7  and  C_8
REMARK    6  A    between atoms: N_14  and  S_15
REMARK    7  A    between atoms: S_15  and  C_18
REMARK                            x       y       z     vdW  Elec       q    Type
REMARK                         _______ _______ _______ _____ _____    ______ ____
ROOT
ATOM      1  C   UNL     1      -4.194  11.663  18.064  0.00  0.00    +0.000 A 
ATOM      2  C   UNL     1      -5.398  12.271  18.409  0.00  0.00    +0.000 A 
ATOM      3  C   UNL     1      -5.503  12.934  19.622  0.00  0.00    +0.000 A 
ATOM      4  C   UNL     1      -4.372  12.990  20.465  0.00  0.00    +0.000 A 
ATOM      5  C   UNL     1      -4.146  13.543  21.732  0.00  0.00    +0.000 A 
ATOM      6  N   UNL     1      -2.941  13.243  22.217  0.00  0.00    +0.000 NA
ATOM      7  N   UNL     1      -2.258  12.727  21.135  0.00  0.00    +0.000 N 
ATOM      8  C   UNL     1      -3.144  12.396  20.098  0.00  0.00    +0.000 A 
ATOM      9  C   UNL     1      -3.054  11.677  18.900  0.00  0.00    +0.000 A 
ENDROOT
BRANCH   1  12
ATOM     10  C   UNL     1      -2.843  10.945  16.203  0.00  0.00    +0.000 C 
ATOM     11  O   UNL     1      -1.869  11.637  16.490  0.00  0.00    +0.000 OA
ATOM     12  N   UNL     1      -4.087  11.021  16.825  0.00  0.00    +0.000 N 
ATOM     13  H   UNL     1      -4.699  10.228  16.714  0.00  0.00    +0.000 HD
BRANCH  10  14
ATOM     14  C   UNL     1      -2.770   9.908  15.105  0.00  0.00    +0.000 C 
BRANCH  14  15
ATOM     15  C   UNL     1      -3.886  10.089  14.077  0.00  0.00    +0.000 C 
BRANCH  15  17
ATOM     16  C   UNL     1      -4.545   9.765  11.800  0.00  0.00    +0.000 C 
ATOM     17  N   UNL     1      -3.413   9.813  12.722  0.00  0.00    +0.000 NA
ATOM     18  H   UNL     1      -2.771  10.546  12.422  0.00  0.00    +0.000 HD
ENDBRANCH  15  17
ENDBRANCH  14  15
ENDBRANCH  10  14
ENDBRANCH   1  12
BRANCH   7  19
ATOM     19  S   UNL     1      -0.355  12.610  21.089  0.00  0.00    +0.000 S 
ATOM     20  O   UNL     1      -0.011  13.331  19.879  0.00  0.00    +0.000 OA
ATOM     21  O   UNL     1       0.060  13.031  22.414  0.00  0.00    +0.000 OA
BRANCH  19  22
ATOM     22  C   UNL     1       0.007  10.834  20.882  0.00  0.00    +0.000 A 
ATOM     23  C   UNL     1      -0.098  10.228  22.117  0.00  0.00    +0.000 A 
ATOM     24  C   UNL     1      -0.259   8.883  22.181  0.00  0.00    +0.000 A 
ATOM     25  C   UNL     1       0.844   8.317  21.634  0.00  0.00    +0.000 A 
ATOM     26  C   UNL     1       1.221   8.792  20.403  0.00  0.00    +0.000 A 
ATOM     27  C   UNL     1       2.051   7.922  19.722  0.00  0.00    +0.000 A 
ATOM     28  C   UNL     1       2.181   7.997  18.349  0.00  0.00    +0.000 A 
ATOM     29  C   UNL     1       1.494   9.004  17.674  0.00  0.00    +0.000 A 
ATOM     30  C   UNL     1       0.785  10.029  18.385  0.00  0.00    +0.000 A 
ATOM     31  C   UNL     1       0.613  10.002  19.836  0.00  0.00    +0.000 A 
ENDBRANCH  19  22
ENDBRANCH   7  19
TORSDOF 6
ENDMDL
