MODEL 1
REMARK VINA RESULT:      -7.1      0.000      0.000
REMARK  Name = 
REMARK  7 active torsions:
REMARK  status: ('A' for Active; 'I' for Inactive)
REMARK    1  A    between atoms: C_1  and  C_2
REMARK    2  A    between atoms: C_2  and  C_4
REMARK    3  A    between atoms: C_5  and  O_6
REMARK    4  A    between atoms: C_8  and  O_9
REMARK    5  A    between atoms: C_8  and  N_10
REMARK    6  A    between atoms: N_10  and  C_11
REMARK    7  A    between atoms: C_14  and  C_15
REMARK                            x       y       z     vdW  Elec       q    Type
REMARK                         _______ _______ _______ _____ _____    ______ ____
ROOT
ATOM      1  C   UNL     1      -0.588  11.549  21.186  0.00  0.00    +0.000 C 
ATOM      2  C   UNL     1       0.181  10.489  21.477  0.00  0.00    +0.000 C 
ATOM      3  C   UNL     1       0.756   9.655  20.437  0.00  0.00    +0.000 C 
ATOM      4  C   UNL     1       1.549   8.575  20.665  0.00  0.00    +0.000 C 
ATOM      5  C   UNL     1       0.473  10.035  19.029  0.00  0.00    +0.000 C 
ATOM      6  O   UNL     1       0.954   9.437  18.070  0.00  0.00    +0.000 OA
ATOM      7  O   UNL     1      -0.335  11.092  18.808  0.00  0.00    +0.000 OA
ATOM      8  C   UNL     1      -0.857  11.860  19.782  0.00  0.00    +0.000 C 
ATOM      9  O   UNL     1      -1.545  12.829  19.481  0.00  0.00    +0.000 OA
ENDROOT
BRANCH   1  11
ATOM     10  C   UNL     1      -2.609  12.256  22.664  0.00  0.00    +0.000 C 
ATOM     11  C   UNL     1      -1.145  12.341  22.323  0.00  0.00    +0.000 C 
ATOM     12  O   UNL     1      -0.374  12.988  23.042  0.00  0.00    +0.000 OA
ENDBRANCH   1  11
BRANCH   2  13
ATOM     13  O   UNL     1       0.493  10.108  22.779  0.00  0.00    +0.000 OA
ATOM     14  H   UNL     1       0.187   9.181  22.931  0.00  0.00    +0.000 HD
ENDBRANCH   2  13
BRANCH   4  15
ATOM     15  O   UNL     1       1.877   8.211  21.964  0.00  0.00    +0.000 OA
ATOM     16  H   UNL     1       2.809   8.439  22.131  0.00  0.00    +0.000 HD
ENDBRANCH   4  15
BRANCH   4  17
ATOM     17  N   UNL     1       2.144   7.787  19.697  0.00  0.00    +0.000 N 
ATOM     18  H   UNL     1       2.853   8.245  19.124  0.00  0.00    +0.000 HD
BRANCH  17  19
ATOM     19  C   UNL     1       1.994   6.404  19.483  0.00  0.00    +0.000 A 
ATOM     20  C   UNL     1       2.168   5.817  18.225  0.00  0.00    +0.000 A 
ATOM     21  C   UNL     1       1.873   4.474  17.997  0.00  0.00    +0.000 A 
ATOM     22  C   UNL     1       1.394   3.677  19.034  0.00  0.00    +0.000 A 
ATOM     23  C   UNL     1       1.025   2.247  18.782  0.00  0.00    +0.000 C 
ATOM     24  C   UNL     1       1.240   4.241  20.306  0.00  0.00    +0.000 A 
ATOM     25  C   UNL     1       1.539   5.592  20.528  0.00  0.00    +0.000 A 
ENDBRANCH  17  19
ENDBRANCH   4  17
TORSDOF 5
ENDMDL
MODEL 2
REMARK VINA RESULT:      -7.0      2.996      7.667
REMARK  Name = 
REMARK  7 active torsions:
REMARK  status: ('A' for Active; 'I' for Inactive)
REMARK    1  A    between atoms: C_1  and  C_2
REMARK    2  A    between atoms: C_2  and  C_4
REMARK    3  A    between atoms: C_5  and  O_6
REMARK    4  A    between atoms: C_8  and  O_9
REMARK    5  A    between atoms: C_8  and  N_10
REMARK    6  A    between atoms: N_10  and  C_11
REMARK    7  A    between atoms: C_14  and  C_15
REMARK                            x       y       z     vdW  Elec       q    Type
REMARK                         _______ _______ _______ _____ _____    ______ ____
ROOT
ATOM      1  C   UNL     1       3.901   3.932  18.734  0.00  0.00    +0.000 C 
ATOM      2  C   UNL     1       3.157   4.683  19.559  0.00  0.00    +0.000 C 
ATOM      3  C   UNL     1       2.870   6.077  19.273  0.00  0.00    +0.000 C 
ATOM      4  C   UNL     1       2.116   6.887  20.063  0.00  0.00    +0.000 C 
ATOM      5  C   UNL     1       3.420   6.638  18.013  0.00  0.00    +0.000 C 
ATOM      6  O   UNL     1       3.193   7.786  17.642  0.00  0.00    +0.000 OA
ATOM      7  O   UNL     1       4.188   5.838  17.246  0.00  0.00    +0.000 OA
ATOM      8  C   UNL     1       4.441   4.545  17.521  0.00  0.00    +0.000 C 
ATOM      9  O   UNL     1       5.115   3.884  16.737  0.00  0.00    +0.000 OA
ENDROOT
BRANCH   1  11
ATOM     10  C   UNL     1       3.542   1.388  18.323  0.00  0.00    +0.000 C 
ATOM     11  C   UNL     1       4.153   2.511  19.118  0.00  0.00    +0.000 C 
ATOM     12  O   UNL     1       4.948   2.266  20.032  0.00  0.00    +0.000 OA
ENDBRANCH   1  11
BRANCH   2  13
ATOM     13  O   UNL     1       2.600   4.195  20.739  0.00  0.00    +0.000 OA
ATOM     14  H   UNL     1       2.228   4.949  21.260  0.00  0.00    +0.000 HD
ENDBRANCH   2  13
BRANCH   4  15
ATOM     15  O   UNL     1       1.545   6.392  21.228  0.00  0.00    +0.000 OA
ATOM     16  H   UNL     1       2.226   6.355  21.923  0.00  0.00    +0.000 HD
ENDBRANCH   4  15
BRANCH   4  17
ATOM     17  N   UNL     1       1.792   8.204  19.798  0.00  0.00    +0.000 N 
ATOM     18  H   UNL     1       2.035   8.544  18.868  0.00  0.00    +0.000 HD
BRANCH  17  19
ATOM     19  C   UNL     1       1.055   9.100  20.596  0.00  0.00    +0.000 A 
ATOM     20  C   UNL     1       1.090   9.061  21.994  0.00  0.00    +0.000 A 
ATOM     21  C   UNL     1       0.246   9.854  22.770  0.00  0.00    +0.000 A 
ATOM     22  C   UNL     1      -0.662  10.716  22.157  0.00  0.00    +0.000 A 
ATOM     23  C   UNL     1      -1.608  11.531  22.985  0.00  0.00    +0.000 C 
ATOM     24  C   UNL     1      -0.691  10.788  20.760  0.00  0.00    +0.000 A 
ATOM     25  C   UNL     1       0.161   9.988  19.987  0.00  0.00    +0.000 A 
ENDBRANCH  17  19
ENDBRANCH   4  17
TORSDOF 5
ENDMDL
MODEL 3
REMARK VINA RESULT:      -7.0      0.891      2.501
REMARK  Name = 
REMARK  7 active torsions:
REMARK  status: ('A' for Active; 'I' for Inactive)
REMARK    1  A    between atoms: C_1  and  C_2
REMARK    2  A    between atoms: C_2  and  C_4
REMARK    3  A    between atoms: C_5  and  O_6
REMARK    4  A    between atoms: C_8  and  O_9
REMARK    5  A    between atoms: C_8  and  N_10
REMARK    6  A    between atoms: N_10  and  C_11
REMARK    7  A    between atoms: C_14  and  C_15
REMARK                            x       y       z     vdW  Elec       q    Type
REMARK                         _______ _______ _______ _____ _____    ______ ____
ROOT
ATOM      1  C   UNL     1      -0.634  11.557  20.466  0.00  0.00    +0.000 C 
ATOM      2  C   UNL     1      -0.000  10.746  19.606  0.00  0.00    +0.000 C 
ATOM      3  C   UNL     1       0.861   9.671  20.063  0.00  0.00    +0.000 C 
ATOM      4  C   UNL     1       1.522   8.810  19.243  0.00  0.00    +0.000 C 
ATOM      5  C   UNL     1       1.000   9.490  21.530  0.00  0.00    +0.000 C 
ATOM      6  O   UNL     1       1.655   8.579  22.029  0.00  0.00    +0.000 OA
ATOM      7  O   UNL     1       0.363  10.361  22.339  0.00  0.00    +0.000 OA
ATOM      8  C   UNL     1      -0.437  11.350  21.901  0.00  0.00    +0.000 C 
ATOM      9  O   UNL     1      -1.011  12.065  22.716  0.00  0.00    +0.000 OA
ENDROOT
BRANCH   1  11
ATOM     10  C   UNL     1      -0.993  14.063  19.869  0.00  0.00    +0.000 C 
ATOM     11  C   UNL     1      -1.490  12.642  19.902  0.00  0.00    +0.000 C 
ATOM     12  O   UNL     1      -2.567  12.347  19.373  0.00  0.00    +0.000 OA
ENDBRANCH   1  11
BRANCH   2  13
ATOM     13  O   UNL     1      -0.118  10.861  18.223  0.00  0.00    +0.000 OA
ATOM     14  H   UNL     1      -0.872  11.464  18.008  0.00  0.00    +0.000 HD
ENDBRANCH   2  13
BRANCH   4  15
ATOM     15  O   UNL     1       1.386   8.914  17.865  0.00  0.00    +0.000 OA
ATOM     16  H   UNL     1       0.469   9.169  17.658  0.00  0.00    +0.000 HD
ENDBRANCH   4  15
BRANCH   4  17
ATOM     17  N   UNL     1       2.316   7.753  19.648  0.00  0.00    +0.000 N 
ATOM     18  H   UNL     1       3.103   7.993  20.251  0.00  0.00    +0.000 HD
BRANCH  17  19
ATOM     19  C   UNL     1       2.108   6.376  19.442  0.00  0.00    +0.000 A 
ATOM     20  C   UNL     1       2.275   5.771  18.192  0.00  0.00    +0.000 A 
ATOM     21  C   UNL     1       1.925   4.441  17.970  0.00  0.00    +0.000 A 
ATOM     22  C   UNL     1       1.396   3.675  19.006  0.00  0.00    +0.000 A 
ATOM     23  C   UNL     1       0.968   2.260  18.760  0.00  0.00    +0.000 C 
ATOM     24  C   UNL     1       1.247   4.256  20.270  0.00  0.00    +0.000 A 
ATOM     25  C   UNL     1       1.602   5.594  20.486  0.00  0.00    +0.000 A 
ENDBRANCH  17  19
ENDBRANCH   4  17
TORSDOF 5
ENDMDL
MODEL 4
REMARK VINA RESULT:      -7.0      1.433      1.665
REMARK  Name = 
REMARK  7 active torsions:
REMARK  status: ('A' for Active; 'I' for Inactive)
REMARK    1  A    between atoms: C_1  and  C_2
REMARK    2  A    between atoms: C_2  and  C_4
REMARK    3  A    between atoms: C_5  and  O_6
REMARK    4  A    between atoms: C_8  and  O_9
REMARK    5  A    between atoms: C_8  and  N_10
REMARK    6  A    between atoms: N_10  and  C_11
REMARK    7  A    between atoms: C_14  and  C_15
REMARK                            x       y       z     vdW  Elec       q    Type
REMARK                         _______ _______ _______ _____ _____    ______ ____
ROOT
ATOM      1  C   UNL     1       0.056  10.840  20.727  0.00  0.00    +0.000 C 
ATOM      2  C   UNL     1       0.598   9.617  20.816  0.00  0.00    +0.000 C 
ATOM      3  C   UNL     1       1.323   9.021  19.709  0.00  0.00    +0.000 C 
ATOM      4  C   UNL     1       1.903   7.792  19.739  0.00  0.00    +0.000 C 
ATOM      5  C   UNL     1       1.458   9.832  18.472  0.00  0.00    +0.000 C 
ATOM      6  O   UNL     1       2.099   9.452  17.495  0.00  0.00    +0.000 OA
ATOM      7  O   UNL     1       0.860  11.040  18.437  0.00  0.00    +0.000 OA
ATOM      8  C   UNL     1       0.195  11.582  19.474  0.00  0.00    +0.000 C 
ATOM      9  O   UNL     1      -0.277  12.709  19.363  0.00  0.00    +0.000 OA
ENDROOT
BRANCH   1  11
ATOM     10  C   UNL     1      -2.043  11.988  21.751  0.00  0.00    +0.000 C 
ATOM     11  C   UNL     1      -0.682  11.366  21.914  0.00  0.00    +0.000 C 
ATOM     12  O   UNL     1      -0.208  11.194  23.043  0.00  0.00    +0.000 OA
ENDBRANCH   1  11
BRANCH   2  13
ATOM     13  O   UNL     1       0.518   8.830  21.962  0.00  0.00    +0.000 OA
ATOM     14  H   UNL     1      -0.370   8.949  22.379  0.00  0.00    +0.000 HD
ENDBRANCH   2  13
BRANCH   4  15
ATOM     15  O   UNL     1       1.840   7.018  20.890  0.00  0.00    +0.000 OA
ATOM     16  H   UNL     1       1.547   7.578  21.631  0.00  0.00    +0.000 HD
ENDBRANCH   4  15
BRANCH   4  17
ATOM     17  N   UNL     1       2.633   7.214  18.717  0.00  0.00    +0.000 N 
ATOM     18  H   UNL     1       3.133   7.861  18.107  0.00  0.00    +0.000 HD
BRANCH  17  19
ATOM     19  C   UNL     1       2.883   5.848  18.485  0.00  0.00    +0.000 A 
ATOM     20  C   UNL     1       1.924   4.995  17.928  0.00  0.00    +0.000 A 
ATOM     21  C   UNL     1       2.131   3.620  17.840  0.00  0.00    +0.000 A 
ATOM     22  C   UNL     1       3.317   3.060  18.312  0.00  0.00    +0.000 A 
ATOM     23  C   UNL     1       3.523   1.576  18.269  0.00  0.00    +0.000 C 
ATOM     24  C   UNL     1       4.298   3.902  18.847  0.00  0.00    +0.000 A 
ATOM     25  C   UNL     1       4.083   5.283  18.931  0.00  0.00    +0.000 A 
ENDBRANCH  17  19
ENDBRANCH   4  17
TORSDOF 5
ENDMDL
MODEL 5
REMARK VINA RESULT:      -6.9      2.928      7.590
REMARK  Name = 
REMARK  7 active torsions:
REMARK  status: ('A' for Active; 'I' for Inactive)
REMARK    1  A    between atoms: C_1  and  C_2
REMARK    2  A    between atoms: C_2  and  C_4
REMARK    3  A    between atoms: C_5  and  O_6
REMARK    4  A    between atoms: C_8  and  O_9
REMARK    5  A    between atoms: C_8  and  N_10
REMARK    6  A    between atoms: N_10  and  C_11
REMARK    7  A    between atoms: C_14  and  C_15
REMARK                            x       y       z     vdW  Elec       q    Type
REMARK                         _______ _______ _______ _____ _____    ______ ____
ROOT
ATOM      1  C   UNL     1       3.852   4.040  18.732  0.00  0.00    +0.000 C 
ATOM      2  C   UNL     1       3.122   4.777  19.581  0.00  0.00    +0.000 C 
ATOM      3  C   UNL     1       2.816   6.171  19.315  0.00  0.00    +0.000 C 
ATOM      4  C   UNL     1       2.074   6.967  20.130  0.00  0.00    +0.000 C 
ATOM      5  C   UNL     1       3.331   6.748  18.048  0.00  0.00    +0.000 C 
ATOM      6  O   UNL     1       3.086   7.898  17.693  0.00  0.00    +0.000 OA
ATOM      7  O   UNL     1       4.088   5.962  17.255  0.00  0.00    +0.000 OA
ATOM      8  C   UNL     1       4.358   4.669  17.512  0.00  0.00    +0.000 C 
ATOM      9  O   UNL     1       5.018   4.021  16.707  0.00  0.00    +0.000 OA
ENDROOT
BRANCH   1  11
ATOM     10  C   UNL     1       3.494   1.497  18.314  0.00  0.00    +0.000 C 
ATOM     11  C   UNL     1       4.124   2.618  19.096  0.00  0.00    +0.000 C 
ATOM     12  O   UNL     1       4.951   2.370  19.982  0.00  0.00    +0.000 OA
ENDBRANCH   1  11
BRANCH   2  13
ATOM     13  O   UNL     1       2.597   4.274  20.769  0.00  0.00    +0.000 OA
ATOM     14  H   UNL     1       2.160   3.405  20.591  0.00  0.00    +0.000 HD
ENDBRANCH   2  13
BRANCH   4  15
ATOM     15  O   UNL     1       1.535   6.457  21.303  0.00  0.00    +0.000 OA
ATOM     16  H   UNL     1       1.574   7.143  21.994  0.00  0.00    +0.000 HD
ENDBRANCH   4  15
BRANCH   4  17
ATOM     17  N   UNL     1       1.733   8.284  19.885  0.00  0.00    +0.000 N 
ATOM     18  H   UNL     1       2.098   8.685  19.022  0.00  0.00    +0.000 HD
BRANCH  17  19
ATOM     19  C   UNL     1       0.843   9.104  20.605  0.00  0.00    +0.000 A 
ATOM     20  C   UNL     1       0.022  10.049  19.979  0.00  0.00    +0.000 A 
ATOM     21  C   UNL     1      -0.744  10.954  20.712  0.00  0.00    +0.000 A 
ATOM     22  C   UNL     1      -0.707  10.933  22.105  0.00  0.00    +0.000 A 
ATOM     23  C   UNL     1      -1.486  11.937  22.898  0.00  0.00    +0.000 C 
ATOM     24  C   UNL     1       0.088   9.977  22.747  0.00  0.00    +0.000 A 
ATOM     25  C   UNL     1       0.854   9.070  22.004  0.00  0.00    +0.000 A 
ENDBRANCH  17  19
ENDBRANCH   4  17
TORSDOF 5
ENDMDL
MODEL 6
REMARK VINA RESULT:      -6.9      2.940      7.458
REMARK  Name = 
REMARK  7 active torsions:
REMARK  status: ('A' for Active; 'I' for Inactive)
REMARK    1  A    between atoms: C_1  and  C_2
REMARK    2  A    between atoms: C_2  and  C_4
REMARK    3  A    between atoms: C_5  and  O_6
REMARK    4  A    between atoms: C_8  and  O_9
REMARK    5  A    between atoms: C_8  and  N_10
REMARK    6  A    between atoms: N_10  and  C_11
REMARK    7  A    between atoms: C_14  and  C_15
REMARK                            x       y       z     vdW  Elec       q    Type
REMARK                         _______ _______ _______ _____ _____    ______ ____
ROOT
ATOM      1  C   UNL     1       3.788   4.189  18.678  0.00  0.00    +0.000 C 
ATOM      2  C   UNL     1       3.108   5.060  19.438  0.00  0.00    +0.000 C 
ATOM      3  C   UNL     1       2.937   6.446  19.043  0.00  0.00    +0.000 C 
ATOM      4  C   UNL     1       2.253   7.375  19.763  0.00  0.00    +0.000 C 
ATOM      5  C   UNL     1       3.532   6.861  17.747  0.00  0.00    +0.000 C 
ATOM      6  O   UNL     1       3.400   7.992  17.286  0.00  0.00    +0.000 OA
ATOM      7  O   UNL     1       4.231   5.943  17.048  0.00  0.00    +0.000 OA
ATOM      8  C   UNL     1       4.377   4.659  17.424  0.00  0.00    +0.000 C 
ATOM      9  O   UNL     1       4.993   3.886  16.699  0.00  0.00    +0.000 OA
ENDROOT
BRANCH   1  11
ATOM     10  C   UNL     1       3.082   1.687  18.578  0.00  0.00    +0.000 C 
ATOM     11  C   UNL     1       3.921   2.786  19.172  0.00  0.00    +0.000 C 
ATOM     12  O   UNL     1       4.798   2.521  20.003  0.00  0.00    +0.000 OA
ENDBRANCH   1  11
BRANCH   2  13
ATOM     13  O   UNL     1       2.513   4.713  20.648  0.00  0.00    +0.000 OA
ATOM     14  H   UNL     1       2.000   5.485  20.992  0.00  0.00    +0.000 HD
ENDBRANCH   2  13
BRANCH   4  15
ATOM     15  O   UNL     1       1.643   7.021  20.959  0.00  0.00    +0.000 OA
ATOM     16  H   UNL     1       0.739   7.385  20.972  0.00  0.00    +0.000 HD
ENDBRANCH   4  15
BRANCH   4  17
ATOM     17  N   UNL     1       2.038   8.690  19.394  0.00  0.00    +0.000 N 
ATOM     18  H   UNL     1       2.851   9.188  19.030  0.00  0.00    +0.000 HD
BRANCH  17  19
ATOM     19  C   UNL     1       0.820   9.393  19.336  0.00  0.00    +0.000 A 
ATOM     20  C   UNL     1       0.120   9.580  18.139  0.00  0.00    +0.000 A 
ATOM     21  C   UNL     1      -1.005  10.401  18.069  0.00  0.00    +0.000 A 
ATOM     22  C   UNL     1      -1.460  11.060  19.209  0.00  0.00    +0.000 A 
ATOM     23  C   UNL     1      -2.636  11.985  19.129  0.00  0.00    +0.000 C 
ATOM     24  C   UNL     1      -0.788  10.863  20.420  0.00  0.00    +0.000 A 
ATOM     25  C   UNL     1       0.341  10.036  20.482  0.00  0.00    +0.000 A 
ENDBRANCH  17  19
ENDBRANCH   4  17
TORSDOF 5
ENDMDL
MODEL 7
REMARK VINA RESULT:      -6.9      2.268      3.558
REMARK  Name = 
REMARK  7 active torsions:
REMARK  status: ('A' for Active; 'I' for Inactive)
REMARK    1  A    between atoms: C_1  and  C_2
REMARK    2  A    between atoms: C_2  and  C_4
REMARK    3  A    between atoms: C_5  and  O_6
REMARK    4  A    between atoms: C_8  and  O_9
REMARK    5  A    between atoms: C_8  and  N_10
REMARK    6  A    between atoms: N_10  and  C_11
REMARK    7  A    between atoms: C_14  and  C_15
REMARK                            x       y       z     vdW  Elec       q    Type
REMARK                         _______ _______ _______ _____ _____    ______ ____
ROOT
ATOM      1  C   UNL     1       0.557  10.683  21.122  0.00  0.00    +0.000 C 
ATOM      2  C   UNL     1       1.042  10.263  19.945  0.00  0.00    +0.000 C 
ATOM      3  C   UNL     1       1.480   8.893  19.745  0.00  0.00    +0.000 C 
ATOM      4  C   UNL     1       1.972   8.403  18.576  0.00  0.00    +0.000 C 
ATOM      5  C   UNL     1       1.351   7.965  20.897  0.00  0.00    +0.000 C 
ATOM      6  O   UNL     1       1.636   6.772  20.825  0.00  0.00    +0.000 OA
ATOM      7  O   UNL     1       0.887   8.461  22.062  0.00  0.00    +0.000 OA
ATOM      8  C   UNL     1       0.479   9.732  22.231  0.00  0.00    +0.000 C 
ATOM      9  O   UNL     1       0.028  10.080  23.317  0.00  0.00    +0.000 OA
ENDROOT
BRANCH   1  11
ATOM     10  C   UNL     1      -1.316  12.487  21.212  0.00  0.00    +0.000 C 
ATOM     11  C   UNL     1       0.142  12.113  21.236  0.00  0.00    +0.000 C 
ATOM     12  O   UNL     1       1.002  12.975  21.451  0.00  0.00    +0.000 OA
ENDBRANCH   1  11
BRANCH   2  13
ATOM     13  O   UNL     1       1.160  11.089  18.830  0.00  0.00    +0.000 OA
ATOM     14  H   UNL     1       1.742  10.652  18.160  0.00  0.00    +0.000 HD
ENDBRANCH   2  13
BRANCH   4  15
ATOM     15  O   UNL     1       2.068   9.224  17.460  0.00  0.00    +0.000 OA
ATOM     16  H   UNL     1       1.614  10.065  17.647  0.00  0.00    +0.000 HD
ENDBRANCH   4  15
BRANCH   4  17
ATOM     17  N   UNL     1       2.358   7.096  18.343  0.00  0.00    +0.000 N 
ATOM     18  H   UNL     1       1.602   6.430  18.189  0.00  0.00    +0.000 HD
BRANCH  17  19
ATOM     19  C   UNL     1       3.659   6.589  18.163  0.00  0.00    +0.000 A 
ATOM     20  C   UNL     1       4.427   6.879  17.030  0.00  0.00    +0.000 A 
ATOM     21  C   UNL     1       5.650   6.254  16.795  0.00  0.00    +0.000 A 
ATOM     22  C   UNL     1       6.141   5.315  17.700  0.00  0.00    +0.000 A 
ATOM     23  C   UNL     1       7.429   4.601  17.426  0.00  0.00    +0.000 C 
ATOM     24  C   UNL     1       5.399   5.033  18.852  0.00  0.00    +0.000 A 
ATOM     25  C   UNL     1       4.170   5.665  19.082  0.00  0.00    +0.000 A 
ENDBRANCH  17  19
ENDBRANCH   4  17
TORSDOF 5
ENDMDL
MODEL 8
REMARK VINA RESULT:      -6.9      2.820      7.339
REMARK  Name = 
REMARK  7 active torsions:
REMARK  status: ('A' for Active; 'I' for Inactive)
REMARK    1  A    between atoms: C_1  and  C_2
REMARK    2  A    between atoms: C_2  and  C_4
REMARK    3  A    between atoms: C_5  and  O_6
REMARK    4  A    between atoms: C_8  and  O_9
REMARK    5  A    between atoms: C_8  and  N_10
REMARK    6  A    between atoms: N_10  and  C_11
REMARK    7  A    between atoms: C_14  and  C_15
REMARK                            x       y       z     vdW  Elec       q    Type
REMARK                         _______ _______ _______ _____ _____    ______ ____
ROOT
ATOM      1  C   UNL     1       3.156   4.176  19.029  0.00  0.00    +0.000 C 
ATOM      2  C   UNL     1       2.597   5.159  19.749  0.00  0.00    +0.000 C 
ATOM      3  C   UNL     1       2.586   6.534  19.284  0.00  0.00    +0.000 C 
ATOM      4  C   UNL     1       2.027   7.573  19.961  0.00  0.00    +0.000 C 
ATOM      5  C   UNL     1       3.205   6.809  17.963  0.00  0.00    +0.000 C 
ATOM      6  O   UNL     1       3.201   7.923  17.445  0.00  0.00    +0.000 OA
ATOM      7  O   UNL     1       3.780   5.780  17.306  0.00  0.00    +0.000 OA
ATOM      8  C   UNL     1       3.778   4.509  17.747  0.00  0.00    +0.000 C 
ATOM      9  O   UNL     1       4.287   3.632  17.057  0.00  0.00    +0.000 OA
ENDROOT
BRANCH   1  11
ATOM     10  C   UNL     1       4.382   2.180  20.162  0.00  0.00    +0.000 C 
ATOM     11  C   UNL     1       3.130   2.794  19.594  0.00  0.00    +0.000 C 
ATOM     12  O   UNL     1       2.050   2.199  19.681  0.00  0.00    +0.000 OA
ENDBRANCH   1  11
BRANCH   2  13
ATOM     13  O   UNL     1       1.983   4.947  20.981  0.00  0.00    +0.000 OA
ATOM     14  H   UNL     1       2.009   3.982  21.197  0.00  0.00    +0.000 HD
ENDBRANCH   2  13
BRANCH   4  15
ATOM     15  O   UNL     1       1.398   7.354  21.179  0.00  0.00    +0.000 OA
ATOM     16  H   UNL     1       0.962   6.483  21.158  0.00  0.00    +0.000 HD
ENDBRANCH   4  15
BRANCH   4  17
ATOM     17  N   UNL     1       1.965   8.884  19.527  0.00  0.00    +0.000 N 
ATOM     18  H   UNL     1       2.850   9.300  19.239  0.00  0.00    +0.000 HD
BRANCH  17  19
ATOM     19  C   UNL     1       0.823   9.678  19.309  0.00  0.00    +0.000 A 
ATOM     20  C   UNL     1       0.255  10.466  20.316  0.00  0.00    +0.000 A 
ATOM     21  C   UNL     1      -0.956  11.130  20.129  0.00  0.00    +0.000 A 
ATOM     22  C   UNL     1      -1.633  11.023  18.916  0.00  0.00    +0.000 A 
ATOM     23  C   UNL     1      -2.961  11.691  18.727  0.00  0.00    +0.000 C 
ATOM     24  C   UNL     1      -1.065  10.261  17.888  0.00  0.00    +0.000 A 
ATOM     25  C   UNL     1       0.153   9.597  18.083  0.00  0.00    +0.000 A 
ENDBRANCH  17  19
ENDBRANCH   4  17
TORSDOF 5
ENDMDL
MODEL 9
REMARK VINA RESULT:      -6.9      0.790      1.328
REMARK  Name = 
REMARK  7 active torsions:
REMARK  status: ('A' for Active; 'I' for Inactive)
REMARK    1  A    between atoms: C_1  and  C_2
REMARK    2  A    between atoms: C_2  and  C_4
REMARK    3  A    between atoms: C_5  and  O_6
REMARK    4  A    between atoms: C_8  and  O_9
REMARK    5  A    between atoms: C_8  and  N_10
REMARK    6  A    between atoms: N_10  and  C_11
REMARK    7  A    between atoms: C_14  and  C_15
REMARK                            x       y       z     vdW  Elec       q    Type
REMARK                         _______ _______ _______ _____ _____    ______ ____
ROOT
ATOM      1  C   UNL     1      -0.964  11.446  21.590  0.00  0.00    +0.000 C 
ATOM      2  C   UNL     1      -0.082  10.463  21.823  0.00  0.00    +0.000 C 
ATOM      3  C   UNL     1       0.519   9.704  20.742  0.00  0.00    +0.000 C 
ATOM      4  C   UNL     1       1.425   8.705  20.911  0.00  0.00    +0.000 C 
ATOM      5  C   UNL     1       0.131  10.074  19.357  0.00  0.00    +0.000 C 
ATOM      6  O   UNL     1       0.620   9.539  18.365  0.00  0.00    +0.000 OA
ATOM      7  O   UNL     1      -0.787  11.048  19.194  0.00  0.00    +0.000 OA
ATOM      8  C   UNL     1      -1.331  11.748  20.206  0.00  0.00    +0.000 C 
ATOM      9  O   UNL     1      -2.125  12.649  19.957  0.00  0.00    +0.000 OA
ENDROOT
BRANCH   1  11
ATOM     10  C   UNL     1      -1.056  13.543  23.128  0.00  0.00    +0.000 C 
ATOM     11  C   UNL     1      -1.539  12.163  22.767  0.00  0.00    +0.000 C 
ATOM     12  O   UNL     1      -2.484  11.654  23.380  0.00  0.00    +0.000 OA
ENDBRANCH   1  11
BRANCH   2  13
ATOM     13  O   UNL     1       0.330  10.097  23.102  0.00  0.00    +0.000 OA
ATOM     14  H   UNL     1       1.313   9.992  23.110  0.00  0.00    +0.000 HD
ENDBRANCH   2  13
BRANCH   4  15
ATOM     15  O   UNL     1       1.850   8.356  22.186  0.00  0.00    +0.000 OA
ATOM     16  H   UNL     1       2.260   7.473  22.152  0.00  0.00    +0.000 HD
ENDBRANCH   4  15
BRANCH   4  17
ATOM     17  N   UNL     1       2.045   7.992  19.902  0.00  0.00    +0.000 N 
ATOM     18  H   UNL     1       2.756   8.497  19.373  0.00  0.00    +0.000 HD
BRANCH  17  19
ATOM     19  C   UNL     1       1.917   6.625  19.592  0.00  0.00    +0.000 A 
ATOM     20  C   UNL     1       1.603   5.663  20.559  0.00  0.00    +0.000 A 
ATOM     21  C   UNL     1       1.624   4.300  20.269  0.00  0.00    +0.000 A 
ATOM     22  C   UNL     1       1.962   3.862  18.990  0.00  0.00    +0.000 A 
ATOM     23  C   UNL     1       2.039   2.397  18.687  0.00  0.00    +0.000 C 
ATOM     24  C   UNL     1       2.253   4.811  18.004  0.00  0.00    +0.000 A 
ATOM     25  C   UNL     1       2.229   6.180  18.302  0.00  0.00    +0.000 A 
ENDBRANCH  17  19
ENDBRANCH   4  17
TORSDOF 5
ENDMDL
