MODEL 1
REMARK VINA RESULT:      -8.9      0.000      0.000
REMARK  Name = 
REMARK  10 active torsions:
REMARK  status: ('A' for Active; 'I' for Inactive)
REMARK    1  A    between atoms: C_1  and  C_2
REMARK    2  A    between atoms: N_4  and  C_5
REMARK    3  A    between atoms: C_11  and  C_12
REMARK    4  A    between atoms: C_13  and  C_14
REMARK    5  A    between atoms: C_14  and  C_16
REMARK    6  A    between atoms: N_18  and  C_19
REMARK    7  A    between atoms: C_19  and  C_20
REMARK    8  A    between atoms: C_19  and  C_21
REMARK    9  A    between atoms: C_24  and  S_25
REMARK   10  A    between atoms: S_25  and  N_26
REMARK                            x       y       z     vdW  Elec       q    Type
REMARK                         _______ _______ _______ _____ _____    ______ ____
ROOT
ATOM      1  C   UNL     1       4.307   5.143  19.408  0.00  0.00    +0.000 C 
ATOM      2  O   UNL     1       3.744   4.088  19.659  0.00  0.00    +0.000 OA
ATOM      3  N   UNL     1       3.704   6.386  19.348  0.00  0.00    +0.000 N 
ATOM      4  H   UNL     1       4.241   7.133  18.918  0.00  0.00    +0.000 HD
ENDROOT
BRANCH   1   5
ATOM      5  C   UNL     1       5.807   5.180  19.125  0.00  0.00    +0.000 C 
ATOM      6  O   UNL     1       6.522   4.926  20.097  0.00  0.00    +0.000 OA
BRANCH   5  13
ATOM      7  C   UNL     1       7.824   7.575  17.950  0.00  0.00    +0.000 C 
ATOM      8  C   UNL     1       7.228   6.393  17.269  0.00  0.00    +0.000 A 
ATOM      9  N   UNL     1       7.529   6.178  15.985  0.00  0.00    +0.000 NA
ATOM     10  N   UNL     1       6.738   5.149  15.594  0.00  0.00    +0.000 N 
ATOM     11  C   UNL     1       6.061   4.604  16.676  0.00  0.00    +0.000 A 
ATOM     12  C   UNL     1       5.257   3.346  16.648  0.00  0.00    +0.000 C 
ATOM     13  C   UNL     1       6.350   5.402  17.784  0.00  0.00    +0.000 A 
BRANCH  10  14
ATOM     14  C   UNL     1       6.703   4.745  14.231  0.00  0.00    +0.000 A 
ATOM     15  C   UNL     1       7.651   5.249  13.325  0.00  0.00    +0.000 A 
ATOM     16  C   UNL     1       7.697   4.743  12.020  0.00  0.00    +0.000 A 
ATOM     17  C   UNL     1       6.786   3.773  11.602  0.00  0.00    +0.000 A 
ATOM     18  C   UNL     1       5.798   3.326  12.479  0.00  0.00    +0.000 A 
ATOM     19  C   UNL     1       5.746   3.829  13.775  0.00  0.00    +0.000 A 
ENDBRANCH  10  14
ENDBRANCH   5  13
ENDBRANCH   1   5
BRANCH   3  20
ATOM     20  C   UNL     1       2.272   6.546  19.512  0.00  0.00    +0.000 C 
ATOM     21  C   UNL     1       1.820   6.025  20.877  0.00  0.00    +0.000 C 
BRANCH  20  22
ATOM     22  C   UNL     1       1.832   7.985  19.311  0.00  0.00    +0.000 A 
ATOM     23  C   UNL     1       1.179   8.653  20.361  0.00  0.00    +0.000 A 
ATOM     24  C   UNL     1       0.818   9.993  20.240  0.00  0.00    +0.000 A 
ATOM     25  C   UNL     1       1.112  10.679  19.060  0.00  0.00    +0.000 A 
ATOM     26  C   UNL     1       1.736  10.030  17.991  0.00  0.00    +0.000 A 
ATOM     27  C   UNL     1       2.098   8.689  18.122  0.00  0.00    +0.000 A 
BRANCH  25  28
ATOM     28  S   UNL     1       0.675  12.385  18.924  0.00  0.00    +0.000 S 
ATOM     29  O   UNL     1       0.193  12.861  20.200  0.00  0.00    +0.000 OA
ATOM     30  O   UNL     1       1.685  13.082  18.163  0.00  0.00    +0.000 OA
BRANCH  28  31
ATOM     31  N   UNL     1      -0.674  12.290  17.926  0.00  0.00    +0.000 NA
ATOM     32  H   UNL     1      -1.516  12.162  18.487  0.00  0.00    +0.000 HD
ATOM     33  H   UNL     1      -0.702  13.094  17.299  0.00  0.00    +0.000 HD
ENDBRANCH  28  31
ENDBRANCH  25  28
ENDBRANCH  20  22
ENDBRANCH   3  20
TORSDOF 7
ENDMDL
MODEL 2
REMARK VINA RESULT:      -8.6      0.665      1.438
REMARK  Name = 
REMARK  10 active torsions:
REMARK  status: ('A' for Active; 'I' for Inactive)
REMARK    1  A    between atoms: C_1  and  C_2
REMARK    2  A    between atoms: N_4  and  C_5
REMARK    3  A    between atoms: C_11  and  C_12
REMARK    4  A    between atoms: C_13  and  C_14
REMARK    5  A    between atoms: C_14  and  C_16
REMARK    6  A    between atoms: N_18  and  C_19
REMARK    7  A    between atoms: C_19  and  C_20
REMARK    8  A    between atoms: C_19  and  C_21
REMARK    9  A    between atoms: C_24  and  S_25
REMARK   10  A    between atoms: S_25  and  N_26
REMARK                            x       y       z     vdW  Elec       q    Type
REMARK                         _______ _______ _______ _____ _____    ______ ____
ROOT
ATOM      1  C   UNL     1       4.316   5.037  19.262  0.00  0.00    +0.000 C 
ATOM      2  O   UNL     1       3.763   3.950  19.208  0.00  0.00    +0.000 OA
ATOM      3  N   UNL     1       3.700   6.246  19.530  0.00  0.00    +0.000 N 
ATOM      4  H   UNL     1       4.236   7.085  19.329  0.00  0.00    +0.000 HD
ENDROOT
BRANCH   1   5
ATOM      5  C   UNL     1       5.821   5.160  19.027  0.00  0.00    +0.000 C 
ATOM      6  O   UNL     1       6.517   4.970  20.027  0.00  0.00    +0.000 OA
BRANCH   5  13
ATOM      7  C   UNL     1       7.772   7.620  17.876  0.00  0.00    +0.000 C 
ATOM      8  C   UNL     1       7.246   6.405  17.195  0.00  0.00    +0.000 A 
ATOM      9  N   UNL     1       7.593   6.185  15.924  0.00  0.00    +0.000 NA
ATOM     10  N   UNL     1       6.858   5.119  15.525  0.00  0.00    +0.000 N 
ATOM     11  C   UNL     1       6.171   4.561  16.595  0.00  0.00    +0.000 A 
ATOM     12  C   UNL     1       5.422   3.270  16.562  0.00  0.00    +0.000 C 
ATOM     13  C   UNL     1       6.394   5.386  17.699  0.00  0.00    +0.000 A 
BRANCH  10  14
ATOM     14  C   UNL     1       6.881   4.695  14.168  0.00  0.00    +0.000 A 
ATOM     15  C   UNL     1       6.002   3.689  13.732  0.00  0.00    +0.000 A 
ATOM     16  C   UNL     1       5.934   3.375  12.369  0.00  0.00    +0.000 A 
ATOM     17  C   UNL     1       6.758   4.022  11.448  0.00  0.00    +0.000 A 
ATOM     18  C   UNL     1       7.683   4.968  11.892  0.00  0.00    +0.000 A 
ATOM     19  C   UNL     1       7.757   5.281  13.245  0.00  0.00    +0.000 A 
ENDBRANCH  10  14
ENDBRANCH   5  13
ENDBRANCH   1   5
BRANCH   3  20
ATOM     20  C   UNL     1       2.265   6.346  19.705  0.00  0.00    +0.000 C 
ATOM     21  C   UNL     1       1.815   5.579  20.950  0.00  0.00    +0.000 C 
BRANCH  20  22
ATOM     22  C   UNL     1       1.797   7.789  19.762  0.00  0.00    +0.000 A 
ATOM     23  C   UNL     1       1.864   8.575  18.599  0.00  0.00    +0.000 A 
ATOM     24  C   UNL     1       1.384   9.883  18.592  0.00  0.00    +0.000 A 
ATOM     25  C   UNL     1       0.828  10.416  19.757  0.00  0.00    +0.000 A 
ATOM     26  C   UNL     1       0.775   9.664  20.933  0.00  0.00    +0.000 A 
ATOM     27  C   UNL     1       1.254   8.353  20.931  0.00  0.00    +0.000 A 
BRANCH  25  28
ATOM     28  S   UNL     1       0.198  12.066  19.733  0.00  0.00    +0.000 S 
ATOM     29  O   UNL     1      -1.243  12.031  19.826  0.00  0.00    +0.000 OA
ATOM     30  O   UNL     1       1.014  12.906  20.577  0.00  0.00    +0.000 OA
BRANCH  28  31
ATOM     31  N   UNL     1       0.549  12.519  18.153  0.00  0.00    +0.000 NA
ATOM     32  H   UNL     1       0.759  11.693  17.591  0.00  0.00    +0.000 HD
ATOM     33  H   UNL     1      -0.200  13.103  17.782  0.00  0.00    +0.000 HD
ENDBRANCH  28  31
ENDBRANCH  25  28
ENDBRANCH  20  22
ENDBRANCH   3  20
TORSDOF 7
ENDMDL
MODEL 3
REMARK VINA RESULT:      -8.6      0.978      1.352
REMARK  Name = 
REMARK  10 active torsions:
REMARK  status: ('A' for Active; 'I' for Inactive)
REMARK    1  A    between atoms: C_1  and  C_2
REMARK    2  A    between atoms: N_4  and  C_5
REMARK    3  A    between atoms: C_11  and  C_12
REMARK    4  A    between atoms: C_13  and  C_14
REMARK    5  A    between atoms: C_14  and  C_16
REMARK    6  A    between atoms: N_18  and  C_19
REMARK    7  A    between atoms: C_19  and  C_20
REMARK    8  A    between atoms: C_19  and  C_21
REMARK    9  A    between atoms: C_24  and  S_25
REMARK   10  A    between atoms: S_25  and  N_26
REMARK                            x       y       z     vdW  Elec       q    Type
REMARK                         _______ _______ _______ _____ _____    ______ ____
ROOT
ATOM      1  C   UNL     1       4.262   5.034  19.324  0.00  0.00    +0.000 C 
ATOM      2  O   UNL     1       3.718   3.941  19.304  0.00  0.00    +0.000 OA
ATOM      3  N   UNL     1       3.637   6.245  19.565  0.00  0.00    +0.000 N 
ATOM      4  H   UNL     1       4.163   7.083  19.336  0.00  0.00    +0.000 HD
ENDROOT
BRANCH   1   5
ATOM      5  C   UNL     1       5.763   5.165  19.071  0.00  0.00    +0.000 C 
ATOM      6  O   UNL     1       6.472   4.983  20.063  0.00  0.00    +0.000 OA
BRANCH   5  13
ATOM      7  C   UNL     1       7.796   7.559  17.922  0.00  0.00    +0.000 C 
ATOM      8  C   UNL     1       7.205   6.379  17.231  0.00  0.00    +0.000 A 
ATOM      9  N   UNL     1       7.518   6.166  15.950  0.00  0.00    +0.000 NA
ATOM     10  N   UNL     1       6.729   5.140  15.549  0.00  0.00    +0.000 N 
ATOM     11  C   UNL     1       6.040   4.593  16.623  0.00  0.00    +0.000 A 
ATOM     12  C   UNL     1       5.235   3.337  16.584  0.00  0.00    +0.000 C 
ATOM     13  C   UNL     1       6.320   5.389  17.735  0.00  0.00    +0.000 A 
BRANCH  10  14
ATOM     14  C   UNL     1       6.708   4.739  14.185  0.00  0.00    +0.000 A 
ATOM     15  C   UNL     1       7.655   5.256  13.286  0.00  0.00    +0.000 A 
ATOM     16  C   UNL     1       7.715   4.753  11.981  0.00  0.00    +0.000 A 
ATOM     17  C   UNL     1       6.818   3.774  11.554  0.00  0.00    +0.000 A 
ATOM     18  C   UNL     1       5.830   3.313  12.424  0.00  0.00    +0.000 A 
ATOM     19  C   UNL     1       5.764   3.812  13.721  0.00  0.00    +0.000 A 
ENDBRANCH  10  14
ENDBRANCH   5  13
ENDBRANCH   1   5
BRANCH   3  20
ATOM     20  C   UNL     1       2.203   6.336  19.751  0.00  0.00    +0.000 C 
ATOM     21  C   UNL     1       1.743   5.421  20.887  0.00  0.00    +0.000 C 
BRANCH  20  22
ATOM     22  C   UNL     1       1.749   7.764  19.993  0.00  0.00    +0.000 A 
ATOM     23  C   UNL     1       1.722   8.664  18.914  0.00  0.00    +0.000 A 
ATOM     24  C   UNL     1       1.251   9.965  19.080  0.00  0.00    +0.000 A 
ATOM     25  C   UNL     1       0.798  10.376  20.334  0.00  0.00    +0.000 A 
ATOM     26  C   UNL     1       0.840   9.509  21.429  0.00  0.00    +0.000 A 
ATOM     27  C   UNL     1       1.310   8.206  21.254  0.00  0.00    +0.000 A 
BRANCH  25  28
ATOM     28  S   UNL     1       0.177  12.018  20.531  0.00  0.00    +0.000 S 
ATOM     29  O   UNL     1       1.107  12.792  21.319  0.00  0.00    +0.000 OA
ATOM     30  O   UNL     1      -0.357  12.485  19.273  0.00  0.00    +0.000 OA
BRANCH  28  31
ATOM     31  N   UNL     1      -1.151  11.739  21.523  0.00  0.00    +0.000 NA
ATOM     32  H   UNL     1      -0.841  11.544  22.475  0.00  0.00    +0.000 HD
ATOM     33  H   UNL     1      -1.814  12.510  21.443  0.00  0.00    +0.000 HD
ENDBRANCH  28  31
ENDBRANCH  25  28
ENDBRANCH  20  22
ENDBRANCH   3  20
TORSDOF 7
ENDMDL
MODEL 4
REMARK VINA RESULT:      -8.6      1.138      1.398
REMARK  Name = 
REMARK  10 active torsions:
REMARK  status: ('A' for Active; 'I' for Inactive)
REMARK    1  A    between atoms: C_1  and  C_2
REMARK    2  A    between atoms: N_4  and  C_5
REMARK    3  A    between atoms: C_11  and  C_12
REMARK    4  A    between atoms: C_13  and  C_14
REMARK    5  A    between atoms: C_14  and  C_16
REMARK    6  A    between atoms: N_18  and  C_19
REMARK    7  A    between atoms: C_19  and  C_20
REMARK    8  A    between atoms: C_19  and  C_21
REMARK    9  A    between atoms: C_24  and  S_25
REMARK   10  A    between atoms: S_25  and  N_26
REMARK                            x       y       z     vdW  Elec       q    Type
REMARK                         _______ _______ _______ _____ _____    ______ ____
ROOT
ATOM      1  C   UNL     1       4.364   5.034  19.382  0.00  0.00    +0.000 C 
ATOM      2  O   UNL     1       3.893   3.907  19.364  0.00  0.00    +0.000 OA
ATOM      3  N   UNL     1       3.662   6.200  19.629  0.00  0.00    +0.000 N 
ATOM      4  H   UNL     1       4.129   7.071  19.398  0.00  0.00    +0.000 HD
ENDROOT
BRANCH   1   5
ATOM      5  C   UNL     1       5.852   5.263  19.120  0.00  0.00    +0.000 C 
ATOM      6  O   UNL     1       6.570   5.177  20.118  0.00  0.00    +0.000 OA
BRANCH   5  13
ATOM      7  C   UNL     1       7.900   7.621  17.924  0.00  0.00    +0.000 C 
ATOM      8  C   UNL     1       7.282   6.444  17.251  0.00  0.00    +0.000 A 
ATOM      9  N   UNL     1       7.574   6.218  15.967  0.00  0.00    +0.000 NA
ATOM     10  N   UNL     1       6.766   5.199  15.585  0.00  0.00    +0.000 N 
ATOM     11  C   UNL     1       6.085   4.670  16.673  0.00  0.00    +0.000 A 
ATOM     12  C   UNL     1       5.262   3.425  16.655  0.00  0.00    +0.000 C 
ATOM     13  C   UNL     1       6.392   5.470  17.775  0.00  0.00    +0.000 A 
BRANCH  10  14
ATOM     14  C   UNL     1       6.718   4.789  14.225  0.00  0.00    +0.000 A 
ATOM     15  C   UNL     1       7.683   5.256  13.317  0.00  0.00    +0.000 A 
ATOM     16  C   UNL     1       7.713   4.741  12.015  0.00  0.00    +0.000 A 
ATOM     17  C   UNL     1       6.770   3.799  11.601  0.00  0.00    +0.000 A 
ATOM     18  C   UNL     1       5.768   3.390  12.480  0.00  0.00    +0.000 A 
ATOM     19  C   UNL     1       5.731   3.902  13.773  0.00  0.00    +0.000 A 
ENDBRANCH  10  14
ENDBRANCH   5  13
ENDBRANCH   1   5
BRANCH   3  20
ATOM     20  C   UNL     1       2.226   6.196  19.824  0.00  0.00    +0.000 C 
ATOM     21  C   UNL     1       1.831   5.225  20.938  0.00  0.00    +0.000 C 
BRANCH  20  22
ATOM     22  C   UNL     1       1.684   7.587  20.103  0.00  0.00    +0.000 A 
ATOM     23  C   UNL     1       1.238   7.899  21.399  0.00  0.00    +0.000 A 
ATOM     24  C   UNL     1       0.796   9.182  21.712  0.00  0.00    +0.000 A 
ATOM     25  C   UNL     1       0.798  10.169  20.725  0.00  0.00    +0.000 A 
ATOM     26  C   UNL     1       1.211   9.877  19.422  0.00  0.00    +0.000 A 
ATOM     27  C   UNL     1       1.656   8.589  19.117  0.00  0.00    +0.000 A 
BRANCH  25  28
ATOM     28  S   UNL     1       0.261  11.800  21.136  0.00  0.00    +0.000 S 
ATOM     29  O   UNL     1      -0.602  12.300  20.091  0.00  0.00    +0.000 OA
ATOM     30  O   UNL     1      -0.098  11.852  22.534  0.00  0.00    +0.000 OA
BRANCH  28  31
ATOM     31  N   UNL     1       1.701  12.655  20.997  0.00  0.00    +0.000 NA
ATOM     32  H   UNL     1       2.433  12.049  20.625  0.00  0.00    +0.000 HD
ATOM     33  H   UNL     1       1.550  13.510  20.463  0.00  0.00    +0.000 HD
ENDBRANCH  28  31
ENDBRANCH  25  28
ENDBRANCH  20  22
ENDBRANCH   3  20
TORSDOF 7
ENDMDL
MODEL 5
REMARK VINA RESULT:      -8.4      3.874      9.708
REMARK  Name = 
REMARK  10 active torsions:
REMARK  status: ('A' for Active; 'I' for Inactive)
REMARK    1  A    between atoms: C_1  and  C_2
REMARK    2  A    between atoms: N_4  and  C_5
REMARK    3  A    between atoms: C_11  and  C_12
REMARK    4  A    between atoms: C_13  and  C_14
REMARK    5  A    between atoms: C_14  and  C_16
REMARK    6  A    between atoms: N_18  and  C_19
REMARK    7  A    between atoms: C_19  and  C_20
REMARK    8  A    between atoms: C_19  and  C_21
REMARK    9  A    between atoms: C_24  and  S_25
REMARK   10  A    between atoms: S_25  and  N_26
REMARK                            x       y       z     vdW  Elec       q    Type
REMARK                         _______ _______ _______ _____ _____    ______ ____
ROOT
ATOM      1  C   UNL     1       1.423   8.676  20.486  0.00  0.00    +0.000 C 
ATOM      2  O   UNL     1       1.594   8.706  21.695  0.00  0.00    +0.000 OA
ATOM      3  N   UNL     1       1.762   7.629  19.647  0.00  0.00    +0.000 N 
ATOM      4  H   UNL     1       1.765   7.826  18.651  0.00  0.00    +0.000 HD
ENDROOT
BRANCH   1   5
ATOM      5  C   UNL     1       0.781   9.856  19.758  0.00  0.00    +0.000 C 
ATOM      6  O   UNL     1       0.192   9.561  18.716  0.00  0.00    +0.000 OA
BRANCH   5  13
ATOM      7  C   UNL     1      -0.682  11.110  22.491  0.00  0.00    +0.000 C 
ATOM      8  C   UNL     1       0.192  11.762  21.477  0.00  0.00    +0.000 A 
ATOM      9  N   UNL     1       0.507  13.050  21.640  0.00  0.00    +0.000 NA
ATOM     10  N   UNL     1       1.165  13.409  20.511  0.00  0.00    +0.000 N 
ATOM     11  C   UNL     1       1.415  12.303  19.709  0.00  0.00    +0.000 A 
ATOM     12  C   UNL     1       2.281  12.296  18.493  0.00  0.00    +0.000 C 
ATOM     13  C   UNL     1       0.781  11.213  20.307  0.00  0.00    +0.000 A 
BRANCH  10  14
ATOM     14  C   UNL     1       1.530  14.765  20.289  0.00  0.00    +0.000 A 
ATOM     15  C   UNL     1       2.643  15.310  20.950  0.00  0.00    +0.000 A 
ATOM     16  C   UNL     1       3.077  16.600  20.623  0.00  0.00    +0.000 A 
ATOM     17  C   UNL     1       2.391  17.363  19.678  0.00  0.00    +0.000 A 
ATOM     18  C   UNL     1       1.242  16.850  19.076  0.00  0.00    +0.000 A 
ATOM     19  C   UNL     1       0.805  15.570  19.400  0.00  0.00    +0.000 A 
ENDBRANCH  10  14
ENDBRANCH   5  13
ENDBRANCH   1   5
BRANCH   3  20
ATOM     20  C   UNL     1       2.450   6.453  20.140  0.00  0.00    +0.000 C 
ATOM     21  C   UNL     1       1.460   5.324  20.430  0.00  0.00    +0.000 C 
BRANCH  20  22
ATOM     22  C   UNL     1       3.535   5.986  19.185  0.00  0.00    +0.000 A 
ATOM     23  C   UNL     1       3.546   6.479  17.869  0.00  0.00    +0.000 A 
ATOM     24  C   UNL     1       4.560   6.126  16.982  0.00  0.00    +0.000 A 
ATOM     25  C   UNL     1       5.579   5.273  17.409  0.00  0.00    +0.000 A 
ATOM     26  C   UNL     1       5.576   4.747  18.704  0.00  0.00    +0.000 A 
ATOM     27  C   UNL     1       4.558   5.108  19.588  0.00  0.00    +0.000 A 
BRANCH  25  28
ATOM     28  S   UNL     1       6.876   4.851  16.288  0.00  0.00    +0.000 S 
ATOM     29  O   UNL     1       6.432   3.788  15.416  0.00  0.00    +0.000 OA
ATOM     30  O   UNL     1       7.497   6.057  15.793  0.00  0.00    +0.000 OA
BRANCH  28  31
ATOM     31  N   UNL     1       7.991   4.155  17.336  0.00  0.00    +0.000 NA
ATOM     32  H   UNL     1       7.760   3.173  17.489  0.00  0.00    +0.000 HD
ATOM     33  H   UNL     1       8.938   4.319  16.998  0.00  0.00    +0.000 HD
ENDBRANCH  28  31
ENDBRANCH  25  28
ENDBRANCH  20  22
ENDBRANCH   3  20
TORSDOF 7
ENDMDL
MODEL 6
REMARK VINA RESULT:      -8.3      3.993     10.548
REMARK  Name = 
REMARK  10 active torsions:
REMARK  status: ('A' for Active; 'I' for Inactive)
REMARK    1  A    between atoms: C_1  and  C_2
REMARK    2  A    between atoms: N_4  and  C_5
REMARK    3  A    between atoms: C_11  and  C_12
REMARK    4  A    between atoms: C_13  and  C_14
REMARK    5  A    between atoms: C_14  and  C_16
REMARK    6  A    between atoms: N_18  and  C_19
REMARK    7  A    between atoms: C_19  and  C_20
REMARK    8  A    between atoms: C_19  and  C_21
REMARK    9  A    between atoms: C_24  and  S_25
REMARK   10  A    between atoms: S_25  and  N_26
REMARK                            x       y       z     vdW  Elec       q    Type
REMARK                         _______ _______ _______ _____ _____    ______ ____
ROOT
ATOM      1  C   UNL     1       1.263   9.039  19.774  0.00  0.00    +0.000 C 
ATOM      2  O   UNL     1       0.996   8.963  20.963  0.00  0.00    +0.000 OA
ATOM      3  N   UNL     1       1.962   8.098  19.040  0.00  0.00    +0.000 N 
ATOM      4  H   UNL     1       2.298   8.389  18.127  0.00  0.00    +0.000 HD
ENDROOT
BRANCH   1   5
ATOM      5  C   UNL     1       0.820  10.247  18.949  0.00  0.00    +0.000 C 
ATOM      6  O   UNL     1       1.643  10.633  18.116  0.00  0.00    +0.000 OA
BRANCH   5  13
ATOM      7  C   UNL     1      -1.903   9.900  17.039  0.00  0.00    +0.000 C 
ATOM      8  C   UNL     1      -1.692  10.681  18.289  0.00  0.00    +0.000 A 
ATOM      9  N   UNL     1      -2.725  11.355  18.802  0.00  0.00    +0.000 NA
ATOM     10  N   UNL     1      -2.212  12.084  19.824  0.00  0.00    +0.000 N 
ATOM     11  C   UNL     1      -0.889  11.741  20.063  0.00  0.00    +0.000 A 
ATOM     12  C   UNL     1      -0.074  12.199  21.227  0.00  0.00    +0.000 C 
ATOM     13  C   UNL     1      -0.515  10.835  19.069  0.00  0.00    +0.000 A 
BRANCH  10  14
ATOM     14  C   UNL     1      -3.022  13.030  20.511  0.00  0.00    +0.000 A 
ATOM     15  C   UNL     1      -4.309  12.670  20.943  0.00  0.00    +0.000 A 
ATOM     16  C   UNL     1      -5.044  13.559  21.737  0.00  0.00    +0.000 A 
ATOM     17  C   UNL     1      -4.526  14.811  22.069  0.00  0.00    +0.000 A 
ATOM     18  C   UNL     1      -3.279  15.196  21.580  0.00  0.00    +0.000 A 
ATOM     19  C   UNL     1      -2.546  14.319  20.787  0.00  0.00    +0.000 A 
ENDBRANCH  10  14
ENDBRANCH   5  13
ENDBRANCH   1   5
BRANCH   3  20
ATOM     20  C   UNL     1       2.531   6.919  19.662  0.00  0.00    +0.000 C 
ATOM     21  C   UNL     1       1.445   5.887  19.968  0.00  0.00    +0.000 C 
BRANCH  20  22
ATOM     22  C   UNL     1       3.635   6.305  18.818  0.00  0.00    +0.000 A 
ATOM     23  C   UNL     1       3.903   6.844  17.548  0.00  0.00    +0.000 A 
ATOM     24  C   UNL     1       4.949   6.352  16.770  0.00  0.00    +0.000 A 
ATOM     25  C   UNL     1       5.740   5.312  17.262  0.00  0.00    +0.000 A 
ATOM     26  C   UNL     1       5.475   4.740  18.509  0.00  0.00    +0.000 A 
ATOM     27  C   UNL     1       4.428   5.241  19.285  0.00  0.00    +0.000 A 
BRANCH  25  28
ATOM     28  S   UNL     1       7.080   4.712  16.281  0.00  0.00    +0.000 S 
ATOM     29  O   UNL     1       7.369   5.659  15.230  0.00  0.00    +0.000 OA
ATOM     30  O   UNL     1       8.103   4.169  17.144  0.00  0.00    +0.000 OA
BRANCH  28  31
ATOM     31  N   UNL     1       6.360   3.391  15.531  0.00  0.00    +0.000 NA
ATOM     32  H   UNL     1       6.133   2.677  16.223  0.00  0.00    +0.000 HD
ATOM     33  H   UNL     1       5.570   3.698  14.965  0.00  0.00    +0.000 HD
ENDBRANCH  28  31
ENDBRANCH  25  28
ENDBRANCH  20  22
ENDBRANCH   3  20
TORSDOF 7
ENDMDL
MODEL 7
REMARK VINA RESULT:      -8.2      3.828      9.365
REMARK  Name = 
REMARK  10 active torsions:
REMARK  status: ('A' for Active; 'I' for Inactive)
REMARK    1  A    between atoms: C_1  and  C_2
REMARK    2  A    between atoms: N_4  and  C_5
REMARK    3  A    between atoms: C_11  and  C_12
REMARK    4  A    between atoms: C_13  and  C_14
REMARK    5  A    between atoms: C_14  and  C_16
REMARK    6  A    between atoms: N_18  and  C_19
REMARK    7  A    between atoms: C_19  and  C_20
REMARK    8  A    between atoms: C_19  and  C_21
REMARK    9  A    between atoms: C_24  and  S_25
REMARK   10  A    between atoms: S_25  and  N_26
REMARK                            x       y       z     vdW  Elec       q    Type
REMARK                         _______ _______ _______ _____ _____    ______ ____
ROOT
ATOM      1  C   UNL     1       1.207   8.698  20.407  0.00  0.00    +0.000 C 
ATOM      2  O   UNL     1       1.209   8.590  21.624  0.00  0.00    +0.000 OA
ATOM      3  N   UNL     1       1.773   7.805  19.515  0.00  0.00    +0.000 N 
ATOM      4  H   UNL     1       1.888   8.126  18.559  0.00  0.00    +0.000 HD
ENDROOT
BRANCH   1   5
ATOM      5  C   UNL     1       0.538   9.892  19.729  0.00  0.00    +0.000 C 
ATOM      6  O   UNL     1      -0.316   9.599  18.891  0.00  0.00    +0.000 OA
BRANCH   5  13
ATOM      7  C   UNL     1      -0.546  11.698  22.327  0.00  0.00    +0.000 C 
ATOM      8  C   UNL     1       0.394  12.053  21.228  0.00  0.00    +0.000 A 
ATOM      9  N   UNL     1       0.954  13.266  21.235  0.00  0.00    +0.000 NA
ATOM     10  N   UNL     1       1.622  13.364  20.059  0.00  0.00    +0.000 N 
ATOM     11  C   UNL     1       1.624  12.151  19.386  0.00  0.00    +0.000 A 
ATOM     12  C   UNL     1       2.421  11.843  18.162  0.00  0.00    +0.000 C 
ATOM     13  C   UNL     1       0.819  11.276  20.118  0.00  0.00    +0.000 A 
BRANCH  10  14
ATOM     14  C   UNL     1       2.228  14.592  19.676  0.00  0.00    +0.000 A 
ATOM     15  C   UNL     1       3.542  14.882  20.079  0.00  0.00    +0.000 A 
ATOM     16  C   UNL     1       4.180  16.026  19.584  0.00  0.00    +0.000 A 
ATOM     17  C   UNL     1       3.509  16.900  18.728  0.00  0.00    +0.000 A 
ATOM     18  C   UNL     1       2.180  16.651  18.387  0.00  0.00    +0.000 A 
ATOM     19  C   UNL     1       1.540  15.517  18.879  0.00  0.00    +0.000 A 
ENDBRANCH  10  14
ENDBRANCH   5  13
ENDBRANCH   1   5
BRANCH   3  20
ATOM     20  C   UNL     1       2.520   6.648  19.969  0.00  0.00    +0.000 C 
ATOM     21  C   UNL     1       1.581   5.480  20.274  0.00  0.00    +0.000 C 
BRANCH  20  22
ATOM     22  C   UNL     1       3.589   6.234  18.973  0.00  0.00    +0.000 A 
ATOM     23  C   UNL     1       4.391   5.115  19.258  0.00  0.00    +0.000 A 
ATOM     24  C   UNL     1       5.339   4.664  18.341  0.00  0.00    +0.000 A 
ATOM     25  C   UNL     1       5.490   5.332  17.125  0.00  0.00    +0.000 A 
ATOM     26  C   UNL     1       4.724   6.464  16.830  0.00  0.00    +0.000 A 
ATOM     27  C   UNL     1       3.774   6.907  17.752  0.00  0.00    +0.000 A 
BRANCH  25  28
ATOM     28  S   UNL     1       6.674   4.739  15.957  0.00  0.00    +0.000 S 
ATOM     29  O   UNL     1       6.522   5.455  14.712  0.00  0.00    +0.000 OA
ATOM     30  O   UNL     1       7.951   4.570  16.609  0.00  0.00    +0.000 OA
BRANCH  28  31
ATOM     31  N   UNL     1       6.092   3.187  15.673  0.00  0.00    +0.000 NA
ATOM     32  H   UNL     1       6.769   2.496  15.997  0.00  0.00    +0.000 HD
ATOM     33  H   UNL     1       5.160   3.085  16.073  0.00  0.00    +0.000 HD
ENDBRANCH  28  31
ENDBRANCH  25  28
ENDBRANCH  20  22
ENDBRANCH   3  20
TORSDOF 7
ENDMDL
MODEL 8
REMARK VINA RESULT:      -8.2      4.169     10.126
REMARK  Name = 
REMARK  10 active torsions:
REMARK  status: ('A' for Active; 'I' for Inactive)
REMARK    1  A    between atoms: C_1  and  C_2
REMARK    2  A    between atoms: N_4  and  C_5
REMARK    3  A    between atoms: C_11  and  C_12
REMARK    4  A    between atoms: C_13  and  C_14
REMARK    5  A    between atoms: C_14  and  C_16
REMARK    6  A    between atoms: N_18  and  C_19
REMARK    7  A    between atoms: C_19  and  C_20
REMARK    8  A    between atoms: C_19  and  C_21
REMARK    9  A    between atoms: C_24  and  S_25
REMARK   10  A    between atoms: S_25  and  N_26
REMARK                            x       y       z     vdW  Elec       q    Type
REMARK                         _______ _______ _______ _____ _____    ______ ____
ROOT
ATOM      1  C   UNL     1       1.264   9.074  20.023  0.00  0.00    +0.000 C 
ATOM      2  O   UNL     1       1.148   9.066  21.239  0.00  0.00    +0.000 OA
ATOM      3  N   UNL     1       1.839   8.074  19.259  0.00  0.00    +0.000 N 
ATOM      4  H   UNL     1       2.064   8.308  18.297  0.00  0.00    +0.000 HD
ENDROOT
BRANCH   1   5
ATOM      5  C   UNL     1       0.754  10.253  19.197  0.00  0.00    +0.000 C 
ATOM      6  O   UNL     1       1.427  10.513  18.197  0.00  0.00    +0.000 OA
BRANCH   5  13
ATOM      7  C   UNL     1      -0.052  12.228  21.772  0.00  0.00    +0.000 C 
ATOM      8  C   UNL     1      -0.848  11.819  20.582  0.00  0.00    +0.000 A 
ATOM      9  N   UNL     1      -2.085  12.306  20.443  0.00  0.00    +0.000 NA
ATOM     10  N   UNL     1      -2.615  11.653  19.380  0.00  0.00    +0.000 N 
ATOM     11  C   UNL     1      -1.655  10.878  18.744  0.00  0.00    +0.000 A 
ATOM     12  C   UNL     1      -1.835  10.180  17.436  0.00  0.00    +0.000 C 
ATOM     13  C   UNL     1      -0.492  10.955  19.512  0.00  0.00    +0.000 A 
BRANCH  10  14
ATOM     14  C   UNL     1      -3.982  11.833  19.033  0.00  0.00    +0.000 A 
ATOM     15  C   UNL     1      -4.590  10.970  18.107  0.00  0.00    +0.000 A 
ATOM     16  C   UNL     1      -5.968  11.066  17.875  0.00  0.00    +0.000 A 
ATOM     17  C   UNL     1      -6.732  12.036  18.524  0.00  0.00    +0.000 A 
ATOM     18  C   UNL     1      -6.115  12.940  19.388  0.00  0.00    +0.000 A 
ATOM     19  C   UNL     1      -4.746  12.852  19.619  0.00  0.00    +0.000 A 
ENDBRANCH  10  14
ENDBRANCH   5  13
ENDBRANCH   1   5
BRANCH   3  20
ATOM     20  C   UNL     1       2.450   6.909  19.867  0.00  0.00    +0.000 C 
ATOM     21  C   UNL     1       1.392   5.863  20.222  0.00  0.00    +0.000 C 
BRANCH  20  22
ATOM     22  C   UNL     1       3.529   6.306  18.985  0.00  0.00    +0.000 A 
ATOM     23  C   UNL     1       3.710   6.810  17.686  0.00  0.00    +0.000 A 
ATOM     24  C   UNL     1       4.731   6.328  16.869  0.00  0.00    +0.000 A 
ATOM     25  C   UNL     1       5.585   5.335  17.351  0.00  0.00    +0.000 A 
ATOM     26  C   UNL     1       5.409   4.798  18.630  0.00  0.00    +0.000 A 
ATOM     27  C   UNL     1       4.386   5.288  19.443  0.00  0.00    +0.000 A 
BRANCH  25  28
ATOM     28  S   UNL     1       6.894   4.749  16.320  0.00  0.00    +0.000 S 
ATOM     29  O   UNL     1       6.433   3.611  15.559  0.00  0.00    +0.000 OA
ATOM     30  O   UNL     1       7.569   5.871  15.713  0.00  0.00    +0.000 OA
BRANCH  28  31
ATOM     31  N   UNL     1       7.956   4.138  17.470  0.00  0.00    +0.000 NA
ATOM     32  H   UNL     1       7.752   3.154  17.647  0.00  0.00    +0.000 HD
ATOM     33  H   UNL     1       8.919   4.326  17.192  0.00  0.00    +0.000 HD
ENDBRANCH  28  31
ENDBRANCH  25  28
ENDBRANCH  20  22
ENDBRANCH   3  20
TORSDOF 7
ENDMDL
MODEL 9
REMARK VINA RESULT:      -8.1      4.611     11.105
REMARK  Name = 
REMARK  10 active torsions:
REMARK  status: ('A' for Active; 'I' for Inactive)
REMARK    1  A    between atoms: C_1  and  C_2
REMARK    2  A    between atoms: N_4  and  C_5
REMARK    3  A    between atoms: C_11  and  C_12
REMARK    4  A    between atoms: C_13  and  C_14
REMARK    5  A    between atoms: C_14  and  C_16
REMARK    6  A    between atoms: N_18  and  C_19
REMARK    7  A    between atoms: C_19  and  C_20
REMARK    8  A    between atoms: C_19  and  C_21
REMARK    9  A    between atoms: C_24  and  S_25
REMARK   10  A    between atoms: S_25  and  N_26
REMARK                            x       y       z     vdW  Elec       q    Type
REMARK                         _______ _______ _______ _____ _____    ______ ____
ROOT
ATOM      1  C   UNL     1       0.312  11.294  20.320  0.00  0.00    +0.000 C 
ATOM      2  O   UNL     1       0.821  11.881  21.263  0.00  0.00    +0.000 OA
ATOM      3  N   UNL     1       0.354   9.929  20.100  0.00  0.00    +0.000 N 
ATOM      4  H   UNL     1       0.082   9.608  19.175  0.00  0.00    +0.000 HD
ENDROOT
BRANCH   1   5
ATOM      5  C   UNL     1      -0.458  12.060  19.246  0.00  0.00    +0.000 C 
ATOM      6  O   UNL     1       0.242  12.747  18.499  0.00  0.00    +0.000 OA
BRANCH   5  13
ATOM      7  C   UNL     1      -2.201  10.389  16.932  0.00  0.00    +0.000 C 
ATOM      8  C   UNL     1      -2.663  11.187  18.102  0.00  0.00    +0.000 A 
ATOM      9  N   UNL     1      -3.975  11.266  18.341  0.00  0.00    +0.000 NA
ATOM     10  N   UNL     1      -4.108  12.164  19.347  0.00  0.00    +0.000 N 
ATOM     11  C   UNL     1      -2.868  12.524  19.858  0.00  0.00    +0.000 A 
ATOM     12  C   UNL     1      -2.644  13.338  21.089  0.00  0.00    +0.000 C 
ATOM     13  C   UNL     1      -1.903  11.912  19.057  0.00  0.00    +0.000 A 
BRANCH  10  14
ATOM     14  C   UNL     1      -5.397  12.593  19.765  0.00  0.00    +0.000 A 
ATOM     15  C   UNL     1      -6.262  11.692  20.410  0.00  0.00    +0.000 A 
ATOM     16  C   UNL     1      -7.472  12.156  20.940  0.00  0.00    +0.000 A 
ATOM     17  C   UNL     1      -7.844  13.494  20.800  0.00  0.00    +0.000 A 
ATOM     18  C   UNL     1      -7.019  14.371  20.096  0.00  0.00    +0.000 A 
ATOM     19  C   UNL     1      -5.818  13.914  19.563  0.00  0.00    +0.000 A 
ENDBRANCH  10  14
ENDBRANCH   5  13
ENDBRANCH   1   5
BRANCH   3  20
ATOM     20  C   UNL     1       1.102   9.041  20.967  0.00  0.00    +0.000 C 
ATOM     21  C   UNL     1       0.248   8.592  22.153  0.00  0.00    +0.000 C 
BRANCH  20  22
ATOM     22  C   UNL     1       1.655   7.843  20.216  0.00  0.00    +0.000 A 
ATOM     23  C   UNL     1       1.601   6.574  20.819  0.00  0.00    +0.000 A 
ATOM     24  C   UNL     1       2.038   5.440  20.137  0.00  0.00    +0.000 A 
ATOM     25  C   UNL     1       2.532   5.568  18.838  0.00  0.00    +0.000 A 
ATOM     26  C   UNL     1       2.621   6.822  18.226  0.00  0.00    +0.000 A 
ATOM     27  C   UNL     1       2.178   7.953  18.914  0.00  0.00    +0.000 A 
BRANCH  25  28
ATOM     28  S   UNL     1       3.058   4.123  17.970  0.00  0.00    +0.000 S 
ATOM     29  O   UNL     1       3.783   3.258  18.871  0.00  0.00    +0.000 OA
ATOM     30  O   UNL     1       1.985   3.648  17.129  0.00  0.00    +0.000 OA
BRANCH  28  31
ATOM     31  N   UNL     1       4.206   4.776  16.930  0.00  0.00    +0.000 NA
ATOM     32  H   UNL     1       3.828   4.834  15.985  0.00  0.00    +0.000 HD
ATOM     33  H   UNL     1       4.553   5.659  17.302  0.00  0.00    +0.000 HD
ENDBRANCH  28  31
ENDBRANCH  25  28
ENDBRANCH  20  22
ENDBRANCH   3  20
TORSDOF 7
ENDMDL
