MODEL 1
REMARK VINA RESULT:      -8.2      0.000      0.000
REMARK  Name = 
REMARK  6 active torsions:
REMARK  status: ('A' for Active; 'I' for Inactive)
REMARK    1  A    between atoms: C_1  and  C_2
REMARK    2  A    between atoms: C_7  and  C_8
REMARK    3  A    between atoms: C_9  and  O_10
REMARK    4  A    between atoms: O_10  and  C_11
REMARK    5  A    between atoms: N_17  and  C_18
REMARK    6  A    between atoms: C_21  and  C_22
REMARK                            x       y       z     vdW  Elec       q    Type
REMARK                         _______ _______ _______ _____ _____    ______ ____
ROOT
ATOM      1  C   UNL     1       2.647   5.835  20.256  0.00  0.00    +0.000 A 
ATOM      2  N   UNL     1       1.576   5.135  20.552  0.00  0.00    +0.000 NA
ATOM      3  C   UNL     1       1.627   3.842  20.321  0.00  0.00    +0.000 A 
ATOM      4  N   UNL     1       0.597   3.080  20.830  0.00  0.00    +0.000 N 
ATOM      5  N   UNL     1       2.613   3.231  19.711  0.00  0.00    +0.000 NA
ATOM      6  C   UNL     1       3.581   4.032  19.294  0.00  0.00    +0.000 A 
ATOM      7  N   UNL     1       4.558   3.413  18.517  0.00  0.00    +0.000 N 
ATOM      8  N   UNL     1       3.664   5.337  19.571  0.00  0.00    +0.000 NA
ATOM      9  H   UNL     1       0.136   3.587  21.574  0.00  0.00    +0.000 HD
ATOM     10  H   UNL     1       0.946   2.164  21.075  0.00  0.00    +0.000 HD
ATOM     11  H   UNL     1       4.306   2.446  18.363  0.00  0.00    +0.000 HD
ENDROOT
BRANCH   7  12
ATOM     12  C   UNL     1       5.290   3.996  17.476  0.00  0.00    +0.000 A 
ATOM     13  C   UNL     1       4.693   4.107  16.216  0.00  0.00    +0.000 A 
ATOM     14  C   UNL     1       5.434   4.562  15.126  0.00  0.00    +0.000 A 
ATOM     15  C   UNL     1       6.767   4.939  15.300  0.00  0.00    +0.000 A 
ATOM     16  C   UNL     1       7.352   4.900  16.565  0.00  0.00    +0.000 A 
ATOM     17  C   UNL     1       6.609   4.435  17.648  0.00  0.00    +0.000 A 
BRANCH  15  18
ATOM     18  C   UNL     1       7.538   5.352  14.176  0.00  0.00    +0.000 C 
ATOM     19  N   UNL     1       8.175   5.660  13.248  0.00  0.00    +0.000 NA
ENDBRANCH  15  18
ENDBRANCH   7  12
BRANCH   1  20
ATOM     20  O   UNL     1       2.654   7.210  20.470  0.00  0.00    +0.000 OA
BRANCH  20  29
ATOM     21  C   UNL     1       2.803   7.877  17.353  0.00  0.00    +0.000 C 
ATOM     22  C   UNL     1       1.904   8.454  18.405  0.00  0.00    +0.000 A 
ATOM     23  C   UNL     1       1.052   9.464  17.907  0.00  0.00    +0.000 A 
ATOM     24  C   UNL     1       0.155  10.127  18.724  0.00  0.00    +0.000 A 
ATOM     25 CL   UNL     1      -0.837  11.365  18.065  0.00  0.00    +0.000 Cl
ATOM     26  C   UNL     1       0.071   9.789  20.062  0.00  0.00    +0.000 A 
ATOM     27  C   UNL     1       0.896   8.778  20.600  0.00  0.00    +0.000 A 
ATOM     28  C   UNL     1       0.737   8.473  22.069  0.00  0.00    +0.000 C 
ATOM     29  C   UNL     1       1.826   8.083  19.771  0.00  0.00    +0.000 A 
ENDBRANCH  20  29
ENDBRANCH   1  20
TORSDOF 4
ENDMDL
MODEL 2
REMARK VINA RESULT:      -7.7      0.330      1.750
REMARK  Name = 
REMARK  6 active torsions:
REMARK  status: ('A' for Active; 'I' for Inactive)
REMARK    1  A    between atoms: C_1  and  C_2
REMARK    2  A    between atoms: C_7  and  C_8
REMARK    3  A    between atoms: C_9  and  O_10
REMARK    4  A    between atoms: O_10  and  C_11
REMARK    5  A    between atoms: N_17  and  C_18
REMARK    6  A    between atoms: C_21  and  C_22
REMARK                            x       y       z     vdW  Elec       q    Type
REMARK                         _______ _______ _______ _____ _____    ______ ____
ROOT
ATOM      1  C   UNL     1       2.683   6.000  19.995  0.00  0.00    +0.000 A 
ATOM      2  N   UNL     1       1.555   5.378  20.251  0.00  0.00    +0.000 NA
ATOM      3  C   UNL     1       1.510   4.092  19.981  0.00  0.00    +0.000 A 
ATOM      4  N   UNL     1       0.413   3.398  20.449  0.00  0.00    +0.000 N 
ATOM      5  N   UNL     1       2.456   3.424  19.368  0.00  0.00    +0.000 NA
ATOM      6  C   UNL     1       3.491   4.159  18.993  0.00  0.00    +0.000 A 
ATOM      7  N   UNL     1       4.432   3.489  18.214  0.00  0.00    +0.000 N 
ATOM      8  N   UNL     1       3.670   5.445  19.313  0.00  0.00    +0.000 NA
ATOM      9  H   UNL     1      -0.021   3.917  21.200  0.00  0.00    +0.000 HD
ATOM     10  H   UNL     1       0.686   2.450  20.671  0.00  0.00    +0.000 HD
ATOM     11  H   UNL     1       4.109   2.549  18.025  0.00  0.00    +0.000 HD
ENDROOT
BRANCH   7  12
ATOM     12  C   UNL     1       5.227   4.044  17.204  0.00  0.00    +0.000 A 
ATOM     13  C   UNL     1       4.680   4.195  15.926  0.00  0.00    +0.000 A 
ATOM     14  C   UNL     1       5.479   4.623  14.866  0.00  0.00    +0.000 A 
ATOM     15  C   UNL     1       6.822   4.931  15.089  0.00  0.00    +0.000 A 
ATOM     16  C   UNL     1       7.361   4.852  16.372  0.00  0.00    +0.000 A 
ATOM     17  C   UNL     1       6.560   4.415  17.425  0.00  0.00    +0.000 A 
BRANCH  15  18
ATOM     18  C   UNL     1       7.651   5.315  13.996  0.00  0.00    +0.000 C 
ATOM     19  N   UNL     1       8.307   5.646  13.089  0.00  0.00    +0.000 NA
ENDBRANCH  15  18
ENDBRANCH   7  12
BRANCH   1  20
ATOM     20  O   UNL     1       2.792   7.363  20.253  0.00  0.00    +0.000 OA
BRANCH  20  29
ATOM     21  C   UNL     1       0.493   8.606  22.084  0.00  0.00    +0.000 C 
ATOM     22  C   UNL     1       0.753   8.805  20.620  0.00  0.00    +0.000 A 
ATOM     23  C   UNL     1      -0.210   9.631  19.998  0.00  0.00    +0.000 A 
ATOM     24  C   UNL     1      -0.151   9.925  18.649  0.00  0.00    +0.000 A 
ATOM     25 CL   UNL     1      -1.366  10.914  17.944  0.00  0.00    +0.000 Cl
ATOM     26  C   UNL     1       0.881   9.417  17.882  0.00  0.00    +0.000 A 
ATOM     27  C   UNL     1       1.870   8.597  18.465  0.00  0.00    +0.000 A 
ATOM     28  C   UNL     1       2.961   8.087  17.556  0.00  0.00    +0.000 C 
ATOM     29  C   UNL     1       1.826   8.283  19.856  0.00  0.00    +0.000 A 
ENDBRANCH  20  29
ENDBRANCH   1  20
TORSDOF 4
ENDMDL
MODEL 3
REMARK VINA RESULT:      -7.5      6.876     11.221
REMARK  Name = 
REMARK  6 active torsions:
REMARK  status: ('A' for Active; 'I' for Inactive)
REMARK    1  A    between atoms: C_1  and  C_2
REMARK    2  A    between atoms: C_7  and  C_8
REMARK    3  A    between atoms: C_9  and  O_10
REMARK    4  A    between atoms: O_10  and  C_11
REMARK    5  A    between atoms: N_17  and  C_18
REMARK    6  A    between atoms: C_21  and  C_22
REMARK                            x       y       z     vdW  Elec       q    Type
REMARK                         _______ _______ _______ _____ _____    ______ ____
ROOT
ATOM      1  C   UNL     1      -2.320  11.574  17.439  0.00  0.00    +0.000 A 
ATOM      2  N   UNL     1      -2.060  10.768  16.436  0.00  0.00    +0.000 NA
ATOM      3  C   UNL     1      -3.067  10.441  15.658  0.00  0.00    +0.000 A 
ATOM      4  N   UNL     1      -2.759   9.779  14.487  0.00  0.00    +0.000 N 
ATOM      5  N   UNL     1      -4.319  10.759  15.883  0.00  0.00    +0.000 NA
ATOM      6  C   UNL     1      -4.520  11.431  17.006  0.00  0.00    +0.000 A 
ATOM      7  N   UNL     1      -5.859  11.644  17.327  0.00  0.00    +0.000 N 
ATOM      8  N   UNL     1      -3.551  11.894  17.802  0.00  0.00    +0.000 NA
ATOM      9  H   UNL     1      -1.787   9.936  14.256  0.00  0.00    +0.000 HD
ATOM     10  H   UNL     1      -3.426  10.033  13.772  0.00  0.00    +0.000 HD
ATOM     11  H   UNL     1      -6.449  11.179  16.650  0.00  0.00    +0.000 HD
ENDROOT
BRANCH   7  12
ATOM     12  C   UNL     1      -6.405  11.728  18.614  0.00  0.00    +0.000 A 
ATOM     13  C   UNL     1      -6.441  12.975  19.247  0.00  0.00    +0.000 A 
ATOM     14  C   UNL     1      -6.857  13.075  20.574  0.00  0.00    +0.000 A 
ATOM     15  C   UNL     1      -7.268  11.933  21.263  0.00  0.00    +0.000 A 
ATOM     16  C   UNL     1      -7.303  10.696  20.620  0.00  0.00    +0.000 A 
ATOM     17  C   UNL     1      -6.877  10.600  19.297  0.00  0.00    +0.000 A 
BRANCH  15  18
ATOM     18  C   UNL     1      -7.640  12.028  22.635  0.00  0.00    +0.000 C 
ATOM     19  N   UNL     1      -7.917  12.118  23.765  0.00  0.00    +0.000 NA
ENDBRANCH  15  18
ENDBRANCH   7  12
BRANCH   1  20
ATOM     20  O   UNL     1      -1.297  11.953  18.304  0.00  0.00    +0.000 OA
BRANCH  20  29
ATOM     21  C   UNL     1      -2.689  12.902  21.014  0.00  0.00    +0.000 C 
ATOM     22  C   UNL     1      -1.676  11.818  20.796  0.00  0.00    +0.000 A 
ATOM     23  C   UNL     1      -1.278  11.187  21.995  0.00  0.00    +0.000 A 
ATOM     24  C   UNL     1      -0.343  10.169  22.005  0.00  0.00    +0.000 A 
ATOM     25 CL   UNL     1       0.120   9.459  23.500  0.00  0.00    +0.000 Cl
ATOM     26  C   UNL     1       0.212   9.739  20.815  0.00  0.00    +0.000 A 
ATOM     27  C   UNL     1      -0.164  10.334  19.592  0.00  0.00    +0.000 A 
ATOM     28  C   UNL     1       0.490   9.801  18.341  0.00  0.00    +0.000 C 
ATOM     29  C   UNL     1      -1.128  11.385  19.562  0.00  0.00    +0.000 A 
ENDBRANCH  20  29
ENDBRANCH   1  20
TORSDOF 4
ENDMDL
MODEL 4
REMARK VINA RESULT:      -7.3      2.534      4.070
REMARK  Name = 
REMARK  6 active torsions:
REMARK  status: ('A' for Active; 'I' for Inactive)
REMARK    1  A    between atoms: C_1  and  C_2
REMARK    2  A    between atoms: C_7  and  C_8
REMARK    3  A    between atoms: C_9  and  O_10
REMARK    4  A    between atoms: O_10  and  C_11
REMARK    5  A    between atoms: N_17  and  C_18
REMARK    6  A    between atoms: C_21  and  C_22
REMARK                            x       y       z     vdW  Elec       q    Type
REMARK                         _______ _______ _______ _____ _____    ______ ____
ROOT
ATOM      1  C   UNL     1       5.186   5.228  18.550  0.00  0.00    +0.000 A 
ATOM      2  N   UNL     1       6.055   5.161  19.532  0.00  0.00    +0.000 NA
ATOM      3  C   UNL     1       7.307   5.434  19.238  0.00  0.00    +0.000 A 
ATOM      4  N   UNL     1       8.176   5.579  20.300  0.00  0.00    +0.000 N 
ATOM      5  N   UNL     1       7.761   5.644  18.027  0.00  0.00    +0.000 NA
ATOM      6  C   UNL     1       6.851   5.529  17.072  0.00  0.00    +0.000 A 
ATOM      7  N   UNL     1       7.352   5.605  15.774  0.00  0.00    +0.000 N 
ATOM      8  N   UNL     1       5.542   5.357  17.283  0.00  0.00    +0.000 NA
ATOM      9  H   UNL     1       7.653   5.773  21.142  0.00  0.00    +0.000 HD
ATOM     10  H   UNL     1       8.888   6.256  20.060  0.00  0.00    +0.000 HD
ATOM     11  H   UNL     1       8.361   5.678  15.804  0.00  0.00    +0.000 HD
ENDROOT
BRANCH   7  12
ATOM     12  C   UNL     1       6.850   4.946  14.646  0.00  0.00    +0.000 A 
ATOM     13  C   UNL     1       5.594   4.335  14.730  0.00  0.00    +0.000 A 
ATOM     14  C   UNL     1       5.118   3.561  13.673  0.00  0.00    +0.000 A 
ATOM     15  C   UNL     1       5.884   3.420  12.514  0.00  0.00    +0.000 A 
ATOM     16  C   UNL     1       7.106   4.081  12.391  0.00  0.00    +0.000 A 
ATOM     17  C   UNL     1       7.580   4.846  13.455  0.00  0.00    +0.000 A 
BRANCH  15  18
ATOM     18  C   UNL     1       5.422   2.585  11.457  0.00  0.00    +0.000 C 
ATOM     19  N   UNL     1       5.066   1.880  10.598  0.00  0.00    +0.000 NA
ENDBRANCH  15  18
ENDBRANCH   7  12
BRANCH   1  20
ATOM     20  O   UNL     1       3.846   4.943  18.795  0.00  0.00    +0.000 OA
BRANCH  20  29
ATOM     21  C   UNL     1       3.366   7.846  17.560  0.00  0.00    +0.000 C 
ATOM     22  C   UNL     1       2.754   7.219  18.776  0.00  0.00    +0.000 A 
ATOM     23  C   UNL     1       1.883   8.091  19.466  0.00  0.00    +0.000 A 
ATOM     24  C   UNL     1       1.228   7.703  20.620  0.00  0.00    +0.000 A 
ATOM     25 CL   UNL     1       0.202   8.818  21.428  0.00  0.00    +0.000 Cl
ATOM     26  C   UNL     1       1.411   6.424  21.112  0.00  0.00    +0.000 A 
ATOM     27  C   UNL     1       2.264   5.516  20.449  0.00  0.00    +0.000 A 
ATOM     28  C   UNL     1       2.404   4.141  21.054  0.00  0.00    +0.000 C 
ATOM     29  C   UNL     1       2.947   5.900  19.257  0.00  0.00    +0.000 A 
ENDBRANCH  20  29
ENDBRANCH   1  20
TORSDOF 4
ENDMDL
MODEL 5
REMARK VINA RESULT:      -7.2      8.083     11.769
REMARK  Name = 
REMARK  6 active torsions:
REMARK  status: ('A' for Active; 'I' for Inactive)
REMARK    1  A    between atoms: C_1  and  C_2
REMARK    2  A    between atoms: C_7  and  C_8
REMARK    3  A    between atoms: C_9  and  O_10
REMARK    4  A    between atoms: O_10  and  C_11
REMARK    5  A    between atoms: N_17  and  C_18
REMARK    6  A    between atoms: C_21  and  C_22
REMARK                            x       y       z     vdW  Elec       q    Type
REMARK                         _______ _______ _______ _____ _____    ______ ____
ROOT
ATOM      1  C   UNL     1      -5.228  11.547  19.131  0.00  0.00    +0.000 A 
ATOM      2  N   UNL     1      -5.856  10.420  18.888  0.00  0.00    +0.000 NA
ATOM      3  C   UNL     1      -6.864  10.118  19.676  0.00  0.00    +0.000 A 
ATOM      4  N   UNL     1      -7.655   9.055  19.291  0.00  0.00    +0.000 N 
ATOM      5  N   UNL     1      -7.203  10.793  20.746  0.00  0.00    +0.000 NA
ATOM      6  C   UNL     1      -6.417  11.823  21.017  0.00  0.00    +0.000 A 
ATOM      7  N   UNL     1      -6.681  12.456  22.230  0.00  0.00    +0.000 N 
ATOM      8  N   UNL     1      -5.437  12.265  20.222  0.00  0.00    +0.000 NA
ATOM      9  H   UNL     1      -7.531   8.880  18.303  0.00  0.00    +0.000 HD
ATOM     10  H   UNL     1      -8.606   9.218  19.591  0.00  0.00    +0.000 HD
ATOM     11  H   UNL     1      -7.411  11.958  22.721  0.00  0.00    +0.000 HD
ENDROOT
BRANCH   7  12
ATOM     12  C   UNL     1      -5.748  13.089  23.060  0.00  0.00    +0.000 A 
ATOM     13  C   UNL     1      -5.635  14.483  23.002  0.00  0.00    +0.000 A 
ATOM     14  C   UNL     1      -4.631  15.135  23.716  0.00  0.00    +0.000 A 
ATOM     15  C   UNL     1      -3.756  14.399  24.516  0.00  0.00    +0.000 A 
ATOM     16  C   UNL     1      -3.903  13.018  24.638  0.00  0.00    +0.000 A 
ATOM     17  C   UNL     1      -4.902  12.371  23.914  0.00  0.00    +0.000 A 
BRANCH  15  18
ATOM     18  C   UNL     1      -2.697  15.061  25.202  0.00  0.00    +0.000 C 
ATOM     19  N   UNL     1      -1.835  15.585  25.789  0.00  0.00    +0.000 NA
ENDBRANCH  15  18
ENDBRANCH   7  12
BRANCH   1  20
ATOM     20  O   UNL     1      -4.148  11.920  18.337  0.00  0.00    +0.000 OA
BRANCH  20  29
ATOM     21  C   UNL     1      -2.092  12.675  20.659  0.00  0.00    +0.000 C 
ATOM     22  C   UNL     1      -1.908  11.756  19.489  0.00  0.00    +0.000 A 
ATOM     23  C   UNL     1      -0.609  11.204  19.422  0.00  0.00    +0.000 A 
ATOM     24  C   UNL     1      -0.237  10.340  18.410  0.00  0.00    +0.000 A 
ATOM     25 CL   UNL     1       1.366   9.723  18.369  0.00  0.00    +0.000 Cl
ATOM     26  C   UNL     1      -1.157   9.986  17.441  0.00  0.00    +0.000 A 
ATOM     27  C   UNL     1      -2.469  10.504  17.474  0.00  0.00    +0.000 A 
ATOM     28  C   UNL     1      -3.409  10.065  16.379  0.00  0.00    +0.000 C 
ATOM     29  C   UNL     1      -2.870  11.398  18.513  0.00  0.00    +0.000 A 
ENDBRANCH  20  29
ENDBRANCH   1  20
TORSDOF 4
ENDMDL
MODEL 6
REMARK VINA RESULT:      -7.1      3.392      5.222
REMARK  Name = 
REMARK  6 active torsions:
REMARK  status: ('A' for Active; 'I' for Inactive)
REMARK    1  A    between atoms: C_1  and  C_2
REMARK    2  A    between atoms: C_7  and  C_8
REMARK    3  A    between atoms: C_9  and  O_10
REMARK    4  A    between atoms: O_10  and  C_11
REMARK    5  A    between atoms: N_17  and  C_18
REMARK    6  A    between atoms: C_21  and  C_22
REMARK                            x       y       z     vdW  Elec       q    Type
REMARK                         _______ _______ _______ _____ _____    ______ ____
ROOT
ATOM      1  C   UNL     1       5.218   5.697  18.204  0.00  0.00    +0.000 A 
ATOM      2  N   UNL     1       6.048   5.592  19.217  0.00  0.00    +0.000 NA
ATOM      3  C   UNL     1       7.331   5.677  18.947  0.00  0.00    +0.000 A 
ATOM      4  N   UNL     1       8.186   5.787  20.024  0.00  0.00    +0.000 N 
ATOM      5  N   UNL     1       7.838   5.736  17.740  0.00  0.00    +0.000 NA
ATOM      6  C   UNL     1       6.944   5.668  16.766  0.00  0.00    +0.000 A 
ATOM      7  N   UNL     1       7.482   5.581  15.484  0.00  0.00    +0.000 N 
ATOM      8  N   UNL     1       5.619   5.683  16.944  0.00  0.00    +0.000 NA
ATOM      9  H   UNL     1       7.672   6.110  20.833  0.00  0.00    +0.000 HD
ATOM     10  H   UNL     1       8.986   6.346  19.762  0.00  0.00    +0.000 HD
ATOM     11  H   UNL     1       8.490   5.525  15.542  0.00  0.00    +0.000 HD
ENDROOT
BRANCH   7  12
ATOM     12  C   UNL     1       6.925   4.910  14.389  0.00  0.00    +0.000 A 
ATOM     13  C   UNL     1       5.670   4.308  14.539  0.00  0.00    +0.000 A 
ATOM     14  C   UNL     1       5.143   3.523  13.515  0.00  0.00    +0.000 A 
ATOM     15  C   UNL     1       5.853   3.362  12.324  0.00  0.00    +0.000 A 
ATOM     16  C   UNL     1       7.071   4.014  12.136  0.00  0.00    +0.000 A 
ATOM     17  C   UNL     1       7.598   4.789  13.167  0.00  0.00    +0.000 A 
BRANCH  15  18
ATOM     18  C   UNL     1       5.338   2.515  11.301  0.00  0.00    +0.000 C 
ATOM     19  N   UNL     1       4.889   1.835  10.466  0.00  0.00    +0.000 NA
ENDBRANCH  15  18
ENDBRANCH   7  12
BRANCH   1  20
ATOM     20  O   UNL     1       3.847   5.607  18.424  0.00  0.00    +0.000 OA
BRANCH  20  29
ATOM     21  C   UNL     1       4.259   2.445  18.535  0.00  0.00    +0.000 C 
ATOM     22  C   UNL     1       3.396   3.321  19.394  0.00  0.00    +0.000 A 
ATOM     23  C   UNL     1       2.643   2.593  20.341  0.00  0.00    +0.000 A 
ATOM     24  C   UNL     1       1.778   3.219  21.219  0.00  0.00    +0.000 A 
ATOM     25 CL   UNL     1       0.870   2.276  22.331  0.00  0.00    +0.000 Cl
ATOM     26  C   UNL     1       1.651   4.595  21.188  0.00  0.00    +0.000 A 
ATOM     27  C   UNL     1       2.392   5.363  20.265  0.00  0.00    +0.000 A 
ATOM     28  C   UNL     1       2.193   6.858  20.301  0.00  0.00    +0.000 C 
ATOM     29  C   UNL     1       3.290   4.733  19.352  0.00  0.00    +0.000 A 
ENDBRANCH  20  29
ENDBRANCH   1  20
TORSDOF 4
ENDMDL
MODEL 7
REMARK VINA RESULT:      -7.0      3.099      6.488
REMARK  Name = 
REMARK  6 active torsions:
REMARK  status: ('A' for Active; 'I' for Inactive)
REMARK    1  A    between atoms: C_1  and  C_2
REMARK    2  A    between atoms: C_7  and  C_8
REMARK    3  A    between atoms: C_9  and  O_10
REMARK    4  A    between atoms: O_10  and  C_11
REMARK    5  A    between atoms: N_17  and  C_18
REMARK    6  A    between atoms: C_21  and  C_22
REMARK                            x       y       z     vdW  Elec       q    Type
REMARK                         _______ _______ _______ _____ _____    ______ ____
ROOT
ATOM      1  C   UNL     1       5.100   4.128  18.506  0.00  0.00    +0.000 A 
ATOM      2  N   UNL     1       5.380   3.164  19.353  0.00  0.00    +0.000 NA
ATOM      3  C   UNL     1       4.437   2.827  20.204  0.00  0.00    +0.000 A 
ATOM      4  N   UNL     1       4.646   1.679  20.940  0.00  0.00    +0.000 N 
ATOM      5  N   UNL     1       3.298   3.460  20.347  0.00  0.00    +0.000 NA
ATOM      6  C   UNL     1       3.161   4.524  19.571  0.00  0.00    +0.000 A 
ATOM      7  N   UNL     1       2.022   5.286  19.819  0.00  0.00    +0.000 N 
ATOM      8  N   UNL     1       4.018   4.881  18.608  0.00  0.00    +0.000 NA
ATOM      9  H   UNL     1       5.338   1.103  20.480  0.00  0.00    +0.000 HD
ATOM     10  H   UNL     1       3.758   1.233  21.127  0.00  0.00    +0.000 HD
ATOM     11  H   UNL     1       1.524   4.903  20.612  0.00  0.00    +0.000 HD
ENDROOT
BRANCH   7  12
ATOM     12  C   UNL     1       1.895   6.671  19.666  0.00  0.00    +0.000 A 
ATOM     13  C   UNL     1       1.429   7.426  20.748  0.00  0.00    +0.000 A 
ATOM     14  C   UNL     1       1.167   8.787  20.593  0.00  0.00    +0.000 A 
ATOM     15  C   UNL     1       1.400   9.404  19.364  0.00  0.00    +0.000 A 
ATOM     16  C   UNL     1       1.931   8.678  18.298  0.00  0.00    +0.000 A 
ATOM     17  C   UNL     1       2.182   7.317  18.456  0.00  0.00    +0.000 A 
BRANCH  15  18
ATOM     18  C   UNL     1       1.081  10.782  19.191  0.00  0.00    +0.000 C 
ATOM     19  N   UNL     1       0.830  11.909  19.021  0.00  0.00    +0.000 NA
ENDBRANCH  15  18
ENDBRANCH   7  12
BRANCH   1  20
ATOM     20  O   UNL     1       6.059   4.535  17.583  0.00  0.00    +0.000 OA
BRANCH  20  29
ATOM     21  C   UNL     1       8.359   5.121  19.716  0.00  0.00    +0.000 C 
ATOM     22  C   UNL     1       7.756   6.038  18.694  0.00  0.00    +0.000 A 
ATOM     23  C   UNL     1       8.280   7.348  18.753  0.00  0.00    +0.000 A 
ATOM     24  C   UNL     1       7.845   8.344  17.899  0.00  0.00    +0.000 A 
ATOM     25 CL   UNL     1       8.502   9.925  18.036  0.00  0.00    +0.000 Cl
ATOM     26  C   UNL     1       6.882   8.057  16.948  0.00  0.00    +0.000 A 
ATOM     27  C   UNL     1       6.339   6.759  16.847  0.00  0.00    +0.000 A 
ATOM     28  C   UNL     1       5.296   6.534  15.782  0.00  0.00    +0.000 C 
ATOM     29  C   UNL     1       6.778   5.719  17.720  0.00  0.00    +0.000 A 
ENDBRANCH  20  29
ENDBRANCH   1  20
TORSDOF 4
ENDMDL
MODEL 8
REMARK VINA RESULT:      -7.0      8.269     11.792
REMARK  Name = 
REMARK  6 active torsions:
REMARK  status: ('A' for Active; 'I' for Inactive)
REMARK    1  A    between atoms: C_1  and  C_2
REMARK    2  A    between atoms: C_7  and  C_8
REMARK    3  A    between atoms: C_9  and  O_10
REMARK    4  A    between atoms: O_10  and  C_11
REMARK    5  A    between atoms: N_17  and  C_18
REMARK    6  A    between atoms: C_21  and  C_22
REMARK                            x       y       z     vdW  Elec       q    Type
REMARK                         _______ _______ _______ _____ _____    ______ ____
ROOT
ATOM      1  C   UNL     1      -5.398  11.743  19.120  0.00  0.00    +0.000 A 
ATOM      2  N   UNL     1      -5.950  10.583  18.847  0.00  0.00    +0.000 NA
ATOM      3  C   UNL     1      -6.887  10.162  19.668  0.00  0.00    +0.000 A 
ATOM      4  N   UNL     1      -7.615   9.062  19.266  0.00  0.00    +0.000 N 
ATOM      5  N   UNL     1      -7.216  10.752  20.791  0.00  0.00    +0.000 NA
ATOM      6  C   UNL     1      -6.496  11.825  21.078  0.00  0.00    +0.000 A 
ATOM      7  N   UNL     1      -6.738  12.371  22.337  0.00  0.00    +0.000 N 
ATOM      8  N   UNL     1      -5.598  12.383  20.260  0.00  0.00    +0.000 NA
ATOM      9  H   UNL     1      -7.534   8.949  18.265  0.00  0.00    +0.000 HD
ATOM     10  H   UNL     1      -8.558   9.134  19.624  0.00  0.00    +0.000 HD
ATOM     11  H   UNL     1      -7.399  11.792  22.837  0.00  0.00    +0.000 HD
ENDROOT
BRANCH   7  12
ATOM     12  C   UNL     1      -5.811  13.032  23.152  0.00  0.00    +0.000 A 
ATOM     13  C   UNL     1      -5.790  14.431  23.146  0.00  0.00    +0.000 A 
ATOM     14  C   UNL     1      -4.798  15.120  23.843  0.00  0.00    +0.000 A 
ATOM     15  C   UNL     1      -3.842  14.412  24.574  0.00  0.00    +0.000 A 
ATOM     16  C   UNL     1      -3.896  13.021  24.645  0.00  0.00    +0.000 A 
ATOM     17  C   UNL     1      -4.883  12.338  23.939  0.00  0.00    +0.000 A 
BRANCH  15  18
ATOM     18  C   UNL     1      -2.797  15.115  25.240  0.00  0.00    +0.000 C 
ATOM     19  N   UNL     1      -1.926  15.693  25.759  0.00  0.00    +0.000 NA
ENDBRANCH  15  18
ENDBRANCH   7  12
BRANCH   1  20
ATOM     20  O   UNL     1      -4.395  12.241  18.293  0.00  0.00    +0.000 OA
BRANCH  20  29
ATOM     21  C   UNL     1      -3.658  10.111  16.034  0.00  0.00    +0.000 C 
ATOM     22  C   UNL     1      -2.828  10.604  17.181  0.00  0.00    +0.000 A 
ATOM     23  C   UNL     1      -1.566   9.975  17.257  0.00  0.00    +0.000 A 
ATOM     24  C   UNL     1      -0.658  10.285  18.252  0.00  0.00    +0.000 A 
ATOM     25 CL   UNL     1       0.851   9.465  18.308  0.00  0.00    +0.000 Cl
ATOM     26  C   UNL     1      -0.977  11.246  19.194  0.00  0.00    +0.000 A 
ATOM     27  C   UNL     1      -2.222  11.908  19.149  0.00  0.00    +0.000 A 
ATOM     28  C   UNL     1      -2.486  12.944  20.213  0.00  0.00    +0.000 C 
ATOM     29  C   UNL     1      -3.171  11.601  18.128  0.00  0.00    +0.000 A 
ENDBRANCH  20  29
ENDBRANCH   1  20
TORSDOF 4
ENDMDL
MODEL 9
REMARK VINA RESULT:      -7.0      3.920      6.486
REMARK  Name = 
REMARK  6 active torsions:
REMARK  status: ('A' for Active; 'I' for Inactive)
REMARK    1  A    between atoms: C_1  and  C_2
REMARK    2  A    between atoms: C_7  and  C_8
REMARK    3  A    between atoms: C_9  and  O_10
REMARK    4  A    between atoms: O_10  and  C_11
REMARK    5  A    between atoms: N_17  and  C_18
REMARK    6  A    between atoms: C_21  and  C_22
REMARK                            x       y       z     vdW  Elec       q    Type
REMARK                         _______ _______ _______ _____ _____    ______ ____
ROOT
ATOM      1  C   UNL     1       0.114  10.850  18.900  0.00  0.00    +0.000 A 
ATOM      2  N   UNL     1       0.817  11.940  18.695  0.00  0.00    +0.000 NA
ATOM      3  C   UNL     1       1.949  11.805  18.040  0.00  0.00    +0.000 A 
ATOM      4  N   UNL     1       2.574  12.966  17.636  0.00  0.00    +0.000 N 
ATOM      5  N   UNL     1       2.476  10.658  17.689  0.00  0.00    +0.000 NA
ATOM      6  C   UNL     1       1.789   9.596  18.079  0.00  0.00    +0.000 A 
ATOM      7  N   UNL     1       2.415   8.374  17.841  0.00  0.00    +0.000 N 
ATOM      8  N   UNL     1       0.583   9.637  18.657  0.00  0.00    +0.000 NA
ATOM      9  H   UNL     1       1.906  13.724  17.623  0.00  0.00    +0.000 HD
ATOM     10  H   UNL     1       3.064  12.799  16.768  0.00  0.00    +0.000 HD
ATOM     11  H   UNL     1       3.335   8.535  17.454  0.00  0.00    +0.000 HD
ENDROOT
BRANCH   7  12
ATOM     12  C   UNL     1       2.304   7.215  18.617  0.00  0.00    +0.000 A 
ATOM     13  C   UNL     1       2.350   5.971  17.977  0.00  0.00    +0.000 A 
ATOM     14  C   UNL     1       2.114   4.802  18.698  0.00  0.00    +0.000 A 
ATOM     15  C   UNL     1       1.861   4.869  20.069  0.00  0.00    +0.000 A 
ATOM     16  C   UNL     1       1.882   6.096  20.731  0.00  0.00    +0.000 A 
ATOM     17  C   UNL     1       2.109   7.262  20.003  0.00  0.00    +0.000 A 
BRANCH  15  18
ATOM     18  C   UNL     1       1.565   3.679  20.794  0.00  0.00    +0.000 C 
ATOM     19  N   UNL     1       1.305   2.720  21.406  0.00  0.00    +0.000 NA
ENDBRANCH  15  18
ENDBRANCH   7  12
BRANCH   1  20
ATOM     20  O   UNL     1      -1.090  10.925  19.593  0.00  0.00    +0.000 OA
BRANCH  20  29
ATOM     21  C   UNL     1      -2.018   9.752  16.774  0.00  0.00    +0.000 C 
ATOM     22  C   UNL     1      -2.727  10.710  17.684  0.00  0.00    +0.000 A 
ATOM     23  C   UNL     1      -3.955  11.165  17.155  0.00  0.00    +0.000 A 
ATOM     24  C   UNL     1      -4.754  12.062  17.839  0.00  0.00    +0.000 A 
ATOM     25 CL   UNL     1      -6.225  12.598  17.130  0.00  0.00    +0.000 Cl
ATOM     26  C   UNL     1      -4.358  12.521  19.081  0.00  0.00    +0.000 A 
ATOM     27  C   UNL     1      -3.144  12.084  19.653  0.00  0.00    +0.000 A 
ATOM     28  C   UNL     1      -2.790  12.634  21.012  0.00  0.00    +0.000 C 
ATOM     29  C   UNL     1      -2.308  11.158  18.961  0.00  0.00    +0.000 A 
ENDBRANCH  20  29
ENDBRANCH   1  20
TORSDOF 4
ENDMDL
