MODEL 1
REMARK VINA RESULT:      -6.3      0.000      0.000
REMARK  Name = 
REMARK  1 active torsions:
REMARK  status: ('A' for Active; 'I' for Inactive)
REMARK    1  A    between atoms: C_2  and  N_5
REMARK                            x       y       z     vdW  Elec       q    Type
REMARK                         _______ _______ _______ _____ _____    ______ ____
ROOT
ATOM      1  N   UNL     1       2.589   3.430  19.997  0.00  0.00    +0.000 N 
ATOM      2  C   UNL     1       3.550   2.529  20.357  0.00  0.00    +0.000 A 
ATOM      3  N   UNL     1       4.714   2.826  19.827  0.00  0.00    +0.000 NA
ATOM      4  C   UNL     1       4.498   3.970  19.097  0.00  0.00    +0.000 A 
ATOM      5  C   UNL     1       5.397   4.718  18.323  0.00  0.00    +0.000 A 
ATOM      6  C   UNL     1       4.929   5.862  17.666  0.00  0.00    +0.000 A 
ATOM      7  C   UNL     1       3.593   6.255  17.779  0.00  0.00    +0.000 A 
ATOM      8  C   UNL     1       2.680   5.520  18.545  0.00  0.00    +0.000 A 
ATOM      9  C   UNL     1       3.170   4.378  19.190  0.00  0.00    +0.000 A 
ENDROOT
BRANCH   1  11
ATOM     10  F   UNL     1       0.411   2.835  19.434  0.00  0.00    +0.000 F 
ATOM     11  C   UNL     1       1.201   3.369  20.400  0.00  0.00    +0.000 C 
ATOM     12  F   UNL     1       0.707   4.602  20.679  0.00  0.00    +0.000 F 
ATOM     13  F   UNL     1       1.036   2.609  21.513  0.00  0.00    +0.000 F 
ENDBRANCH   1  11
TORSDOF 1
ENDMDL
MODEL 2
REMARK VINA RESULT:      -6.3      1.344      1.765
REMARK  Name = 
REMARK  1 active torsions:
REMARK  status: ('A' for Active; 'I' for Inactive)
REMARK    1  A    between atoms: C_2  and  N_5
REMARK                            x       y       z     vdW  Elec       q    Type
REMARK                         _______ _______ _______ _____ _____    ______ ____
ROOT
ATOM      1  N   UNL     1       2.268   3.304  19.623  0.00  0.00    +0.000 N 
ATOM      2  C   UNL     1       2.346   2.052  19.087  0.00  0.00    +0.000 A 
ATOM      3  N   UNL     1       3.077   2.038  17.995  0.00  0.00    +0.000 NA
ATOM      4  C   UNL     1       3.490   3.336  17.821  0.00  0.00    +0.000 A 
ATOM      5  C   UNL     1       4.290   3.891  16.810  0.00  0.00    +0.000 A 
ATOM      6  C   UNL     1       4.577   5.260  16.854  0.00  0.00    +0.000 A 
ATOM      7  C   UNL     1       4.079   6.062  17.885  0.00  0.00    +0.000 A 
ATOM      8  C   UNL     1       3.278   5.528  18.901  0.00  0.00    +0.000 A 
ATOM      9  C   UNL     1       3.002   4.157  18.834  0.00  0.00    +0.000 A 
ENDROOT
BRANCH   1  11
ATOM     10  F   UNL     1       2.314   4.194  21.773  0.00  0.00    +0.000 F 
ATOM     11  C   UNL     1       1.522   3.653  20.813  0.00  0.00    +0.000 C 
ATOM     12  F   UNL     1       0.921   2.567  21.362  0.00  0.00    +0.000 F 
ATOM     13  F   UNL     1       0.547   4.559  20.545  0.00  0.00    +0.000 F 
ENDBRANCH   1  11
TORSDOF 1
ENDMDL
MODEL 3
REMARK VINA RESULT:      -6.3      0.048      1.045
REMARK  Name = 
REMARK  1 active torsions:
REMARK  status: ('A' for Active; 'I' for Inactive)
REMARK    1  A    between atoms: C_2  and  N_5
REMARK                            x       y       z     vdW  Elec       q    Type
REMARK                         _______ _______ _______ _____ _____    ______ ____
ROOT
ATOM      1  N   UNL     1       2.585   3.424  19.970  0.00  0.00    +0.000 N 
ATOM      2  C   UNL     1       3.554   2.531  20.328  0.00  0.00    +0.000 A 
ATOM      3  N   UNL     1       4.719   2.849  19.812  0.00  0.00    +0.000 NA
ATOM      4  C   UNL     1       4.495   3.999  19.095  0.00  0.00    +0.000 A 
ATOM      5  C   UNL     1       5.391   4.769  18.339  0.00  0.00    +0.000 A 
ATOM      6  C   UNL     1       4.915   5.916  17.692  0.00  0.00    +0.000 A 
ATOM      7  C   UNL     1       3.573   6.290  17.798  0.00  0.00    +0.000 A 
ATOM      8  C   UNL     1       2.662   5.534  18.546  0.00  0.00    +0.000 A 
ATOM      9  C   UNL     1       3.161   4.390  19.180  0.00  0.00    +0.000 A 
ENDROOT
BRANCH   1  11
ATOM     10  F   UNL     1       0.662   4.561  20.623  0.00  0.00    +0.000 F 
ATOM     11  C   UNL     1       1.195   3.340  20.359  0.00  0.00    +0.000 C 
ATOM     12  F   UNL     1       1.032   2.588  21.477  0.00  0.00    +0.000 F 
ATOM     13  F   UNL     1       0.435   2.779  19.384  0.00  0.00    +0.000 F 
ENDBRANCH   1  11
TORSDOF 1
ENDMDL
MODEL 4
REMARK VINA RESULT:      -6.3      0.033      1.051
REMARK  Name = 
REMARK  1 active torsions:
REMARK  status: ('A' for Active; 'I' for Inactive)
REMARK    1  A    between atoms: C_2  and  N_5
REMARK                            x       y       z     vdW  Elec       q    Type
REMARK                         _______ _______ _______ _____ _____    ______ ____
ROOT
ATOM      1  N   UNL     1       2.590   3.438  19.985  0.00  0.00    +0.000 N 
ATOM      2  C   UNL     1       3.556   2.540  20.339  0.00  0.00    +0.000 A 
ATOM      3  N   UNL     1       4.720   2.851  19.815  0.00  0.00    +0.000 NA
ATOM      4  C   UNL     1       4.498   4.000  19.096  0.00  0.00    +0.000 A 
ATOM      5  C   UNL     1       5.393   4.764  18.332  0.00  0.00    +0.000 A 
ATOM      6  C   UNL     1       4.919   5.911  17.686  0.00  0.00    +0.000 A 
ATOM      7  C   UNL     1       3.580   6.292  17.799  0.00  0.00    +0.000 A 
ATOM      8  C   UNL     1       2.670   5.543  18.554  0.00  0.00    +0.000 A 
ATOM      9  C   UNL     1       3.166   4.399  19.189  0.00  0.00    +0.000 A 
ENDROOT
BRANCH   1  11
ATOM     10  F   UNL     1       1.028   2.605  21.496  0.00  0.00    +0.000 F 
ATOM     11  C   UNL     1       1.202   3.362  20.383  0.00  0.00    +0.000 C 
ATOM     12  F   UNL     1       0.431   2.815  19.408  0.00  0.00    +0.000 F 
ATOM     13  F   UNL     1       0.692   4.591  20.655  0.00  0.00    +0.000 F 
ENDBRANCH   1  11
TORSDOF 1
ENDMDL
MODEL 5
REMARK VINA RESULT:      -6.3      1.321      1.449
REMARK  Name = 
REMARK  1 active torsions:
REMARK  status: ('A' for Active; 'I' for Inactive)
REMARK    1  A    between atoms: C_2  and  N_5
REMARK                            x       y       z     vdW  Elec       q    Type
REMARK                         _______ _______ _______ _____ _____    ______ ____
ROOT
ATOM      1  N   UNL     1       2.292   3.349  19.624  0.00  0.00    +0.000 N 
ATOM      2  C   UNL     1       2.400   2.091  19.105  0.00  0.00    +0.000 A 
ATOM      3  N   UNL     1       3.136   2.078  18.017  0.00  0.00    +0.000 NA
ATOM      4  C   UNL     1       3.524   3.383  17.827  0.00  0.00    +0.000 A 
ATOM      5  C   UNL     1       4.317   3.941  16.814  0.00  0.00    +0.000 A 
ATOM      6  C   UNL     1       4.575   5.316  16.841  0.00  0.00    +0.000 A 
ATOM      7  C   UNL     1       4.055   6.121  17.859  0.00  0.00    +0.000 A 
ATOM      8  C   UNL     1       3.260   5.584  18.878  0.00  0.00    +0.000 A 
ATOM      9  C   UNL     1       3.013   4.206  18.828  0.00  0.00    +0.000 A 
ENDROOT
BRANCH   1  11
ATOM     10  F   UNL     1       0.556   4.602  20.538  0.00  0.00    +0.000 F 
ATOM     11  C   UNL     1       1.533   3.697  20.805  0.00  0.00    +0.000 C 
ATOM     12  F   UNL     1       2.323   4.241  21.765  0.00  0.00    +0.000 F 
ATOM     13  F   UNL     1       0.929   2.610  21.350  0.00  0.00    +0.000 F 
ENDBRANCH   1  11
TORSDOF 1
ENDMDL
MODEL 6
REMARK VINA RESULT:      -6.3      1.320      1.450
REMARK  Name = 
REMARK  1 active torsions:
REMARK  status: ('A' for Active; 'I' for Inactive)
REMARK    1  A    between atoms: C_2  and  N_5
REMARK                            x       y       z     vdW  Elec       q    Type
REMARK                         _______ _______ _______ _____ _____    ______ ____
ROOT
ATOM      1  N   UNL     1       2.291   3.310  19.635  0.00  0.00    +0.000 N 
ATOM      2  C   UNL     1       2.409   2.052  19.116  0.00  0.00    +0.000 A 
ATOM      3  N   UNL     1       3.148   2.044  18.030  0.00  0.00    +0.000 NA
ATOM      4  C   UNL     1       3.527   3.351  17.841  0.00  0.00    +0.000 A 
ATOM      5  C   UNL     1       4.319   3.914  16.830  0.00  0.00    +0.000 A 
ATOM      6  C   UNL     1       4.568   5.291  16.857  0.00  0.00    +0.000 A 
ATOM      7  C   UNL     1       4.040   6.093  17.873  0.00  0.00    +0.000 A 
ATOM      8  C   UNL     1       3.246   5.550  18.891  0.00  0.00    +0.000 A 
ATOM      9  C   UNL     1       3.008   4.172  18.840  0.00  0.00    +0.000 A 
ENDROOT
BRANCH   1  11
ATOM     10  F   UNL     1       0.937   2.567  21.376  0.00  0.00    +0.000 F 
ATOM     11  C   UNL     1       1.527   3.653  20.814  0.00  0.00    +0.000 C 
ATOM     12  F   UNL     1       0.538   4.537  20.529  0.00  0.00    +0.000 F 
ATOM     13  F   UNL     1       2.309   4.219  21.769  0.00  0.00    +0.000 F 
ENDBRANCH   1  11
TORSDOF 1
ENDMDL
MODEL 7
REMARK VINA RESULT:      -6.1      2.243      3.061
REMARK  Name = 
REMARK  1 active torsions:
REMARK  status: ('A' for Active; 'I' for Inactive)
REMARK    1  A    between atoms: C_2  and  N_5
REMARK                            x       y       z     vdW  Elec       q    Type
REMARK                         _______ _______ _______ _____ _____    ______ ____
ROOT
ATOM      1  N   UNL     1       3.978   3.774  18.148  0.00  0.00    +0.000 N 
ATOM      2  C   UNL     1       4.596   3.895  19.359  0.00  0.00    +0.000 A 
ATOM      3  N   UNL     1       5.853   4.254  19.227  0.00  0.00    +0.000 NA
ATOM      4  C   UNL     1       6.054   4.373  17.873  0.00  0.00    +0.000 A 
ATOM      5  C   UNL     1       7.216   4.727  17.171  0.00  0.00    +0.000 A 
ATOM      6  C   UNL     1       7.167   4.781  15.773  0.00  0.00    +0.000 A 
ATOM      7  C   UNL     1       5.985   4.491  15.087  0.00  0.00    +0.000 A 
ATOM      8  C   UNL     1       4.816   4.134  15.770  0.00  0.00    +0.000 A 
ATOM      9  C   UNL     1       4.890   4.084  17.167  0.00  0.00    +0.000 A 
ENDROOT
BRANCH   1  11
ATOM     10  F   UNL     1       1.960   3.162  19.132  0.00  0.00    +0.000 F 
ATOM     11  C   UNL     1       2.601   3.375  17.955  0.00  0.00    +0.000 C 
ATOM     12  F   UNL     1       2.510   2.224  17.241  0.00  0.00    +0.000 F 
ATOM     13  F   UNL     1       1.896   4.321  17.284  0.00  0.00    +0.000 F 
ENDBRANCH   1  11
TORSDOF 1
ENDMDL
MODEL 8
REMARK VINA RESULT:      -6.1      2.238      2.851
REMARK  Name = 
REMARK  1 active torsions:
REMARK  status: ('A' for Active; 'I' for Inactive)
REMARK    1  A    between atoms: C_2  and  N_5
REMARK                            x       y       z     vdW  Elec       q    Type
REMARK                         _______ _______ _______ _____ _____    ______ ____
ROOT
ATOM      1  N   UNL     1       3.976   3.760  18.149  0.00  0.00    +0.000 N 
ATOM      2  C   UNL     1       4.602   3.874  19.356  0.00  0.00    +0.000 A 
ATOM      3  N   UNL     1       5.858   4.235  19.218  0.00  0.00    +0.000 NA
ATOM      4  C   UNL     1       6.050   4.365  17.864  0.00  0.00    +0.000 A 
ATOM      5  C   UNL     1       7.206   4.725  17.156  0.00  0.00    +0.000 A 
ATOM      6  C   UNL     1       7.147   4.789  15.759  0.00  0.00    +0.000 A 
ATOM      7  C   UNL     1       5.960   4.502  15.080  0.00  0.00    +0.000 A 
ATOM      8  C   UNL     1       4.797   4.139  15.767  0.00  0.00    +0.000 A 
ATOM      9  C   UNL     1       4.880   4.078  17.164  0.00  0.00    +0.000 A 
ENDROOT
BRANCH   1  11
ATOM     10  F   UNL     1       2.491   2.216  17.240  0.00  0.00    +0.000 F 
ATOM     11  C   UNL     1       2.599   3.360  17.962  0.00  0.00    +0.000 C 
ATOM     12  F   UNL     1       1.886   4.311  17.306  0.00  0.00    +0.000 F 
ATOM     13  F   UNL     1       1.977   3.141  19.149  0.00  0.00    +0.000 F 
ENDBRANCH   1  11
TORSDOF 1
ENDMDL
MODEL 9
REMARK VINA RESULT:      -6.1      2.265      2.985
REMARK  Name = 
REMARK  1 active torsions:
REMARK  status: ('A' for Active; 'I' for Inactive)
REMARK    1  A    between atoms: C_2  and  N_5
REMARK                            x       y       z     vdW  Elec       q    Type
REMARK                         _______ _______ _______ _____ _____    ______ ____
ROOT
ATOM      1  N   UNL     1       3.970   4.015  18.126  0.00  0.00    +0.000 N 
ATOM      2  C   UNL     1       4.601   4.061  19.335  0.00  0.00    +0.000 A 
ATOM      3  N   UNL     1       5.884   4.309  19.202  0.00  0.00    +0.000 NA
ATOM      4  C   UNL     1       6.090   4.432  17.849  0.00  0.00    +0.000 A 
ATOM      5  C   UNL     1       7.275   4.693  17.146  0.00  0.00    +0.000 A 
ATOM      6  C   UNL     1       7.226   4.775  15.750  0.00  0.00    +0.000 A 
ATOM      7  C   UNL     1       6.020   4.602  15.066  0.00  0.00    +0.000 A 
ATOM      8  C   UNL     1       4.826   4.340  15.749  0.00  0.00    +0.000 A 
ATOM      9  C   UNL     1       4.901   4.259  17.145  0.00  0.00    +0.000 A 
ENDROOT
BRANCH   1  11
ATOM     10  F   UNL     1       1.893   4.821  17.451  0.00  0.00    +0.000 F 
ATOM     11  C   UNL     1       2.562   3.743  17.934  0.00  0.00    +0.000 C 
ATOM     12  F   UNL     1       1.957   3.391  19.097  0.00  0.00    +0.000 F 
ATOM     13  F   UNL     1       2.364   2.727  17.055  0.00  0.00    +0.000 F 
ENDBRANCH   1  11
TORSDOF 1
ENDMDL
