MODEL 1
REMARK VINA RESULT:      -7.1      0.000      0.000
REMARK  Name = 
REMARK  2 active torsions:
REMARK  status: ('A' for Active; 'I' for Inactive)
REMARK    1  A    between atoms: C_2  and  C_3
REMARK    2  A    between atoms: C_23  and  C_24
REMARK                            x       y       z     vdW  Elec       q    Type
REMARK                         _______ _______ _______ _____ _____    ______ ____
ROOT
ATOM      1  O   UNL     1      -3.081  11.702  23.288  0.00  0.00    +0.000 OA
ATOM      2  C   UNL     1      -3.109  12.820  22.779  0.00  0.00    +0.000 C 
ATOM      3  N   UNL     1      -2.272  13.162  21.732  0.00  0.00    +0.000 N 
ATOM      4  C   UNL     1      -2.180  14.487  21.084  0.00  0.00    +0.000 C 
ATOM      5  C   UNL     1      -0.796  15.140  21.241  0.00  0.00    +0.000 C 
ATOM      6  N   UNL     1       0.283  14.190  20.983  0.00  0.00    +0.000 N 
ATOM      7  C   UNL     1       1.191  14.403  19.985  0.00  0.00    +0.000 A 
ATOM      8  N   UNL     1       1.113  15.539  19.262  0.00  0.00    +0.000 NA
ATOM      9  C   UNL     1       2.035  15.741  18.301  0.00  0.00    +0.000 A 
ATOM     10  C   UNL     1       3.043  14.856  18.024  0.00  0.00    +0.000 A 
ATOM     11  F   UNL     1       3.944  15.080  17.069  0.00  0.00    +0.000 F 
ATOM     12  C   UNL     1       3.062  13.730  18.797  0.00  0.00    +0.000 A 
ATOM     13  N   UNL     1       2.153  13.482  19.773  0.00  0.00    +0.000 NA
ATOM     14  C   UNL     1       0.181  12.878  21.641  0.00  0.00    +0.000 C 
ATOM     15  C   UNL     1      -1.193  12.203  21.338  0.00  0.00    +0.000 C 
ENDROOT
BRANCH   2  16
ATOM     16  C   UNL     1      -4.128  13.856  23.277  0.00  0.00    +0.000 C 
ATOM     17  C   UNL     1      -4.614  13.576  24.712  0.00  0.00    +0.000 C 
ATOM     18  C   UNL     1      -5.518  12.362  24.869  0.00  0.00    +0.000 C 
ATOM     19  S   UNL     1      -6.961  12.488  23.842  0.00  0.00    +0.000 S 
ATOM     20  O   UNL     1      -7.581  11.179  23.769  0.00  0.00    +0.000 OA
ATOM     21  O   UNL     1      -7.720  13.645  24.278  0.00  0.00    +0.000 OA
ATOM     22  C   UNL     1      -6.267  12.859  22.247  0.00  0.00    +0.000 C 
ATOM     23  C   UNL     1      -5.292  14.029  22.290  0.00  0.00    +0.000 C 
ENDBRANCH   2  16
BRANCH  15  24
ATOM     24  C   UNL     1      -1.369  11.664  19.912  0.00  0.00    +0.000 A 
ATOM     25  C   UNL     1      -0.439  10.777  19.338  0.00  0.00    +0.000 A 
ATOM     26  C   UNL     1      -0.611  10.269  18.045  0.00  0.00    +0.000 A 
ATOM     27  C   UNL     1      -1.733  10.623  17.305  0.00  0.00    +0.000 A 
ATOM     28  C   UNL     1      -2.678  11.465  17.871  0.00  0.00    +0.000 A 
ATOM     29  F   UNL     1      -3.769  11.800  17.168  0.00  0.00    +0.000 F 
ATOM     30  C   UNL     1      -2.516  11.970  19.159  0.00  0.00    +0.000 A 
ENDBRANCH  15  24
TORSDOF 2
ENDMDL
MODEL 2
REMARK VINA RESULT:      -7.1      0.932      1.277
REMARK  Name = 
REMARK  2 active torsions:
REMARK  status: ('A' for Active; 'I' for Inactive)
REMARK    1  A    between atoms: C_2  and  C_3
REMARK    2  A    between atoms: C_23  and  C_24
REMARK                            x       y       z     vdW  Elec       q    Type
REMARK                         _______ _______ _______ _____ _____    ______ ____
ROOT
ATOM      1  O   UNL     1      -3.202  11.790  23.262  0.00  0.00    +0.000 OA
ATOM      2  C   UNL     1      -3.242  12.872  22.682  0.00  0.00    +0.000 C 
ATOM      3  N   UNL     1      -2.371  13.175  21.650  0.00  0.00    +0.000 N 
ATOM      4  C   UNL     1      -2.291  14.460  20.923  0.00  0.00    +0.000 C 
ATOM      5  C   UNL     1      -0.935  15.167  21.095  0.00  0.00    +0.000 C 
ATOM      6  N   UNL     1       0.182  14.238  20.943  0.00  0.00    +0.000 N 
ATOM      7  C   UNL     1       1.125  14.418  19.971  0.00  0.00    +0.000 A 
ATOM      8  N   UNL     1       1.044  15.504  19.175  0.00  0.00    +0.000 NA
ATOM      9  C   UNL     1       2.000  15.675  18.241  0.00  0.00    +0.000 A 
ATOM     10  C   UNL     1       3.045  14.809  18.063  0.00  0.00    +0.000 A 
ATOM     11  F   UNL     1       3.980  15.002  17.134  0.00  0.00    +0.000 F 
ATOM     12  C   UNL     1       3.065  13.734  18.906  0.00  0.00    +0.000 A 
ATOM     13  N   UNL     1       2.122  13.518  19.858  0.00  0.00    +0.000 NA
ATOM     14  C   UNL     1       0.091  12.967  21.678  0.00  0.00    +0.000 C 
ATOM     15  C   UNL     1      -1.248  12.230  21.363  0.00  0.00    +0.000 C 
ENDROOT
BRANCH   2  16
ATOM     16  C   UNL     1      -4.311  13.903  23.071  0.00  0.00    +0.000 C 
ATOM     17  C   UNL     1      -4.821  13.722  24.513  0.00  0.00    +0.000 C 
ATOM     18  C   UNL     1      -5.681  12.490  24.752  0.00  0.00    +0.000 C 
ATOM     19  S   UNL     1      -7.102  12.472  23.687  0.00  0.00    +0.000 S 
ATOM     20  O   UNL     1      -7.669  11.138  23.710  0.00  0.00    +0.000 OA
ATOM     21  O   UNL     1      -7.916  13.630  24.010  0.00  0.00    +0.000 OA
ATOM     22  C   UNL     1      -6.385  12.739  22.082  0.00  0.00    +0.000 C 
ATOM     23  C   UNL     1      -5.457  13.947  22.048  0.00  0.00    +0.000 C 
ENDBRANCH   2  16
BRANCH  15  24
ATOM     24  C   UNL     1      -1.345  11.598  19.967  0.00  0.00    +0.000 A 
ATOM     25  C   UNL     1      -2.411  11.891  19.097  0.00  0.00    +0.000 A 
ATOM     26  C   UNL     1      -2.489  11.332  17.816  0.00  0.00    +0.000 A 
ATOM     27  C   UNL     1      -1.484  10.481  17.370  0.00  0.00    +0.000 A 
ATOM     28  C   UNL     1      -0.406  10.214  18.201  0.00  0.00    +0.000 A 
ATOM     29  F   UNL     1       0.573   9.404  17.772  0.00  0.00    +0.000 F 
ATOM     30  C   UNL     1      -0.321  10.771  19.474  0.00  0.00    +0.000 A 
ENDBRANCH  15  24
TORSDOF 2
ENDMDL
MODEL 3
REMARK VINA RESULT:      -7.0      9.491     11.012
REMARK  Name = 
REMARK  2 active torsions:
REMARK  status: ('A' for Active; 'I' for Inactive)
REMARK    1  A    between atoms: C_2  and  C_3
REMARK    2  A    between atoms: C_23  and  C_24
REMARK                            x       y       z     vdW  Elec       q    Type
REMARK                         _______ _______ _______ _____ _____    ______ ____
ROOT
ATOM      1  O   UNL     1       8.599  12.123  24.175  0.00  0.00    +0.000 OA
ATOM      2  C   UNL     1       7.790  12.705  23.457  0.00  0.00    +0.000 C 
ATOM      3  N   UNL     1       8.184  13.365  22.306  0.00  0.00    +0.000 N 
ATOM      4  C   UNL     1       7.311  14.142  21.402  0.00  0.00    +0.000 C 
ATOM      5  C   UNL     1       7.692  15.631  21.329  0.00  0.00    +0.000 C 
ATOM      6  N   UNL     1       9.134  15.814  21.191  0.00  0.00    +0.000 N 
ATOM      7  C   UNL     1       9.666  16.456  20.109  0.00  0.00    +0.000 A 
ATOM      8  N   UNL     1       8.834  16.973  19.181  0.00  0.00    +0.000 NA
ATOM      9  C   UNL     1       9.381  17.626  18.137  0.00  0.00    +0.000 A 
ATOM     10  C   UNL     1      10.729  17.792  17.973  0.00  0.00    +0.000 A 
ATOM     11  F   UNL     1      11.244  18.445  16.931  0.00  0.00    +0.000 F 
ATOM     12  C   UNL     1      11.510  17.246  18.951  0.00  0.00    +0.000 A 
ATOM     13  N   UNL     1      11.006  16.577  20.018  0.00  0.00    +0.000 NA
ATOM     14  C   UNL     1       9.991  15.039  22.103  0.00  0.00    +0.000 C 
ATOM     15  C   UNL     1       9.648  13.517  22.037  0.00  0.00    +0.000 C 
ENDROOT
BRANCH   2  16
ATOM     16  C   UNL     1       6.295  12.665  23.808  0.00  0.00    +0.000 C 
ATOM     17  C   UNL     1       5.821  13.929  24.550  0.00  0.00    +0.000 C 
ATOM     18  C   UNL     1       6.325  14.077  25.977  0.00  0.00    +0.000 C 
ATOM     19  S   UNL     1       5.870  12.682  26.977  0.00  0.00    +0.000 S 
ATOM     20  O   UNL     1       6.663  12.715  28.190  0.00  0.00    +0.000 OA
ATOM     21  O   UNL     1       4.421  12.632  27.039  0.00  0.00    +0.000 OA
ATOM     22  C   UNL     1       6.422  11.307  25.993  0.00  0.00    +0.000 C 
ATOM     23  C   UNL     1       5.921  11.375  24.556  0.00  0.00    +0.000 C 
ENDBRANCH   2  16
BRANCH  15  24
ATOM     24  C   UNL     1      10.097  12.790  20.763  0.00  0.00    +0.000 A 
ATOM     25  C   UNL     1      11.234  13.198  20.041  0.00  0.00    +0.000 A 
ATOM     26  C   UNL     1      11.655  12.521  18.891  0.00  0.00    +0.000 A 
ATOM     27  C   UNL     1      10.958  11.402  18.450  0.00  0.00    +0.000 A 
ATOM     28  C   UNL     1       9.859  10.963  19.174  0.00  0.00    +0.000 A 
ATOM     29  F   UNL     1       9.189   9.877  18.762  0.00  0.00    +0.000 F 
ATOM     30  C   UNL     1       9.437  11.629  20.321  0.00  0.00    +0.000 A 
ENDBRANCH  15  24
TORSDOF 2
ENDMDL
MODEL 4
REMARK VINA RESULT:      -7.0      3.634      5.113
REMARK  Name = 
REMARK  2 active torsions:
REMARK  status: ('A' for Active; 'I' for Inactive)
REMARK    1  A    between atoms: C_2  and  C_3
REMARK    2  A    between atoms: C_23  and  C_24
REMARK                            x       y       z     vdW  Elec       q    Type
REMARK                         _______ _______ _______ _____ _____    ______ ____
ROOT
ATOM      1  O   UNL     1      -0.780  14.528  23.730  0.00  0.00    +0.000 OA
ATOM      2  C   UNL     1      -1.880  14.005  23.570  0.00  0.00    +0.000 C 
ATOM      3  N   UNL     1      -2.112  13.101  22.548  0.00  0.00    +0.000 N 
ATOM      4  C   UNL     1      -3.403  12.456  22.228  0.00  0.00    +0.000 C 
ATOM      5  C   UNL     1      -3.931  12.824  20.830  0.00  0.00    +0.000 C 
ATOM      6  N   UNL     1      -2.878  12.758  19.820  0.00  0.00    +0.000 N 
ATOM      7  C   UNL     1      -2.976  11.916  18.749  0.00  0.00    +0.000 A 
ATOM      8  N   UNL     1      -4.093  11.173  18.602  0.00  0.00    +0.000 NA
ATOM      9  C   UNL     1      -4.179  10.370  17.524  0.00  0.00    +0.000 A 
ATOM     10  C   UNL     1      -3.198  10.273  16.574  0.00  0.00    +0.000 A 
ATOM     11  F   UNL     1      -3.310   9.472  15.515  0.00  0.00    +0.000 F 
ATOM     12  C   UNL     1      -2.099  11.055  16.786  0.00  0.00    +0.000 A 
ATOM     13  N   UNL     1      -1.966  11.876  17.858  0.00  0.00    +0.000 NA
ATOM     14  C   UNL     1      -1.601  13.411  20.150  0.00  0.00    +0.000 C 
ATOM     15  C   UNL     1      -1.046  12.901  21.517  0.00  0.00    +0.000 C 
ENDROOT
BRANCH   2  16
ATOM     16  C   UNL     1      -3.020  14.316  24.551  0.00  0.00    +0.000 C 
ATOM     17  C   UNL     1      -4.299  14.805  23.846  0.00  0.00    +0.000 C 
ATOM     18  C   UNL     1      -4.218  16.197  23.236  0.00  0.00    +0.000 C 
ATOM     19  S   UNL     1      -3.791  17.417  24.453  0.00  0.00    +0.000 S 
ATOM     20  O   UNL     1      -3.388  18.626  23.761  0.00  0.00    +0.000 OA
ATOM     21  O   UNL     1      -4.849  17.447  25.445  0.00  0.00    +0.000 OA
ATOM     22  C   UNL     1      -2.347  16.712  25.216  0.00  0.00    +0.000 C 
ATOM     23  C   UNL     1      -2.565  15.272  25.665  0.00  0.00    +0.000 C 
ENDBRANCH   2  16
BRANCH  15  24
ATOM     24  C   UNL     1      -0.483  11.473  21.514  0.00  0.00    +0.000 A 
ATOM     25  C   UNL     1       0.140  10.928  20.376  0.00  0.00    +0.000 A 
ATOM     26  C   UNL     1       0.673   9.633  20.380  0.00  0.00    +0.000 A 
ATOM     27  C   UNL     1       0.613   8.863  21.536  0.00  0.00    +0.000 A 
ATOM     28  C   UNL     1       0.037   9.401  22.677  0.00  0.00    +0.000 A 
ATOM     29  F   UNL     1      -0.013   8.668  23.799  0.00  0.00    +0.000 F 
ATOM     30  C   UNL     1      -0.490  10.690  22.681  0.00  0.00    +0.000 A 
ENDBRANCH  15  24
TORSDOF 2
ENDMDL
MODEL 5
REMARK VINA RESULT:      -6.9      3.616      5.180
REMARK  Name = 
REMARK  2 active torsions:
REMARK  status: ('A' for Active; 'I' for Inactive)
REMARK    1  A    between atoms: C_2  and  C_3
REMARK    2  A    between atoms: C_23  and  C_24
REMARK                            x       y       z     vdW  Elec       q    Type
REMARK                         _______ _______ _______ _____ _____    ______ ____
ROOT
ATOM      1  O   UNL     1      -0.836  14.492  23.478  0.00  0.00    +0.000 OA
ATOM      2  C   UNL     1      -1.950  14.015  23.272  0.00  0.00    +0.000 C 
ATOM      3  N   UNL     1      -2.162  13.066  22.288  0.00  0.00    +0.000 N 
ATOM      4  C   UNL     1      -3.462  12.468  21.916  0.00  0.00    +0.000 C 
ATOM      5  C   UNL     1      -3.878  12.781  20.468  0.00  0.00    +0.000 C 
ATOM      6  N   UNL     1      -2.768  12.605  19.537  0.00  0.00    +0.000 N 
ATOM      7  C   UNL     1      -2.840  11.709  18.509  0.00  0.00    +0.000 A 
ATOM      8  N   UNL     1      -3.983  11.014  18.327  0.00  0.00    +0.000 NA
ATOM      9  C   UNL     1      -4.042  10.156  17.290  0.00  0.00    +0.000 A 
ATOM     10  C   UNL     1      -3.007   9.956  16.416  0.00  0.00    +0.000 A 
ATOM     11  F   UNL     1      -3.092   9.102  15.396  0.00  0.00    +0.000 F 
ATOM     12  C   UNL     1      -1.885  10.695  16.659  0.00  0.00    +0.000 A 
ATOM     13  N   UNL     1      -1.777  11.568  17.691  0.00  0.00    +0.000 NA
ATOM     14  C   UNL     1      -1.482  13.212  19.916  0.00  0.00    +0.000 C 
ATOM     15  C   UNL     1      -1.044  12.755  21.343  0.00  0.00    +0.000 C 
ENDROOT
BRANCH   2  16
ATOM     16  C   UNL     1      -3.132  14.438  24.156  0.00  0.00    +0.000 C 
ATOM     17  C   UNL     1      -4.006  15.527  23.505  0.00  0.00    +0.000 C 
ATOM     18  C   UNL     1      -3.368  16.905  23.408  0.00  0.00    +0.000 C 
ATOM     19  S   UNL     1      -2.878  17.509  25.004  0.00  0.00    +0.000 S 
ATOM     20  O   UNL     1      -1.980  18.631  24.809  0.00  0.00    +0.000 OA
ATOM     21  O   UNL     1      -4.075  17.649  25.814  0.00  0.00    +0.000 OA
ATOM     22  C   UNL     1      -1.932  16.152  25.657  0.00  0.00    +0.000 C 
ATOM     23  C   UNL     1      -2.675  14.825  25.571  0.00  0.00    +0.000 C 
ENDBRANCH   2  16
BRANCH  15  24
ATOM     24  C   UNL     1      -0.558  11.303  21.455  0.00  0.00    +0.000 A 
ATOM     25  C   UNL     1      -0.837  10.517  22.589  0.00  0.00    +0.000 A 
ATOM     26  C   UNL     1      -0.413   9.187  22.682  0.00  0.00    +0.000 A 
ATOM     27  C   UNL     1       0.283   8.606  21.627  0.00  0.00    +0.000 A 
ATOM     28  C   UNL     1       0.531   9.356  20.486  0.00  0.00    +0.000 A 
ATOM     29  F   UNL     1       1.190   8.798  19.460  0.00  0.00    +0.000 F 
ATOM     30  C   UNL     1       0.107  10.678  20.386  0.00  0.00    +0.000 A 
ENDBRANCH  15  24
TORSDOF 2
ENDMDL
MODEL 6
REMARK VINA RESULT:      -6.8      5.532      8.183
REMARK  Name = 
REMARK  2 active torsions:
REMARK  status: ('A' for Active; 'I' for Inactive)
REMARK    1  A    between atoms: C_2  and  C_3
REMARK    2  A    between atoms: C_23  and  C_24
REMARK                            x       y       z     vdW  Elec       q    Type
REMARK                         _______ _______ _______ _____ _____    ______ ____
ROOT
ATOM      1  O   UNL     1       2.487   7.935  17.751  0.00  0.00    +0.000 OA
ATOM      2  C   UNL     1       2.041   7.768  18.884  0.00  0.00    +0.000 C 
ATOM      3  N   UNL     1       1.189   8.688  19.471  0.00  0.00    +0.000 N 
ATOM      4  C   UNL     1       0.640   8.621  20.841  0.00  0.00    +0.000 C 
ATOM      5  C   UNL     1       1.090   9.793  21.730  0.00  0.00    +0.000 C 
ATOM      6  N   UNL     1       0.991  11.071  21.029  0.00  0.00    +0.000 N 
ATOM      7  C   UNL     1       0.194  12.076  21.499  0.00  0.00    +0.000 A 
ATOM      8  N   UNL     1      -0.470  11.896  22.659  0.00  0.00    +0.000 NA
ATOM      9  C   UNL     1      -1.228  12.912  23.117  0.00  0.00    +0.000 A 
ATOM     10  C   UNL     1      -1.355  14.110  22.468  0.00  0.00    +0.000 A 
ATOM     11  F   UNL     1      -2.110  15.100  22.944  0.00  0.00    +0.000 F 
ATOM     12  C   UNL     1      -0.653  14.223  21.303  0.00  0.00    +0.000 A 
ATOM     13  N   UNL     1       0.120  13.228  20.801  0.00  0.00    +0.000 NA
ATOM     14  C   UNL     1       1.549  11.125  19.668  0.00  0.00    +0.000 C 
ATOM     15  C   UNL     1       0.957   9.991  18.773  0.00  0.00    +0.000 C 
ENDROOT
BRANCH   2  16
ATOM     16  C   UNL     1       2.391   6.490  19.659  0.00  0.00    +0.000 C 
ATOM     17  C   UNL     1       3.899   6.175  19.643  0.00  0.00    +0.000 C 
ATOM     18  C   UNL     1       4.458   5.718  18.304  0.00  0.00    +0.000 C 
ATOM     19  S   UNL     1       3.615   4.274  17.706  0.00  0.00    +0.000 S 
ATOM     20  O   UNL     1       3.940   4.108  16.302  0.00  0.00    +0.000 OA
ATOM     21  O   UNL     1       3.844   3.199  18.653  0.00  0.00    +0.000 OA
ATOM     22  C   UNL     1       1.905   4.750  17.823  0.00  0.00    +0.000 C 
ATOM     23  C   UNL     1       1.541   5.295  19.198  0.00  0.00    +0.000 C 
ENDBRANCH   2  16
BRANCH  15  24
ATOM     24  C   UNL     1      -0.503  10.181  18.340  0.00  0.00    +0.000 A 
ATOM     25  C   UNL     1      -1.388  11.000  19.066  0.00  0.00    +0.000 A 
ATOM     26  C   UNL     1      -2.714  11.190  18.658  0.00  0.00    +0.000 A 
ATOM     27  C   UNL     1      -3.176  10.580  17.498  0.00  0.00    +0.000 A 
ATOM     28  C   UNL     1      -2.305   9.802  16.750  0.00  0.00    +0.000 A 
ATOM     29  F   UNL     1      -2.740   9.221  15.622  0.00  0.00    +0.000 F 
ATOM     30  C   UNL     1      -0.983   9.613  17.147  0.00  0.00    +0.000 A 
ENDBRANCH  15  24
TORSDOF 2
ENDMDL
MODEL 7
REMARK VINA RESULT:      -6.7      5.519      8.174
REMARK  Name = 
REMARK  2 active torsions:
REMARK  status: ('A' for Active; 'I' for Inactive)
REMARK    1  A    between atoms: C_2  and  C_3
REMARK    2  A    between atoms: C_23  and  C_24
REMARK                            x       y       z     vdW  Elec       q    Type
REMARK                         _______ _______ _______ _____ _____    ______ ____
ROOT
ATOM      1  O   UNL     1       2.606   8.025  17.797  0.00  0.00    +0.000 OA
ATOM      2  C   UNL     1       2.119   7.825  18.908  0.00  0.00    +0.000 C 
ATOM      3  N   UNL     1       1.245   8.726  19.489  0.00  0.00    +0.000 N 
ATOM      4  C   UNL     1       0.647   8.617  20.836  0.00  0.00    +0.000 C 
ATOM      5  C   UNL     1       1.060   9.765  21.775  0.00  0.00    +0.000 C 
ATOM      6  N   UNL     1       0.984  11.062  21.109  0.00  0.00    +0.000 N 
ATOM      7  C   UNL     1       0.168  12.052  21.577  0.00  0.00    +0.000 A 
ATOM      8  N   UNL     1      -0.537  11.837  22.707  0.00  0.00    +0.000 NA
ATOM      9  C   UNL     1      -1.314  12.838  23.167  0.00  0.00    +0.000 A 
ATOM     10  C   UNL     1      -1.421  14.054  22.549  0.00  0.00    +0.000 A 
ATOM     11  F   UNL     1      -2.195  15.029  23.026  0.00  0.00    +0.000 F 
ATOM     12  C   UNL     1      -0.677  14.202  21.414  0.00  0.00    +0.000 A 
ATOM     13  N   UNL     1       0.116  13.223  20.911  0.00  0.00    +0.000 NA
ATOM     14  C   UNL     1       1.590  11.157  19.771  0.00  0.00    +0.000 C 
ATOM     15  C   UNL     1       1.035  10.048  18.822  0.00  0.00    +0.000 C 
ENDROOT
BRANCH   2  16
ATOM     16  C   UNL     1       2.445   6.525  19.657  0.00  0.00    +0.000 C 
ATOM     17  C   UNL     1       3.949   6.195  19.658  0.00  0.00    +0.000 C 
ATOM     18  C   UNL     1       4.524   5.764  18.316  0.00  0.00    +0.000 C 
ATOM     19  S   UNL     1       3.677   4.344  17.671  0.00  0.00    +0.000 S 
ATOM     20  O   UNL     1       4.022   4.207  16.269  0.00  0.00    +0.000 OA
ATOM     21  O   UNL     1       3.880   3.244  18.596  0.00  0.00    +0.000 OA
ATOM     22  C   UNL     1       1.970   4.834  17.773  0.00  0.00    +0.000 C 
ATOM     23  C   UNL     1       1.590   5.350  19.155  0.00  0.00    +0.000 C 
ENDBRANCH   2  16
BRANCH  15  24
ATOM     24  C   UNL     1      -0.409  10.249  18.342  0.00  0.00    +0.000 A 
ATOM     25  C   UNL     1      -0.946   9.495  17.281  0.00  0.00    +0.000 A 
ATOM     26  C   UNL     1      -2.269   9.662  16.857  0.00  0.00    +0.000 A 
ATOM     27  C   UNL     1      -3.093  10.576  17.505  0.00  0.00    +0.000 A 
ATOM     28  C   UNL     1      -2.592  11.297  18.578  0.00  0.00    +0.000 A 
ATOM     29  F   UNL     1      -3.385  12.170  19.215  0.00  0.00    +0.000 F 
ATOM     30  C   UNL     1      -1.277  11.132  19.007  0.00  0.00    +0.000 A 
ENDBRANCH  15  24
TORSDOF 2
ENDMDL
MODEL 8
REMARK VINA RESULT:      -6.7      6.536      8.478
REMARK  Name = 
REMARK  2 active torsions:
REMARK  status: ('A' for Active; 'I' for Inactive)
REMARK    1  A    between atoms: C_2  and  C_3
REMARK    2  A    between atoms: C_23  and  C_24
REMARK                            x       y       z     vdW  Elec       q    Type
REMARK                         _______ _______ _______ _____ _____    ______ ____
ROOT
ATOM      1  O   UNL     1       1.125   8.795  21.070  0.00  0.00    +0.000 OA
ATOM      2  C   UNL     1       1.162   8.929  19.849  0.00  0.00    +0.000 C 
ATOM      3  N   UNL     1       1.782   7.998  19.035  0.00  0.00    +0.000 N 
ATOM      4  C   UNL     1       1.937   8.086  17.568  0.00  0.00    +0.000 C 
ATOM      5  C   UNL     1       3.407   8.149  17.119  0.00  0.00    +0.000 C 
ATOM      6  N   UNL     1       4.231   7.170  17.823  0.00  0.00    +0.000 N 
ATOM      7  C   UNL     1       4.908   6.197  17.147  0.00  0.00    +0.000 A 
ATOM      8  N   UNL     1       4.852   6.178  15.799  0.00  0.00    +0.000 NA
ATOM      9  C   UNL     1       5.551   5.225  15.151  0.00  0.00    +0.000 A 
ATOM     10  C   UNL     1       6.312   4.282  15.789  0.00  0.00    +0.000 A 
ATOM     11  F   UNL     1       6.996   3.352  15.124  0.00  0.00    +0.000 F 
ATOM     12  C   UNL     1       6.325   4.364  17.152  0.00  0.00    +0.000 A 
ATOM     13  N   UNL     1       5.635   5.303  17.847  0.00  0.00    +0.000 NA
ATOM     14  C   UNL     1       4.071   7.100  19.285  0.00  0.00    +0.000 C 
ATOM     15  C   UNL     1       2.573   6.902  19.677  0.00  0.00    +0.000 C 
ENDROOT
BRANCH   2  16
ATOM     16  C   UNL     1       0.466  10.132  19.196  0.00  0.00    +0.000 C 
ATOM     17  C   UNL     1       1.267  11.440  19.342  0.00  0.00    +0.000 C 
ATOM     18  C   UNL     1       1.320  12.020  20.748  0.00  0.00    +0.000 C 
ATOM     19  S   UNL     1      -0.308  12.328  21.387  0.00  0.00    +0.000 S 
ATOM     20  O   UNL     1      -0.202  12.535  22.818  0.00  0.00    +0.000 OA
ATOM     21  O   UNL     1      -0.939  13.322  20.538  0.00  0.00    +0.000 OA
ATOM     22  C   UNL     1      -1.130  10.775  21.113  0.00  0.00    +0.000 C 
ATOM     23  C   UNL     1      -0.986  10.280  19.679  0.00  0.00    +0.000 C 
ENDBRANCH   2  16
BRANCH  15  24
ATOM     24  C   UNL     1       1.992   5.509  19.400  0.00  0.00    +0.000 A 
ATOM     25  C   UNL     1       1.885   5.001  18.092  0.00  0.00    +0.000 A 
ATOM     26  C   UNL     1       1.375   3.722  17.841  0.00  0.00    +0.000 A 
ATOM     27  C   UNL     1       0.981   2.912  18.901  0.00  0.00    +0.000 A 
ATOM     28  C   UNL     1       1.118   3.384  20.198  0.00  0.00    +0.000 A 
ATOM     29  F   UNL     1       0.752   2.604  21.225  0.00  0.00    +0.000 F 
ATOM     30  C   UNL     1       1.629   4.653  20.455  0.00  0.00    +0.000 A 
ENDBRANCH  15  24
TORSDOF 2
ENDMDL
MODEL 9
REMARK VINA RESULT:      -6.7      5.656      8.418
REMARK  Name = 
REMARK  2 active torsions:
REMARK  status: ('A' for Active; 'I' for Inactive)
REMARK    1  A    between atoms: C_2  and  C_3
REMARK    2  A    between atoms: C_23  and  C_24
REMARK                            x       y       z     vdW  Elec       q    Type
REMARK                         _______ _______ _______ _____ _____    ______ ____
ROOT
ATOM      1  O   UNL     1       2.830   7.922  18.433  0.00  0.00    +0.000 OA
ATOM      2  C   UNL     1       2.019   7.555  19.280  0.00  0.00    +0.000 C 
ATOM      3  N   UNL     1       1.078   8.422  19.807  0.00  0.00    +0.000 N 
ATOM      4  C   UNL     1       0.096   8.107  20.866  0.00  0.00    +0.000 C 
ATOM      5  C   UNL     1       0.291   8.948  22.139  0.00  0.00    +0.000 C 
ATOM      6  N   UNL     1       0.513  10.358  21.828  0.00  0.00    +0.000 N 
ATOM      7  C   UNL     1      -0.331  11.327  22.289  0.00  0.00    +0.000 A 
ATOM      8  N   UNL     1      -1.357  10.972  23.090  0.00  0.00    +0.000 NA
ATOM      9  C   UNL     1      -2.161  11.948  23.556  0.00  0.00    +0.000 A 
ATOM     10  C   UNL     1      -1.988  13.274  23.260  0.00  0.00    +0.000 A 
ATOM     11  F   UNL     1      -2.796  14.220  23.736  0.00  0.00    +0.000 F 
ATOM     12  C   UNL     1      -0.928  13.559  22.448  0.00  0.00    +0.000 A 
ATOM     13  N   UNL     1      -0.094  12.611  21.952  0.00  0.00    +0.000 NA
ATOM     14  C   UNL     1       1.500  10.656  20.777  0.00  0.00    +0.000 C 
ATOM     15  C   UNL     1       1.175   9.875  19.464  0.00  0.00    +0.000 C 
ENDROOT
BRANCH   2  16
ATOM     16  C   UNL     1       2.008   6.089  19.736  0.00  0.00    +0.000 C 
ATOM     17  C   UNL     1       3.352   5.640  20.340  0.00  0.00    +0.000 C 
ATOM     18  C   UNL     1       4.499   5.499  19.350  0.00  0.00    +0.000 C 
ATOM     19  S   UNL     1       4.100   4.356  18.051  0.00  0.00    +0.000 S 
ATOM     20  O   UNL     1       5.061   4.534  16.980  0.00  0.00    +0.000 OA
ATOM     21  O   UNL     1       3.892   3.051  18.653  0.00  0.00    +0.000 OA
ATOM     22  C   UNL     1       2.523   4.953  17.483  0.00  0.00    +0.000 C 
ATOM     23  C   UNL     1       1.527   5.149  18.619  0.00  0.00    +0.000 C 
ENDBRANCH   2  16
BRANCH  15  24
ATOM     24  C   UNL     1      -0.038  10.381  18.673  0.00  0.00    +0.000 A 
ATOM     25  C   UNL     1      -0.462  11.721  18.749  0.00  0.00    +0.000 A 
ATOM     26  C   UNL     1      -1.556  12.188  18.011  0.00  0.00    +0.000 A 
ATOM     27  C   UNL     1      -2.237  11.324  17.160  0.00  0.00    +0.000 A 
ATOM     28  C   UNL     1      -1.806  10.011  17.043  0.00  0.00    +0.000 A 
ATOM     29  F   UNL     1      -2.450   9.176  16.215  0.00  0.00    +0.000 F 
ATOM     30  C   UNL     1      -0.716   9.542  17.772  0.00  0.00    +0.000 A 
ENDBRANCH  15  24
TORSDOF 2
ENDMDL
