MODEL 1
REMARK VINA RESULT:      -6.4      0.000      0.000
REMARK  Name = 
REMARK  3 active torsions:
REMARK  status: ('A' for Active; 'I' for Inactive)
REMARK    1  A    between atoms: C_2  and  C_3
REMARK    2  A    between atoms: C_4  and  C_5
REMARK    3  A    between atoms: N_10  and  C_11
REMARK                            x       y       z     vdW  Elec       q    Type
REMARK                         _______ _______ _______ _____ _____    ______ ____
ROOT
ATOM      1  O   UNL     1       8.016   6.640  18.890  0.00  0.00    +0.000 OA
ATOM      2  C   UNL     1       7.865   7.339  17.897  0.00  0.00    +0.000 C 
ATOM      3  N   UNL     1       7.364   6.900  16.694  0.00  0.00    +0.000 N 
ATOM      4  H   UNL     1       7.194   7.569  15.956  0.00  0.00    +0.000 HD
ENDROOT
BRANCH   3   5
ATOM      5  C   UNL     1       6.865   5.555  16.505  0.00  0.00    +0.000 C 
ATOM      6  C   UNL     1       5.349   5.457  16.658  0.00  0.00    +0.000 C 
ATOM      7  C   UNL     1       5.002   4.139  15.975  0.00  0.00    +0.000 C 
ATOM      8  C   UNL     1       6.075   3.925  14.907  0.00  0.00    +0.000 C 
ATOM      9  C   UNL     1       7.077   5.062  15.077  0.00  0.00    +0.000 C 
ENDBRANCH   3   5
BRANCH   2  10
ATOM     10  C   UNL     1       8.187   8.786  17.870  0.00  0.00    +0.000 C 
ATOM     11  C   UNL     1       8.901   9.358  18.852  0.00  0.00    +0.000 C 
BRANCH  11  12
ATOM     12  C   UNL     1       9.154  10.762  18.847  0.00  0.00    +0.000 A 
ATOM     13  C   UNL     1       8.915  11.705  17.858  0.00  0.00    +0.000 A 
ATOM     14  C   UNL     1       9.300  13.025  18.230  0.00  0.00    +0.000 A 
ATOM     15  C   UNL     1       9.826  13.062  19.499  0.00  0.00    +0.000 A 
ATOM     16  S   UNL     1       9.832  11.520  20.237  0.00  0.00    +0.000 S 
ENDBRANCH  11  12
ENDBRANCH   2  10
TORSDOF 3
ENDMDL
MODEL 2
REMARK VINA RESULT:      -6.0      1.836      2.199
REMARK  Name = 
REMARK  3 active torsions:
REMARK  status: ('A' for Active; 'I' for Inactive)
REMARK    1  A    between atoms: C_2  and  C_3
REMARK    2  A    between atoms: C_4  and  C_5
REMARK    3  A    between atoms: N_10  and  C_11
REMARK                            x       y       z     vdW  Elec       q    Type
REMARK                         _______ _______ _______ _____ _____    ______ ____
ROOT
ATOM      1  O   UNL     1       7.678   6.810  16.389  0.00  0.00    +0.000 OA
ATOM      2  C   UNL     1       7.510   7.020  17.584  0.00  0.00    +0.000 C 
ATOM      3  N   UNL     1       6.644   6.322  18.392  0.00  0.00    +0.000 N 
ATOM      4  H   UNL     1       6.636   6.509  19.385  0.00  0.00    +0.000 HD
ENDROOT
BRANCH   3   5
ATOM      5  C   UNL     1       5.894   5.178  17.920  0.00  0.00    +0.000 C 
ATOM      6  C   UNL     1       5.373   4.301  19.057  0.00  0.00    +0.000 C 
ATOM      7  C   UNL     1       4.266   3.482  18.401  0.00  0.00    +0.000 C 
ATOM      8  C   UNL     1       3.723   4.347  17.263  0.00  0.00    +0.000 C 
ATOM      9  C   UNL     1       4.606   5.589  17.215  0.00  0.00    +0.000 C 
ENDBRANCH   3   5
BRANCH   2  10
ATOM     10  C   UNL     1       8.252   8.063  18.334  0.00  0.00    +0.000 C 
ATOM     11  C   UNL     1       8.207   9.351  17.963  0.00  0.00    +0.000 C 
BRANCH  11  12
ATOM     12  C   UNL     1       8.972  10.337  18.655  0.00  0.00    +0.000 A 
ATOM     13  C   UNL     1       9.471  10.328  19.949  0.00  0.00    +0.000 A 
ATOM     14  C   UNL     1      10.203  11.504  20.281  0.00  0.00    +0.000 A 
ATOM     15  C   UNL     1      10.248  12.388  19.231  0.00  0.00    +0.000 A 
ATOM     16  S   UNL     1       9.431  11.790  17.853  0.00  0.00    +0.000 S 
ENDBRANCH  11  12
ENDBRANCH   2  10
TORSDOF 3
ENDMDL
MODEL 3
REMARK VINA RESULT:      -5.9      5.937      7.552
REMARK  Name = 
REMARK  3 active torsions:
REMARK  status: ('A' for Active; 'I' for Inactive)
REMARK    1  A    between atoms: C_2  and  C_3
REMARK    2  A    between atoms: C_4  and  C_5
REMARK    3  A    between atoms: N_10  and  C_11
REMARK                            x       y       z     vdW  Elec       q    Type
REMARK                         _______ _______ _______ _____ _____    ______ ____
ROOT
ATOM      1  O   UNL     1       4.797   6.480  16.411  0.00  0.00    +0.000 OA
ATOM      2  C   UNL     1       4.731   5.266  16.555  0.00  0.00    +0.000 C 
ATOM      3  N   UNL     1       5.089   4.339  15.605  0.00  0.00    +0.000 N 
ATOM      4  H   UNL     1       5.082   3.358  15.845  0.00  0.00    +0.000 HD
ENDROOT
BRANCH   3   5
ATOM      5  C   UNL     1       5.683   4.714  14.340  0.00  0.00    +0.000 C 
ATOM      6  C   UNL     1       7.184   4.975  14.444  0.00  0.00    +0.000 C 
ATOM      7  C   UNL     1       7.667   4.876  13.001  0.00  0.00    +0.000 C 
ATOM      8  C   UNL     1       6.703   3.918  12.300  0.00  0.00    +0.000 C 
ATOM      9  C   UNL     1       5.623   3.580  13.321  0.00  0.00    +0.000 C 
ENDBRANCH   3   5
BRANCH   2  10
ATOM     10  C   UNL     1       4.268   4.625  17.810  0.00  0.00    +0.000 C 
ATOM     11  C   UNL     1       2.970   4.359  18.016  0.00  0.00    +0.000 C 
BRANCH  11  12
ATOM     12  C   UNL     1       2.527   3.798  19.252  0.00  0.00    +0.000 A 
ATOM     13  C   UNL     1       1.303   3.917  19.895  0.00  0.00    +0.000 A 
ATOM     14  C   UNL     1       1.236   3.195  21.121  0.00  0.00    +0.000 A 
ATOM     15  C   UNL     1       2.413   2.539  21.389  0.00  0.00    +0.000 A 
ATOM     16  S   UNL     1       3.576   2.777  20.159  0.00  0.00    +0.000 S 
ENDBRANCH  11  12
ENDBRANCH   2  10
TORSDOF 3
ENDMDL
MODEL 4
REMARK VINA RESULT:      -5.9      6.098      7.415
REMARK  Name = 
REMARK  3 active torsions:
REMARK  status: ('A' for Active; 'I' for Inactive)
REMARK    1  A    between atoms: C_2  and  C_3
REMARK    2  A    between atoms: C_4  and  C_5
REMARK    3  A    between atoms: N_10  and  C_11
REMARK                            x       y       z     vdW  Elec       q    Type
REMARK                         _______ _______ _______ _____ _____    ______ ____
ROOT
ATOM      1  O   UNL     1       6.790   4.241  17.105  0.00  0.00    +0.000 OA
ATOM      2  C   UNL     1       5.670   4.272  16.612  0.00  0.00    +0.000 C 
ATOM      3  N   UNL     1       5.402   4.210  15.264  0.00  0.00    +0.000 N 
ATOM      4  H   UNL     1       4.441   4.155  14.954  0.00  0.00    +0.000 HD
ENDROOT
BRANCH   3   5
ATOM      5  C   UNL     1       6.436   4.003  14.275  0.00  0.00    +0.000 C 
ATOM      6  C   UNL     1       5.882   3.590  12.914  0.00  0.00    +0.000 C 
ATOM      7  C   UNL     1       7.028   3.888  11.953  0.00  0.00    +0.000 C 
ATOM      8  C   UNL     1       7.817   5.036  12.583  0.00  0.00    +0.000 C 
ATOM      9  C   UNL     1       7.178   5.294  13.943  0.00  0.00    +0.000 C 
ENDBRANCH   3   5
BRANCH   2  10
ATOM     10  C   UNL     1       4.431   4.358  17.422  0.00  0.00    +0.000 C 
ATOM     11  C   UNL     1       4.330   3.735  18.606  0.00  0.00    +0.000 C 
BRANCH  11  12
ATOM     12  C   UNL     1       3.112   3.774  19.349  0.00  0.00    +0.000 A 
ATOM     13  C   UNL     1       2.476   4.847  19.958  0.00  0.00    +0.000 A 
ATOM     14  C   UNL     1       1.260   4.488  20.607  0.00  0.00    +0.000 A 
ATOM     15  C   UNL     1       0.993   3.146  20.481  0.00  0.00    +0.000 A 
ATOM     16  S   UNL     1       2.190   2.337  19.568  0.00  0.00    +0.000 S 
ENDBRANCH  11  12
ENDBRANCH   2  10
TORSDOF 3
ENDMDL
MODEL 5
REMARK VINA RESULT:      -5.9      5.735      7.355
REMARK  Name = 
REMARK  3 active torsions:
REMARK  status: ('A' for Active; 'I' for Inactive)
REMARK    1  A    between atoms: C_2  and  C_3
REMARK    2  A    between atoms: C_4  and  C_5
REMARK    3  A    between atoms: N_10  and  C_11
REMARK                            x       y       z     vdW  Elec       q    Type
REMARK                         _______ _______ _______ _____ _____    ______ ____
ROOT
ATOM      1  O   UNL     1       6.012   4.671  19.310  0.00  0.00    +0.000 OA
ATOM      2  C   UNL     1       5.406   4.339  18.300  0.00  0.00    +0.000 C 
ATOM      3  N   UNL     1       4.114   3.866  18.276  0.00  0.00    +0.000 N 
ATOM      4  H   UNL     1       3.666   3.699  17.386  0.00  0.00    +0.000 HD
ENDROOT
BRANCH   3   5
ATOM      5  C   UNL     1       3.290   3.801  19.463  0.00  0.00    +0.000 C 
ATOM      6  C   UNL     1       2.124   4.787  19.430  0.00  0.00    +0.000 C 
ATOM      7  C   UNL     1       1.162   4.242  20.480  0.00  0.00    +0.000 C 
ATOM      8  C   UNL     1       1.402   2.733  20.526  0.00  0.00    +0.000 C 
ATOM      9  C   UNL     1       2.574   2.460  19.589  0.00  0.00    +0.000 C 
ENDBRANCH   3   5
BRANCH   2  10
ATOM     10  C   UNL     1       5.990   4.427  16.940  0.00  0.00    +0.000 C 
ATOM     11  C   UNL     1       5.278   4.090  15.854  0.00  0.00    +0.000 C 
BRANCH  11  12
ATOM     12  C   UNL     1       5.870   4.121  14.555  0.00  0.00    +0.000 A 
ATOM     13  C   UNL     1       5.469   3.500  13.381  0.00  0.00    +0.000 A 
ATOM     14  C   UNL     1       6.321   3.779  12.275  0.00  0.00    +0.000 A 
ATOM     15  C   UNL     1       7.358   4.608  12.629  0.00  0.00    +0.000 A 
ATOM     16  S   UNL     1       7.286   5.060  14.275  0.00  0.00    +0.000 S 
ENDBRANCH  11  12
ENDBRANCH   2  10
TORSDOF 3
ENDMDL
MODEL 6
REMARK VINA RESULT:      -5.8      6.007      7.705
REMARK  Name = 
REMARK  3 active torsions:
REMARK  status: ('A' for Active; 'I' for Inactive)
REMARK    1  A    between atoms: C_2  and  C_3
REMARK    2  A    between atoms: C_4  and  C_5
REMARK    3  A    between atoms: N_10  and  C_11
REMARK                            x       y       z     vdW  Elec       q    Type
REMARK                         _______ _______ _______ _____ _____    ______ ____
ROOT
ATOM      1  O   UNL     1       4.464   5.671  17.992  0.00  0.00    +0.000 OA
ATOM      2  C   UNL     1       4.302   4.532  17.576  0.00  0.00    +0.000 C 
ATOM      3  N   UNL     1       3.652   3.530  18.257  0.00  0.00    +0.000 N 
ATOM      4  H   UNL     1       3.491   2.644  17.798  0.00  0.00    +0.000 HD
ENDROOT
BRANCH   3   5
ATOM      5  C   UNL     1       2.994   3.754  19.526  0.00  0.00    +0.000 C 
ATOM      6  C   UNL     1       1.473   3.655  19.432  0.00  0.00    +0.000 C 
ATOM      7  C   UNL     1       1.036   3.445  20.878  0.00  0.00    +0.000 C 
ATOM      8  C   UNL     1       2.202   2.740  21.571  0.00  0.00    +0.000 C 
ATOM      9  C   UNL     1       3.326   2.665  20.542  0.00  0.00    +0.000 C 
ENDBRANCH   3   5
BRANCH   2  10
ATOM     10  C   UNL     1       4.777   4.081  16.245  0.00  0.00    +0.000 C 
ATOM     11  C   UNL     1       5.627   4.825  15.522  0.00  0.00    +0.000 C 
BRANCH  11  12
ATOM     12  C   UNL     1       6.031   4.412  14.217  0.00  0.00    +0.000 A 
ATOM     13  C   UNL     1       5.398   3.567  13.317  0.00  0.00    +0.000 A 
ATOM     14  C   UNL     1       6.115   3.401  12.097  0.00  0.00    +0.000 A 
ATOM     15  C   UNL     1       7.283   4.124  12.093  0.00  0.00    +0.000 A 
ATOM     16  S   UNL     1       7.496   5.010  13.539  0.00  0.00    +0.000 S 
ENDBRANCH  11  12
ENDBRANCH   2  10
TORSDOF 3
ENDMDL
MODEL 7
REMARK VINA RESULT:      -5.8      5.933      7.579
REMARK  Name = 
REMARK  3 active torsions:
REMARK  status: ('A' for Active; 'I' for Inactive)
REMARK    1  A    between atoms: C_2  and  C_3
REMARK    2  A    between atoms: C_4  and  C_5
REMARK    3  A    between atoms: N_10  and  C_11
REMARK                            x       y       z     vdW  Elec       q    Type
REMARK                         _______ _______ _______ _____ _____    ______ ____
ROOT
ATOM      1  O   UNL     1       6.726   4.602  16.827  0.00  0.00    +0.000 OA
ATOM      2  C   UNL     1       5.607   4.398  16.376  0.00  0.00    +0.000 C 
ATOM      3  N   UNL     1       5.330   4.099  15.062  0.00  0.00    +0.000 N 
ATOM      4  H   UNL     1       4.384   3.861  14.799  0.00  0.00    +0.000 HD
ENDROOT
BRANCH   3   5
ATOM      5  C   UNL     1       6.370   3.899  14.076  0.00  0.00    +0.000 C 
ATOM      6  C   UNL     1       5.821   3.498  12.708  0.00  0.00    +0.000 C 
ATOM      7  C   UNL     1       6.972   3.802  11.755  0.00  0.00    +0.000 C 
ATOM      8  C   UNL     1       7.760   4.943  12.399  0.00  0.00    +0.000 C 
ATOM      9  C   UNL     1       7.115   5.191  13.759  0.00  0.00    +0.000 C 
ENDBRANCH   3   5
BRANCH   2  10
ATOM     10  C   UNL     1       4.381   4.425  17.210  0.00  0.00    +0.000 C 
ATOM     11  C   UNL     1       4.083   3.414  18.039  0.00  0.00    +0.000 C 
BRANCH  11  12
ATOM     12  C   UNL     1       2.870   3.421  18.792  0.00  0.00    +0.000 A 
ATOM     13  C   UNL     1       1.745   2.618  18.674  0.00  0.00    +0.000 A 
ATOM     14  C   UNL     1       0.729   2.925  19.623  0.00  0.00    +0.000 A 
ATOM     15  C   UNL     1       1.099   3.960  20.447  0.00  0.00    +0.000 A 
ATOM     16  S   UNL     1       2.668   4.536  20.089  0.00  0.00    +0.000 S 
ENDBRANCH  11  12
ENDBRANCH   2  10
TORSDOF 3
ENDMDL
MODEL 8
REMARK VINA RESULT:      -5.8      5.804      7.191
REMARK  Name = 
REMARK  3 active torsions:
REMARK  status: ('A' for Active; 'I' for Inactive)
REMARK    1  A    between atoms: C_2  and  C_3
REMARK    2  A    between atoms: C_4  and  C_5
REMARK    3  A    between atoms: N_10  and  C_11
REMARK                            x       y       z     vdW  Elec       q    Type
REMARK                         _______ _______ _______ _____ _____    ______ ____
ROOT
ATOM      1  O   UNL     1       6.129   4.526  19.020  0.00  0.00    +0.000 OA
ATOM      2  C   UNL     1       5.445   4.579  18.006  0.00  0.00    +0.000 C 
ATOM      3  N   UNL     1       4.083   4.395  17.964  0.00  0.00    +0.000 N 
ATOM      4  H   UNL     1       3.591   4.544  17.094  0.00  0.00    +0.000 HD
ENDROOT
BRANCH   3   5
ATOM      5  C   UNL     1       3.288   4.209  19.158  0.00  0.00    +0.000 C 
ATOM      6  C   UNL     1       2.890   5.528  19.818  0.00  0.00    +0.000 C 
ATOM      7  C   UNL     1       1.719   5.142  20.716  0.00  0.00    +0.000 C 
ATOM      8  C   UNL     1       1.060   3.934  20.050  0.00  0.00    +0.000 C 
ATOM      9  C   UNL     1       1.932   3.581  18.851  0.00  0.00    +0.000 C 
ENDBRANCH   3   5
BRANCH   2  10
ATOM     10  C   UNL     1       6.007   4.877  16.666  0.00  0.00    +0.000 C 
ATOM     11  C   UNL     1       5.862   4.020  15.645  0.00  0.00    +0.000 C 
BRANCH  11  12
ATOM     12  C   UNL     1       6.459   4.288  14.376  0.00  0.00    +0.000 A 
ATOM     13  C   UNL     1       7.490   5.155  14.044  0.00  0.00    +0.000 A 
ATOM     14  C   UNL     1       7.816   5.141  12.658  0.00  0.00    +0.000 A 
ATOM     15  C   UNL     1       7.025   4.261  11.959  0.00  0.00    +0.000 A 
ATOM     16  S   UNL     1       5.916   3.448  12.974  0.00  0.00    +0.000 S 
ENDBRANCH  11  12
ENDBRANCH   2  10
TORSDOF 3
ENDMDL
MODEL 9
REMARK VINA RESULT:      -5.8      6.061      7.653
REMARK  Name = 
REMARK  3 active torsions:
REMARK  status: ('A' for Active; 'I' for Inactive)
REMARK    1  A    between atoms: C_2  and  C_3
REMARK    2  A    between atoms: C_4  and  C_5
REMARK    3  A    between atoms: N_10  and  C_11
REMARK                            x       y       z     vdW  Elec       q    Type
REMARK                         _______ _______ _______ _____ _____    ______ ____
ROOT
ATOM      1  O   UNL     1       4.605   6.376  16.534  0.00  0.00    +0.000 OA
ATOM      2  C   UNL     1       4.675   5.165  16.699  0.00  0.00    +0.000 C 
ATOM      3  N   UNL     1       5.137   4.268  15.765  0.00  0.00    +0.000 N 
ATOM      4  H   UNL     1       5.239   3.297  16.022  0.00  0.00    +0.000 HD
ENDROOT
BRANCH   3   5
ATOM      5  C   UNL     1       5.688   4.686  14.494  0.00  0.00    +0.000 C 
ATOM      6  C   UNL     1       7.185   4.980  14.565  0.00  0.00    +0.000 C 
ATOM      7  C   UNL     1       7.631   4.925  13.107  0.00  0.00    +0.000 C 
ATOM      8  C   UNL     1       6.671   3.961  12.410  0.00  0.00    +0.000 C 
ATOM      9  C   UNL     1       5.626   3.574  13.451  0.00  0.00    +0.000 C 
ENDBRANCH   3   5
BRANCH   2  10
ATOM     10  C   UNL     1       4.284   4.498  17.965  0.00  0.00    +0.000 C 
ATOM     11  C   UNL     1       3.006   4.175  18.214  0.00  0.00    +0.000 C 
BRANCH  11  12
ATOM     12  C   UNL     1       2.632   3.588  19.460  0.00  0.00    +0.000 A 
ATOM     13  C   UNL     1       3.380   2.823  20.343  0.00  0.00    +0.000 A 
ATOM     14  C   UNL     1       2.652   2.420  21.499  0.00  0.00    +0.000 A 
ATOM     15  C   UNL     1       1.360   2.887  21.475  0.00  0.00    +0.000 A 
ATOM     16  S   UNL     1       1.042   3.821  20.079  0.00  0.00    +0.000 S 
ENDBRANCH  11  12
ENDBRANCH   2  10
TORSDOF 3
ENDMDL
