MODEL 1
REMARK VINA RESULT:      -5.9      0.000      0.000
REMARK  Name = 
REMARK  1 active torsions:
REMARK  status: ('A' for Active; 'I' for Inactive)
REMARK    1  A    between atoms: P_2  and  C_3
REMARK                            x       y       z     vdW  Elec       q    Type
REMARK                         _______ _______ _______ _____ _____    ______ ____
ROOT
ATOM      1  O   UNL     1       5.904   4.466  19.067  0.00  0.00    +0.000 OA
ATOM      2  P   UNL     1       4.634   4.681  18.275  0.00  0.00    +0.000 P 
ATOM      3  C   UNL     1       4.600   6.361  17.599  0.00  0.00    +0.000 C 
ATOM      4  C   UNL     1       5.285   6.186  16.270  0.00  0.00    +0.000 C 
ATOM      5  C   UNL     1       5.371   4.934  15.794  0.00  0.00    +0.000 C 
ATOM      6  C   UNL     1       4.772   3.861  16.651  0.00  0.00    +0.000 C 
ENDROOT
BRANCH   2   7
ATOM      7  C   UNL     1       3.163   4.086  19.042  0.00  0.00    +0.000 A 
ATOM      8  C   UNL     1       2.699   4.485  20.300  0.00  0.00    +0.000 A 
ATOM      9  C   UNL     1       1.469   4.011  20.777  0.00  0.00    +0.000 A 
ATOM     10  C   UNL     1       0.699   3.141  20.003  0.00  0.00    +0.000 A 
ATOM     11  C   UNL     1       1.159   2.726  18.759  0.00  0.00    +0.000 A 
ATOM     12  C   UNL     1       2.382   3.193  18.287  0.00  0.00    +0.000 A 
ENDBRANCH   2   7
TORSDOF 1
ENDMDL
MODEL 2
REMARK VINA RESULT:      -5.9      2.118      3.094
REMARK  Name = 
REMARK  1 active torsions:
REMARK  status: ('A' for Active; 'I' for Inactive)
REMARK    1  A    between atoms: P_2  and  C_3
REMARK                            x       y       z     vdW  Elec       q    Type
REMARK                         _______ _______ _______ _____ _____    ______ ____
ROOT
ATOM      1  O   UNL     1       6.998   4.262  16.447  0.00  0.00    +0.000 OA
ATOM      2  P   UNL     1       6.193   5.146  17.373  0.00  0.00    +0.000 P 
ATOM      3  C   UNL     1       7.073   5.370  18.940  0.00  0.00    +0.000 C 
ATOM      4  C   UNL     1       7.913   6.588  18.665  0.00  0.00    +0.000 C 
ATOM      5  C   UNL     1       7.551   7.349  17.621  0.00  0.00    +0.000 C 
ATOM      6  C   UNL     1       6.349   6.889  16.855  0.00  0.00    +0.000 C 
ENDROOT
BRANCH   2   7
ATOM      7  C   UNL     1       4.472   4.774  17.455  0.00  0.00    +0.000 A 
ATOM      8  C   UNL     1       3.908   3.527  17.166  0.00  0.00    +0.000 A 
ATOM      9  C   UNL     1       2.534   3.318  17.348  0.00  0.00    +0.000 A 
ATOM     10  C   UNL     1       1.719   4.350  17.819  0.00  0.00    +0.000 A 
ATOM     11  C   UNL     1       2.267   5.597  18.094  0.00  0.00    +0.000 A 
ATOM     12  C   UNL     1       3.630   5.806  17.909  0.00  0.00    +0.000 A 
ENDBRANCH   2   7
TORSDOF 1
ENDMDL
MODEL 3
REMARK VINA RESULT:      -5.9      1.132      4.728
REMARK  Name = 
REMARK  1 active torsions:
REMARK  status: ('A' for Active; 'I' for Inactive)
REMARK    1  A    between atoms: P_2  and  C_3
REMARK                            x       y       z     vdW  Elec       q    Type
REMARK                         _______ _______ _______ _____ _____    ______ ____
ROOT
ATOM      1  O   UNL     1       4.122   2.634  19.695  0.00  0.00    +0.000 OA
ATOM      2  P   UNL     1       3.200   3.602  18.988  0.00  0.00    +0.000 P 
ATOM      3  C   UNL     1       1.645   2.778  18.560  0.00  0.00    +0.000 C 
ATOM      4  C   UNL     1       0.805   3.023  19.785  0.00  0.00    +0.000 C 
ATOM      5  C   UNL     1       1.206   4.004  20.609  0.00  0.00    +0.000 C 
ATOM      6  C   UNL     1       2.447   4.737  20.203  0.00  0.00    +0.000 C 
ENDROOT
BRANCH   2   7
ATOM      7  C   UNL     1       3.962   4.592  17.745  0.00  0.00    +0.000 A 
ATOM      8  C   UNL     1       4.061   5.987  17.782  0.00  0.00    +0.000 A 
ATOM      9  C   UNL     1       4.765   6.667  16.780  0.00  0.00    +0.000 A 
ATOM     10  C   UNL     1       5.373   5.961  15.739  0.00  0.00    +0.000 A 
ATOM     11  C   UNL     1       5.266   4.577  15.684  0.00  0.00    +0.000 A 
ATOM     12  C   UNL     1       4.563   3.901  16.677  0.00  0.00    +0.000 A 
ENDBRANCH   2   7
TORSDOF 1
ENDMDL
MODEL 4
REMARK VINA RESULT:      -5.9      0.190      1.400
REMARK  Name = 
REMARK  1 active torsions:
REMARK  status: ('A' for Active; 'I' for Inactive)
REMARK    1  A    between atoms: P_2  and  C_3
REMARK                            x       y       z     vdW  Elec       q    Type
REMARK                         _______ _______ _______ _____ _____    ______ ____
ROOT
ATOM      1  O   UNL     1       5.828   4.388  18.943  0.00  0.00    +0.000 OA
ATOM      2  P   UNL     1       4.585   4.708  18.144  0.00  0.00    +0.000 P 
ATOM      3  C   UNL     1       4.637   6.426  17.574  0.00  0.00    +0.000 C 
ATOM      4  C   UNL     1       5.340   6.303  16.249  0.00  0.00    +0.000 C 
ATOM      5  C   UNL     1       5.382   5.080  15.697  0.00  0.00    +0.000 C 
ATOM      6  C   UNL     1       4.720   3.984  16.474  0.00  0.00    +0.000 C 
ENDROOT
BRANCH   2   7
ATOM      7  C   UNL     1       3.074   4.132  18.846  0.00  0.00    +0.000 A 
ATOM      8  C   UNL     1       2.179   3.263  18.214  0.00  0.00    +0.000 A 
ATOM      9  C   UNL     1       1.047   2.801  18.900  0.00  0.00    +0.000 A 
ATOM     10  C   UNL     1       0.806   3.201  20.216  0.00  0.00    +0.000 A 
ATOM     11  C   UNL     1       1.681   4.077  20.847  0.00  0.00    +0.000 A 
ATOM     12  C   UNL     1       2.802   4.540  20.164  0.00  0.00    +0.000 A 
ENDBRANCH   2   7
TORSDOF 1
ENDMDL
MODEL 5
REMARK VINA RESULT:      -5.9      1.822      4.874
REMARK  Name = 
REMARK  1 active torsions:
REMARK  status: ('A' for Active; 'I' for Inactive)
REMARK    1  A    between atoms: P_2  and  C_3
REMARK                            x       y       z     vdW  Elec       q    Type
REMARK                         _______ _______ _______ _____ _____    ______ ____
ROOT
ATOM      1  O   UNL     1       2.224   2.104  17.875  0.00  0.00    +0.000 OA
ATOM      2  P   UNL     1       2.638   3.341  18.640  0.00  0.00    +0.000 P 
ATOM      3  C   UNL     1       1.220   4.019  19.540  0.00  0.00    +0.000 C 
ATOM      4  C   UNL     1       1.301   3.295  20.857  0.00  0.00    +0.000 C 
ATOM      5  C   UNL     1       2.472   2.715  21.159  0.00  0.00    +0.000 C 
ATOM      6  C   UNL     1       3.561   2.860  20.140  0.00  0.00    +0.000 C 
ENDROOT
BRANCH   2   7
ATOM      7  C   UNL     1       3.647   4.474  17.743  0.00  0.00    +0.000 A 
ATOM      8  C   UNL     1       4.517   4.122  16.706  0.00  0.00    +0.000 A 
ATOM      9  C   UNL     1       5.209   5.118  16.002  0.00  0.00    +0.000 A 
ATOM     10  C   UNL     1       5.034   6.465  16.328  0.00  0.00    +0.000 A 
ATOM     11  C   UNL     1       4.184   6.823  17.367  0.00  0.00    +0.000 A 
ATOM     12  C   UNL     1       3.501   5.835  18.069  0.00  0.00    +0.000 A 
ENDBRANCH   2   7
TORSDOF 1
ENDMDL
MODEL 6
REMARK VINA RESULT:      -5.9      1.833      4.728
REMARK  Name = 
REMARK  1 active torsions:
REMARK  status: ('A' for Active; 'I' for Inactive)
REMARK    1  A    between atoms: P_2  and  C_3
REMARK                            x       y       z     vdW  Elec       q    Type
REMARK                         _______ _______ _______ _____ _____    ______ ____
ROOT
ATOM      1  O   UNL     1       2.139   2.122  17.989  0.00  0.00    +0.000 OA
ATOM      2  P   UNL     1       2.531   3.364  18.757  0.00  0.00    +0.000 P 
ATOM      3  C   UNL     1       1.132   3.950  19.747  0.00  0.00    +0.000 C 
ATOM      4  C   UNL     1       1.321   3.207  21.042  0.00  0.00    +0.000 C 
ATOM      5  C   UNL     1       2.536   2.682  21.267  0.00  0.00    +0.000 C 
ATOM      6  C   UNL     1       3.558   2.903  20.194  0.00  0.00    +0.000 C 
ENDROOT
BRANCH   2   7
ATOM      7  C   UNL     1       3.429   4.565  17.832  0.00  0.00    +0.000 A 
ATOM      8  C   UNL     1       3.384   5.945  18.056  0.00  0.00    +0.000 A 
ATOM      9  C   UNL     1       4.207   6.804  17.315  0.00  0.00    +0.000 A 
ATOM     10  C   UNL     1       5.078   6.290  16.351  0.00  0.00    +0.000 A 
ATOM     11  C   UNL     1       5.118   4.922  16.110  0.00  0.00    +0.000 A 
ATOM     12  C   UNL     1       4.298   4.070  16.842  0.00  0.00    +0.000 A 
ENDBRANCH   2   7
TORSDOF 1
ENDMDL
MODEL 7
REMARK VINA RESULT:      -5.9      1.160      4.865
REMARK  Name = 
REMARK  1 active torsions:
REMARK  status: ('A' for Active; 'I' for Inactive)
REMARK    1  A    between atoms: P_2  and  C_3
REMARK                            x       y       z     vdW  Elec       q    Type
REMARK                         _______ _______ _______ _____ _____    ______ ____
ROOT
ATOM      1  O   UNL     1       4.073   2.308  19.488  0.00  0.00    +0.000 OA
ATOM      2  P   UNL     1       3.233   3.422  18.902  0.00  0.00    +0.000 P 
ATOM      3  C   UNL     1       1.608   2.786  18.419  0.00  0.00    +0.000 C 
ATOM      4  C   UNL     1       0.804   2.973  19.678  0.00  0.00    +0.000 C 
ATOM      5  C   UNL     1       1.297   3.823  20.591  0.00  0.00    +0.000 C 
ATOM      6  C   UNL     1       2.595   4.484  20.242  0.00  0.00    +0.000 C 
ENDROOT
BRANCH   2   7
ATOM      7  C   UNL     1       4.069   4.466  17.755  0.00  0.00    +0.000 A 
ATOM      8  C   UNL     1       4.732   4.023  16.606  0.00  0.00    +0.000 A 
ATOM      9  C   UNL     1       5.291   4.951  15.716  0.00  0.00    +0.000 A 
ATOM     10  C   UNL     1       5.190   6.321  15.968  0.00  0.00    +0.000 A 
ATOM     11  C   UNL     1       4.548   6.770  17.115  0.00  0.00    +0.000 A 
ATOM     12  C   UNL     1       3.997   5.849  18.001  0.00  0.00    +0.000 A 
ENDBRANCH   2   7
TORSDOF 1
ENDMDL
MODEL 8
REMARK VINA RESULT:      -5.9      1.060      1.123
REMARK  Name = 
REMARK  1 active torsions:
REMARK  status: ('A' for Active; 'I' for Inactive)
REMARK    1  A    between atoms: P_2  and  C_3
REMARK                            x       y       z     vdW  Elec       q    Type
REMARK                         _______ _______ _______ _____ _____    ______ ____
ROOT
ATOM      1  O   UNL     1       6.166   4.390  19.092  0.00  0.00    +0.000 OA
ATOM      2  P   UNL     1       4.799   4.648  18.499  0.00  0.00    +0.000 P 
ATOM      3  C   UNL     1       4.769   6.269  17.692  0.00  0.00    +0.000 C 
ATOM      4  C   UNL     1       5.208   5.937  16.291  0.00  0.00    +0.000 C 
ATOM      5  C   UNL     1       5.127   4.650  15.919  0.00  0.00    +0.000 C 
ATOM      6  C   UNL     1       4.606   3.699  16.953  0.00  0.00    +0.000 C 
ENDROOT
BRANCH   2   7
ATOM      7  C   UNL     1       3.439   4.237  19.542  0.00  0.00    +0.000 A 
ATOM      8  C   UNL     1       2.303   5.032  19.726  0.00  0.00    +0.000 A 
ATOM      9  C   UNL     1       1.241   4.567  20.514  0.00  0.00    +0.000 A 
ATOM     10  C   UNL     1       1.307   3.309  21.118  0.00  0.00    +0.000 A 
ATOM     11  C   UNL     1       2.438   2.519  20.954  0.00  0.00    +0.000 A 
ATOM     12  C   UNL     1       3.495   2.983  20.177  0.00  0.00    +0.000 A 
ENDBRANCH   2   7
TORSDOF 1
ENDMDL
MODEL 9
REMARK VINA RESULT:      -5.8      1.922      4.952
REMARK  Name = 
REMARK  1 active torsions:
REMARK  status: ('A' for Active; 'I' for Inactive)
REMARK    1  A    between atoms: P_2  and  C_3
REMARK                            x       y       z     vdW  Elec       q    Type
REMARK                         _______ _______ _______ _____ _____    ______ ____
ROOT
ATOM      1  O   UNL     1       0.920   4.000  17.403  0.00  0.00    +0.000 OA
ATOM      2  P   UNL     1       2.138   4.116  18.292  0.00  0.00    +0.000 P 
ATOM      3  C   UNL     1       1.683   4.868  19.875  0.00  0.00    +0.000 C 
ATOM      4  C   UNL     1       1.311   3.668  20.705  0.00  0.00    +0.000 C 
ATOM      5  C   UNL     1       1.740   2.474  20.269  0.00  0.00    +0.000 C 
ATOM      6  C   UNL     1       2.541   2.484  19.003  0.00  0.00    +0.000 C 
ENDROOT
BRANCH   2   7
ATOM      7  C   UNL     1       3.592   4.717  17.497  0.00  0.00    +0.000 A 
ATOM      8  C   UNL     1       4.441   3.947  16.695  0.00  0.00    +0.000 A 
ATOM      9  C   UNL     1       5.524   4.549  16.040  0.00  0.00    +0.000 A 
ATOM     10  C   UNL     1       5.763   5.918  16.181  0.00  0.00    +0.000 A 
ATOM     11  C   UNL     1       4.935   6.688  16.988  0.00  0.00    +0.000 A 
ATOM     12  C   UNL     1       3.862   6.089  17.642  0.00  0.00    +0.000 A 
ENDBRANCH   2   7
TORSDOF 1
ENDMDL
