MODEL 1
REMARK VINA RESULT:      -6.7      0.000      0.000
REMARK  Name = 
REMARK  7 active torsions:
REMARK  status: ('A' for Active; 'I' for Inactive)
REMARK    1  A    between atoms: C_1  and  O_2
REMARK    2  A    between atoms: O_2  and  C_3
REMARK    3  A    between atoms: C_6  and  S_7
REMARK    4  A    between atoms: S_7  and  N_10
REMARK    5  A    between atoms: N_10  and  C_11
REMARK    6  A    between atoms: C_17  and  C_18
REMARK    7  A    between atoms: C_19  and  C_20
REMARK                            x       y       z     vdW  Elec       q    Type
REMARK                         _______ _______ _______ _____ _____    ______ ____
ROOT
ATOM      1  S   UNL     1       4.138   2.982  19.114  0.00  0.00    +0.000 S 
ATOM      2  O   UNL     1       3.115   2.232  18.419  0.00  0.00    +0.000 OA
ATOM      3  O   UNL     1       5.004   2.345  20.082  0.00  0.00    +0.000 OA
ENDROOT
BRANCH   1   7
ATOM      4  C   UNL     1       6.382   5.057  15.670  0.00  0.00    +0.000 A 
ATOM      5  C   UNL     1       5.515   3.987  15.468  0.00  0.00    +0.000 A 
ATOM      6  C   UNL     1       4.855   3.411  16.549  0.00  0.00    +0.000 A 
ATOM      7  C   UNL     1       5.062   3.877  17.862  0.00  0.00    +0.000 A 
ATOM      8  C   UNL     1       5.977   4.931  18.103  0.00  0.00    +0.000 A 
ATOM      9  C   UNL     1       6.295   5.466  19.473  0.00  0.00    +0.000 C 
ATOM     10  C   UNL     1       6.613   5.544  16.978  0.00  0.00    +0.000 A 
ATOM     11  C   UNL     1       7.563   6.717  17.119  0.00  0.00    +0.000 C 
BRANCH   4  13
ATOM     12  C   UNL     1       7.285   4.901  13.476  0.00  0.00    +0.000 C 
ATOM     13  O   UNL     1       7.096   5.661  14.664  0.00  0.00    +0.000 OA
ENDBRANCH   4  13
ENDBRANCH   1   7
BRANCH   1  14
ATOM     14  N   UNL     1       3.303   4.207  19.947  0.00  0.00    +0.000 NA
ATOM     15  H   UNL     1       3.974   4.950  20.151  0.00  0.00    +0.000 HD
BRANCH  14  16
ATOM     16  C   UNL     1       1.992   4.675  19.428  0.00  0.00    +0.000 C 
ATOM     17  C   UNL     1       1.215   5.507  20.452  0.00  0.00    +0.000 C 
ATOM     18  C   UNL     1       1.869   6.857  20.736  0.00  0.00    +0.000 C 
ATOM     19  C   UNL     1       2.057   7.657  19.454  0.00  0.00    +0.000 C 
ATOM     20  C   UNL     1       2.851   6.868  18.418  0.00  0.00    +0.000 C 
ATOM     21  C   UNL     1       2.231   5.496  18.148  0.00  0.00    +0.000 C 
ENDBRANCH  14  16
ENDBRANCH   1  14
TORSDOF 4
ENDMDL
MODEL 2
REMARK VINA RESULT:      -6.2      2.019      3.010
REMARK  Name = 
REMARK  7 active torsions:
REMARK  status: ('A' for Active; 'I' for Inactive)
REMARK    1  A    between atoms: C_1  and  O_2
REMARK    2  A    between atoms: O_2  and  C_3
REMARK    3  A    between atoms: C_6  and  S_7
REMARK    4  A    between atoms: S_7  and  N_10
REMARK    5  A    between atoms: N_10  and  C_11
REMARK    6  A    between atoms: C_17  and  C_18
REMARK    7  A    between atoms: C_19  and  C_20
REMARK                            x       y       z     vdW  Elec       q    Type
REMARK                         _______ _______ _______ _____ _____    ______ ____
ROOT
ATOM      1  S   UNL     1       5.014   5.378  18.608  0.00  0.00    +0.000 S 
ATOM      2  O   UNL     1       6.122   5.046  19.478  0.00  0.00    +0.000 OA
ATOM      3  O   UNL     1       4.384   6.679  18.665  0.00  0.00    +0.000 OA
ENDROOT
BRANCH   1   7
ATOM      4  C   UNL     1       6.072   4.001  14.343  0.00  0.00    +0.000 A 
ATOM      5  C   UNL     1       5.050   3.422  15.091  0.00  0.00    +0.000 A 
ATOM      6  C   UNL     1       4.769   3.892  16.370  0.00  0.00    +0.000 A 
ATOM      7  C   UNL     1       5.517   4.939  16.942  0.00  0.00    +0.000 A 
ATOM      8  C   UNL     1       6.595   5.513  16.224  0.00  0.00    +0.000 A 
ATOM      9  C   UNL     1       7.477   6.604  16.770  0.00  0.00    +0.000 C 
ATOM     10  C   UNL     1       6.843   5.052  14.894  0.00  0.00    +0.000 A 
ATOM     11  C   UNL     1       7.933   5.638  14.017  0.00  0.00    +0.000 C 
BRANCH   4  13
ATOM     12  C   UNL     1       5.373   3.252  12.198  0.00  0.00    +0.000 C 
ATOM     13  O   UNL     1       6.434   3.576  13.089  0.00  0.00    +0.000 OA
ENDBRANCH   4  13
ENDBRANCH   1   7
BRANCH   1  14
ATOM     14  N   UNL     1       3.805   4.240  18.974  0.00  0.00    +0.000 NA
ATOM     15  H   UNL     1       4.172   3.627  19.705  0.00  0.00    +0.000 HD
BRANCH  14  16
ATOM     16  C   UNL     1       2.411   4.705  19.192  0.00  0.00    +0.000 C 
ATOM     17  C   UNL     1       1.369   3.704  18.689  0.00  0.00    +0.000 C 
ATOM     18  C   UNL     1       1.336   2.419  19.514  0.00  0.00    +0.000 C 
ATOM     19  C   UNL     1       1.098   2.719  20.988  0.00  0.00    +0.000 C 
ATOM     20  C   UNL     1       2.136   3.695  21.531  0.00  0.00    +0.000 C 
ATOM     21  C   UNL     1       2.208   4.974  20.694  0.00  0.00    +0.000 C 
ENDBRANCH  14  16
ENDBRANCH   1  14
TORSDOF 4
ENDMDL
MODEL 3
REMARK VINA RESULT:      -6.2      0.924      2.226
REMARK  Name = 
REMARK  7 active torsions:
REMARK  status: ('A' for Active; 'I' for Inactive)
REMARK    1  A    between atoms: C_1  and  O_2
REMARK    2  A    between atoms: O_2  and  C_3
REMARK    3  A    between atoms: C_6  and  S_7
REMARK    4  A    between atoms: S_7  and  N_10
REMARK    5  A    between atoms: N_10  and  C_11
REMARK    6  A    between atoms: C_17  and  C_18
REMARK    7  A    between atoms: C_19  and  C_20
REMARK                            x       y       z     vdW  Elec       q    Type
REMARK                         _______ _______ _______ _____ _____    ______ ____
ROOT
ATOM      1  S   UNL     1       4.289   2.962  19.188  0.00  0.00    +0.000 S 
ATOM      2  O   UNL     1       3.472   2.374  18.149  0.00  0.00    +0.000 OA
ATOM      3  O   UNL     1       4.998   2.134  20.140  0.00  0.00    +0.000 OA
ENDROOT
BRANCH   1   7
ATOM      4  C   UNL     1       7.115   6.147  17.435  0.00  0.00    +0.000 A 
ATOM      5  C   UNL     1       6.864   6.031  18.799  0.00  0.00    +0.000 A 
ATOM      6  C   UNL     1       6.009   5.038  19.269  0.00  0.00    +0.000 A 
ATOM      7  C   UNL     1       5.369   4.149  18.384  0.00  0.00    +0.000 A 
ATOM      8  C   UNL     1       5.567   4.275  16.987  0.00  0.00    +0.000 A 
ATOM      9  C   UNL     1       4.893   3.402  15.964  0.00  0.00    +0.000 C 
ATOM     10  C   UNL     1       6.482   5.270  16.522  0.00  0.00    +0.000 A 
ATOM     11  C   UNL     1       6.812   5.452  15.053  0.00  0.00    +0.000 C 
BRANCH   4  13
ATOM     12  C   UNL     1       7.965   8.363  17.572  0.00  0.00    +0.000 C 
ATOM     13  O   UNL     1       7.918   7.117  16.887  0.00  0.00    +0.000 OA
ENDBRANCH   4  13
ENDBRANCH   1   7
BRANCH   1  14
ATOM     14  N   UNL     1       3.228   3.934  20.092  0.00  0.00    +0.000 NA
ATOM     15  H   UNL     1       3.788   4.661  20.544  0.00  0.00    +0.000 HD
BRANCH  14  16
ATOM     16  C   UNL     1       1.970   4.416  19.466  0.00  0.00    +0.000 C 
ATOM     17  C   UNL     1       1.053   5.135  20.458  0.00  0.00    +0.000 C 
ATOM     18  C   UNL     1       1.624   6.470  20.931  0.00  0.00    +0.000 C 
ATOM     19  C   UNL     1       1.931   7.384  19.753  0.00  0.00    +0.000 C 
ATOM     20  C   UNL     1       2.865   6.709  18.754  0.00  0.00    +0.000 C 
ATOM     21  C   UNL     1       2.326   5.353  18.297  0.00  0.00    +0.000 C 
ENDBRANCH  14  16
ENDBRANCH   1  14
TORSDOF 4
ENDMDL
MODEL 4
REMARK VINA RESULT:      -6.1      2.368      5.669
REMARK  Name = 
REMARK  7 active torsions:
REMARK  status: ('A' for Active; 'I' for Inactive)
REMARK    1  A    between atoms: C_1  and  O_2
REMARK    2  A    between atoms: O_2  and  C_3
REMARK    3  A    between atoms: C_6  and  S_7
REMARK    4  A    between atoms: S_7  and  N_10
REMARK    5  A    between atoms: N_10  and  C_11
REMARK    6  A    between atoms: C_17  and  C_18
REMARK    7  A    between atoms: C_19  and  C_20
REMARK                            x       y       z     vdW  Elec       q    Type
REMARK                         _______ _______ _______ _____ _____    ______ ____
ROOT
ATOM      1  S   UNL     1       3.638   4.484  18.152  0.00  0.00    +0.000 S 
ATOM      2  O   UNL     1       3.111   3.453  19.019  0.00  0.00    +0.000 OA
ATOM      3  O   UNL     1       3.655   4.315  16.715  0.00  0.00    +0.000 OA
ENDROOT
BRANCH   1   7
ATOM      4  C   UNL     1       1.733   8.563  19.118  0.00  0.00    +0.000 A 
ATOM      5  C   UNL     1       2.352   8.289  17.902  0.00  0.00    +0.000 A 
ATOM      6  C   UNL     1       2.898   7.032  17.665  0.00  0.00    +0.000 A 
ATOM      7  C   UNL     1       2.856   6.022  18.645  0.00  0.00    +0.000 A 
ATOM      8  C   UNL     1       2.276   6.287  19.910  0.00  0.00    +0.000 A 
ATOM      9  C   UNL     1       2.224   5.288  21.034  0.00  0.00    +0.000 C 
ATOM     10  C   UNL     1       1.678   7.569  20.124  0.00  0.00    +0.000 A 
ATOM     11  C   UNL     1       0.979   7.937  21.418  0.00  0.00    +0.000 C 
BRANCH   4  13
ATOM     12  C   UNL     1       0.293  10.353  18.505  0.00  0.00    +0.000 C 
ATOM     13  O   UNL     1       1.199   9.785  19.444  0.00  0.00    +0.000 OA
ENDBRANCH   4  13
ENDBRANCH   1   7
BRANCH   1  14
ATOM     14  N   UNL     1       5.256   4.686  18.632  0.00  0.00    +0.000 NA
ATOM     15  H   UNL     1       5.425   4.050  19.415  0.00  0.00    +0.000 HD
BRANCH  14  16
ATOM     16  C   UNL     1       6.325   4.701  17.600  0.00  0.00    +0.000 C 
ATOM     17  C   UNL     1       6.185   5.870  16.622  0.00  0.00    +0.000 C 
ATOM     18  C   UNL     1       6.450   7.224  17.277  0.00  0.00    +0.000 C 
ATOM     19  C   UNL     1       7.824   7.258  17.931  0.00  0.00    +0.000 C 
ATOM     20  C   UNL     1       7.990   6.120  18.934  0.00  0.00    +0.000 C 
ATOM     21  C   UNL     1       7.693   4.758  18.304  0.00  0.00    +0.000 C 
ENDBRANCH  14  16
ENDBRANCH   1  14
TORSDOF 4
ENDMDL
MODEL 5
REMARK VINA RESULT:      -6.1      3.095      6.599
REMARK  Name = 
REMARK  7 active torsions:
REMARK  status: ('A' for Active; 'I' for Inactive)
REMARK    1  A    between atoms: C_1  and  O_2
REMARK    2  A    between atoms: O_2  and  C_3
REMARK    3  A    between atoms: C_6  and  S_7
REMARK    4  A    between atoms: S_7  and  N_10
REMARK    5  A    between atoms: N_10  and  C_11
REMARK    6  A    between atoms: C_17  and  C_18
REMARK    7  A    between atoms: C_19  and  C_20
REMARK                            x       y       z     vdW  Elec       q    Type
REMARK                         _______ _______ _______ _____ _____    ______ ____
ROOT
ATOM      1  S   UNL     1       2.521   5.570  19.628  0.00  0.00    +0.000 S 
ATOM      2  O   UNL     1       2.512   4.880  20.900  0.00  0.00    +0.000 OA
ATOM      3  O   UNL     1       1.952   4.961  18.445  0.00  0.00    +0.000 OA
ENDROOT
BRANCH   1   7
ATOM      4  C   UNL     1       0.718   9.670  20.696  0.00  0.00    +0.000 A 
ATOM      5  C   UNL     1       0.669   8.577  21.558  0.00  0.00    +0.000 A 
ATOM      6  C   UNL     1       1.244   7.367  21.182  0.00  0.00    +0.000 A 
ATOM      7  C   UNL     1       1.866   7.214  19.928  0.00  0.00    +0.000 A 
ATOM      8  C   UNL     1       1.888   8.294  19.012  0.00  0.00    +0.000 A 
ATOM      9  C   UNL     1       2.488   8.211  17.635  0.00  0.00    +0.000 C 
ATOM     10  C   UNL     1       1.332   9.544  19.428  0.00  0.00    +0.000 A 
ATOM     11  C   UNL     1       1.356  10.780  18.549  0.00  0.00    +0.000 C 
BRANCH   4  13
ATOM     12  C   UNL     1      -0.468  11.022  22.252  0.00  0.00    +0.000 C 
ATOM     13  O   UNL     1       0.147  10.887  20.976  0.00  0.00    +0.000 OA
ENDBRANCH   4  13
ENDBRANCH   1   7
BRANCH   1  14
ATOM     14  N   UNL     1       4.162   5.849  19.285  0.00  0.00    +0.000 NA
ATOM     15  H   UNL     1       4.644   5.977  20.177  0.00  0.00    +0.000 HD
BRANCH  14  16
ATOM     16  C   UNL     1       4.863   4.966  18.318  0.00  0.00    +0.000 C 
ATOM     17  C   UNL     1       4.956   5.578  16.918  0.00  0.00    +0.000 C 
ATOM     18  C   UNL     1       5.880   6.793  16.864  0.00  0.00    +0.000 C 
ATOM     19  C   UNL     1       7.273   6.446  17.370  0.00  0.00    +0.000 C 
ATOM     20  C   UNL     1       7.222   5.856  18.776  0.00  0.00    +0.000 C 
ATOM     21  C   UNL     1       6.272   4.660  18.858  0.00  0.00    +0.000 C 
ENDBRANCH  14  16
ENDBRANCH   1  14
TORSDOF 4
ENDMDL
MODEL 6
REMARK VINA RESULT:      -6.1      3.742      6.540
REMARK  Name = 
REMARK  7 active torsions:
REMARK  status: ('A' for Active; 'I' for Inactive)
REMARK    1  A    between atoms: C_1  and  O_2
REMARK    2  A    between atoms: O_2  and  C_3
REMARK    3  A    between atoms: C_6  and  S_7
REMARK    4  A    between atoms: S_7  and  N_10
REMARK    5  A    between atoms: N_10  and  C_11
REMARK    6  A    between atoms: C_17  and  C_18
REMARK    7  A    between atoms: C_19  and  C_20
REMARK                            x       y       z     vdW  Elec       q    Type
REMARK                         _______ _______ _______ _____ _____    ______ ____
ROOT
ATOM      1  S   UNL     1       3.081   6.309  18.466  0.00  0.00    +0.000 S 
ATOM      2  O   UNL     1       2.180   5.732  17.492  0.00  0.00    +0.000 OA
ATOM      3  O   UNL     1       4.379   6.816  18.076  0.00  0.00    +0.000 OA
ENDROOT
BRANCH   1   7
ATOM      4  C   UNL     1       0.615   9.174  21.096  0.00  0.00    +0.000 A 
ATOM      5  C   UNL     1       1.000   7.905  21.520  0.00  0.00    +0.000 A 
ATOM      6  C   UNL     1       1.757   7.091  20.683  0.00  0.00    +0.000 A 
ATOM      7  C   UNL     1       2.131   7.517  19.394  0.00  0.00    +0.000 A 
ATOM      8  C   UNL     1       1.712   8.784  18.918  0.00  0.00    +0.000 A 
ATOM      9  C   UNL     1       2.024   9.306  17.542  0.00  0.00    +0.000 C 
ATOM     10  C   UNL     1       0.973   9.628  19.805  0.00  0.00    +0.000 A 
ATOM     11  C   UNL     1       0.527  11.025  19.418  0.00  0.00    +0.000 C 
BRANCH   4  13
ATOM     12  C   UNL     1      -0.344   9.678  23.213  0.00  0.00    +0.000 C 
ATOM     13  O   UNL     1      -0.158  10.026  21.846  0.00  0.00    +0.000 OA
ENDBRANCH   4  13
ENDBRANCH   1   7
BRANCH   1  14
ATOM     14  N   UNL     1       3.366   5.071  19.596  0.00  0.00    +0.000 NA
ATOM     15  H   UNL     1       2.985   5.381  20.493  0.00  0.00    +0.000 HD
BRANCH  14  16
ATOM     16  C   UNL     1       3.044   3.667  19.233  0.00  0.00    +0.000 C 
ATOM     17  C   UNL     1       3.525   2.661  20.281  0.00  0.00    +0.000 C 
ATOM     18  C   UNL     1       2.755   2.763  21.596  0.00  0.00    +0.000 C 
ATOM     19  C   UNL     1       1.258   2.599  21.369  0.00  0.00    +0.000 C 
ATOM     20  C   UNL     1       0.737   3.605  20.347  0.00  0.00    +0.000 C 
ATOM     21  C   UNL     1       1.522   3.543  19.036  0.00  0.00    +0.000 C 
ENDBRANCH  14  16
ENDBRANCH   1  14
TORSDOF 4
ENDMDL
MODEL 7
REMARK VINA RESULT:      -6.0      2.797      6.738
REMARK  Name = 
REMARK  7 active torsions:
REMARK  status: ('A' for Active; 'I' for Inactive)
REMARK    1  A    between atoms: C_1  and  O_2
REMARK    2  A    between atoms: O_2  and  C_3
REMARK    3  A    between atoms: C_6  and  S_7
REMARK    4  A    between atoms: S_7  and  N_10
REMARK    5  A    between atoms: N_10  and  C_11
REMARK    6  A    between atoms: C_17  and  C_18
REMARK    7  A    between atoms: C_19  and  C_20
REMARK                            x       y       z     vdW  Elec       q    Type
REMARK                         _______ _______ _______ _____ _____    ______ ____
ROOT
ATOM      1  S   UNL     1       6.343   4.705  15.299  0.00  0.00    +0.000 S 
ATOM      2  O   UNL     1       6.144   5.999  14.684  0.00  0.00    +0.000 OA
ATOM      3  O   UNL     1       7.624   4.334  15.861  0.00  0.00    +0.000 OA
ENDROOT
BRANCH   1   7
ATOM      4  C   UNL     1       2.884   3.786  18.196  0.00  0.00    +0.000 A 
ATOM      5  C   UNL     1       3.498   2.806  17.419  0.00  0.00    +0.000 A 
ATOM      6  C   UNL     1       4.548   3.145  16.572  0.00  0.00    +0.000 A 
ATOM      7  C   UNL     1       4.998   4.475  16.465  0.00  0.00    +0.000 A 
ATOM      8  C   UNL     1       4.360   5.501  17.205  0.00  0.00    +0.000 A 
ATOM      9  C   UNL     1       4.741   6.954  17.122  0.00  0.00    +0.000 C 
ATOM     10  C   UNL     1       3.312   5.131  18.106  0.00  0.00    +0.000 A 
ATOM     11  C   UNL     1       2.602   6.140  18.988  0.00  0.00    +0.000 C 
BRANCH   4  13
ATOM     12  C   UNL     1       0.978   2.451  18.683  0.00  0.00    +0.000 C 
ATOM     13  O   UNL     1       1.822   3.542  19.031  0.00  0.00    +0.000 OA
ENDBRANCH   4  13
ENDBRANCH   1   7
BRANCH   1  14
ATOM     14  N   UNL     1       6.009   3.575  14.074  0.00  0.00    +0.000 NA
ATOM     15  H   UNL     1       5.247   2.979  14.406  0.00  0.00    +0.000 HD
BRANCH  14  16
ATOM     16  C   UNL     1       5.867   4.043  12.671  0.00  0.00    +0.000 C 
ATOM     17  C   UNL     1       7.207   4.113  11.934  0.00  0.00    +0.000 C 
ATOM     18  C   UNL     1       7.814   2.736  11.678  0.00  0.00    +0.000 C 
ATOM     19  C   UNL     1       6.847   1.843  10.912  0.00  0.00    +0.000 C 
ATOM     20  C   UNL     1       5.507   1.728  11.632  0.00  0.00    +0.000 C 
ATOM     21  C   UNL     1       4.901   3.101  11.930  0.00  0.00    +0.000 C 
ENDBRANCH  14  16
ENDBRANCH   1  14
TORSDOF 4
ENDMDL
MODEL 8
REMARK VINA RESULT:      -6.0      1.473      2.364
REMARK  Name = 
REMARK  7 active torsions:
REMARK  status: ('A' for Active; 'I' for Inactive)
REMARK    1  A    between atoms: C_1  and  O_2
REMARK    2  A    between atoms: O_2  and  C_3
REMARK    3  A    between atoms: C_6  and  S_7
REMARK    4  A    between atoms: S_7  and  N_10
REMARK    5  A    between atoms: N_10  and  C_11
REMARK    6  A    between atoms: C_17  and  C_18
REMARK    7  A    between atoms: C_19  and  C_20
REMARK                            x       y       z     vdW  Elec       q    Type
REMARK                         _______ _______ _______ _____ _____    ______ ____
ROOT
ATOM      1  S   UNL     1       3.483   3.191  17.483  0.00  0.00    +0.000 S 
ATOM      2  O   UNL     1       2.345   3.280  16.593  0.00  0.00    +0.000 OA
ATOM      3  O   UNL     1       3.879   1.927  18.064  0.00  0.00    +0.000 OA
ENDROOT
BRANCH   1   7
ATOM      4  C   UNL     1       6.937   5.098  15.109  0.00  0.00    +0.000 A 
ATOM      5  C   UNL     1       6.139   4.080  14.593  0.00  0.00    +0.000 A 
ATOM      6  C   UNL     1       5.101   3.554  15.356  0.00  0.00    +0.000 A 
ATOM      7  C   UNL     1       4.847   4.018  16.660  0.00  0.00    +0.000 A 
ATOM      8  C   UNL     1       5.674   5.018  17.230  0.00  0.00    +0.000 A 
ATOM      9  C   UNL     1       5.507   5.545  18.629  0.00  0.00    +0.000 C 
ATOM     10  C   UNL     1       6.708   5.582  16.419  0.00  0.00    +0.000 A 
ATOM     11  C   UNL     1       7.611   6.697  16.908  0.00  0.00    +0.000 C 
BRANCH   4  13
ATOM     12  C   UNL     1       8.031   5.451  13.027  0.00  0.00    +0.000 C 
ATOM     13  O   UNL     1       8.000   5.649  14.436  0.00  0.00    +0.000 OA
ENDBRANCH   4  13
ENDBRANCH   1   7
BRANCH   1  14
ATOM     14  N   UNL     1       3.113   4.224  18.782  0.00  0.00    +0.000 NA
ATOM     15  H   UNL     1       3.599   5.108  18.618  0.00  0.00    +0.000 HD
BRANCH  14  16
ATOM     16  C   UNL     1       1.701   4.361  19.223  0.00  0.00    +0.000 C 
ATOM     17  C   UNL     1       0.951   3.027  19.227  0.00  0.00    +0.000 C 
ATOM     18  C   UNL     1       1.457   2.067  20.301  0.00  0.00    +0.000 C 
ATOM     19  C   UNL     1       1.389   2.704  21.683  0.00  0.00    +0.000 C 
ATOM     20  C   UNL     1       2.149   4.025  21.724  0.00  0.00    +0.000 C 
ATOM     21  C   UNL     1       1.681   4.986  20.630  0.00  0.00    +0.000 C 
ENDBRANCH  14  16
ENDBRANCH   1  14
TORSDOF 4
ENDMDL
MODEL 9
REMARK VINA RESULT:      -6.0      2.447      6.137
REMARK  Name = 
REMARK  7 active torsions:
REMARK  status: ('A' for Active; 'I' for Inactive)
REMARK    1  A    between atoms: C_1  and  O_2
REMARK    2  A    between atoms: O_2  and  C_3
REMARK    3  A    between atoms: C_6  and  S_7
REMARK    4  A    between atoms: S_7  and  N_10
REMARK    5  A    between atoms: N_10  and  C_11
REMARK    6  A    between atoms: C_17  and  C_18
REMARK    7  A    between atoms: C_19  and  C_20
REMARK                            x       y       z     vdW  Elec       q    Type
REMARK                         _______ _______ _______ _____ _____    ______ ____
ROOT
ATOM      1  S   UNL     1       7.293   4.991  17.012  0.00  0.00    +0.000 S 
ATOM      2  O   UNL     1       7.633   6.367  16.718  0.00  0.00    +0.000 OA
ATOM      3  O   UNL     1       8.224   4.121  17.695  0.00  0.00    +0.000 OA
ENDROOT
BRANCH   1   7
ATOM      4  C   UNL     1       3.237   4.751  19.178  0.00  0.00    +0.000 A 
ATOM      5  C   UNL     1       4.227   3.784  19.324  0.00  0.00    +0.000 A 
ATOM      6  C   UNL     1       5.438   3.920  18.652  0.00  0.00    +0.000 A 
ATOM      7  C   UNL     1       5.681   5.017  17.803  0.00  0.00    +0.000 A 
ATOM      8  C   UNL     1       4.673   5.990  17.596  0.00  0.00    +0.000 A 
ATOM      9  C   UNL     1       4.824   7.170  16.675  0.00  0.00    +0.000 C 
ATOM     10  C   UNL     1       3.451   5.862  18.328  0.00  0.00    +0.000 A 
ATOM     11  C   UNL     1       2.330   6.878  18.227  0.00  0.00    +0.000 C 
BRANCH   4  13
ATOM     12  C   UNL     1       1.621   3.403  20.286  0.00  0.00    +0.000 C 
ATOM     13  O   UNL     1       2.004   4.676  19.778  0.00  0.00    +0.000 OA
ENDBRANCH   4  13
ENDBRANCH   1   7
BRANCH   1  14
ATOM     14  N   UNL     1       6.986   4.277  15.500  0.00  0.00    +0.000 NA
ATOM     15  H   UNL     1       6.430   3.435  15.667  0.00  0.00    +0.000 HD
BRANCH  14  16
ATOM     16  C   UNL     1       6.510   5.126  14.377  0.00  0.00    +0.000 C 
ATOM     17  C   UNL     1       7.432   5.061  13.157  0.00  0.00    +0.000 C 
ATOM     18  C   UNL     1       7.407   3.698  12.469  0.00  0.00    +0.000 C 
ATOM     19  C   UNL     1       5.989   3.311  12.069  0.00  0.00    +0.000 C 
ATOM     20  C   UNL     1       5.046   3.339  13.268  0.00  0.00    +0.000 C 
ATOM     21  C   UNL     1       5.086   4.686  13.993  0.00  0.00    +0.000 C 
ENDBRANCH  14  16
ENDBRANCH   1  14
TORSDOF 4
ENDMDL
