MODEL 1
REMARK VINA RESULT:      -9.1      0.000      0.000
REMARK  Name = 
REMARK  5 active torsions:
REMARK  status: ('A' for Active; 'I' for Inactive)
REMARK    1  A    between atoms: C_1  and  C_2
REMARK    2  A    between atoms: C_4  and  C_5
REMARK    3  A    between atoms: C_19  and  C_20
REMARK    4  A    between atoms: C_20  and  O_22
REMARK    5  A    between atoms: C_23  and  C_24
REMARK                            x       y       z     vdW  Elec       q    Type
REMARK                         _______ _______ _______ _____ _____    ______ ____
ROOT
ATOM      1  C   UNL     1       4.603   3.617  17.848  0.00  0.00    +0.000 C 
ATOM      2  O   UNL     1       4.626   2.510  18.379  0.00  0.00    +0.000 OA
ATOM      3  N   UNL     1       3.603   4.561  18.173  0.00  0.00    +0.000 N 
ATOM      4  C   UNL     1       3.582   5.884  17.537  0.00  0.00    +0.000 C 
ATOM      5  C   UNL     1       2.807   6.854  18.310  0.00  0.00    +0.000 A 
ATOM      6  N   UNL     1       2.421   8.070  17.833  0.00  0.00    +0.000 N 
ATOM      7  C   UNL     1       1.766   8.760  18.824  0.00  0.00    +0.000 A 
ATOM      8  C   UNL     1       1.211  10.045  18.793  0.00  0.00    +0.000 A 
ATOM      9  C   UNL     1       0.600  10.503  19.956  0.00  0.00    +0.000 A 
ATOM     10  C   UNL     1       0.550   9.713  21.103  0.00  0.00    +0.000 A 
ATOM     11  C   UNL     1       1.112   8.431  21.120  0.00  0.00    +0.000 A 
ATOM     12  C   UNL     1       1.733   7.942  19.957  0.00  0.00    +0.000 A 
ATOM     13  C   UNL     1       2.393   6.733  19.612  0.00  0.00    +0.000 A 
ATOM     14  C   UNL     1       2.686   5.488  20.375  0.00  0.00    +0.000 C 
ATOM     15  C   UNL     1       2.741   4.287  19.394  0.00  0.00    +0.000 C 
ATOM     16  H   UNL     1       2.604   8.436  16.909  0.00  0.00    +0.000 HD
ENDROOT
BRANCH   1  20
ATOM     17  C   UNL     1       7.355   5.046  13.779  0.00  0.00    +0.000 C 
ATOM     18  C   UNL     1       6.852   4.647  15.108  0.00  0.00    +0.000 A 
ATOM     19  C   UNL     1       5.826   3.831  15.523  0.00  0.00    +0.000 A 
ATOM     20  C   UNL     1       5.670   4.033  16.931  0.00  0.00    +0.000 A 
ATOM     21  C   UNL     1       6.771   4.801  17.294  0.00  0.00    +0.000 A 
ATOM     22  C   UNL     1       7.291   5.333  18.573  0.00  0.00    +0.000 C 
ATOM     23  O   UNL     1       7.463   5.198  16.187  0.00  0.00    +0.000 OA
ENDBRANCH   1  20
BRANCH  15  24
ATOM     24  C   UNL     1       1.296   3.847  19.098  0.00  0.00    +0.000 C 
ATOM     25  O   UNL     1       0.882   3.575  17.975  0.00  0.00    +0.000 OA
BRANCH  24  26
ATOM     26  O   UNL     1       0.507   3.740  20.191  0.00  0.00    +0.000 OA
ATOM     27  H   UNL     1      -0.383   3.445  19.935  0.00  0.00    +0.000 HD
ENDBRANCH  24  26
ENDBRANCH  15  24
TORSDOF 3
ENDMDL
MODEL 2
REMARK VINA RESULT:      -8.8      3.275      4.926
REMARK  Name = 
REMARK  5 active torsions:
REMARK  status: ('A' for Active; 'I' for Inactive)
REMARK    1  A    between atoms: C_1  and  C_2
REMARK    2  A    between atoms: C_4  and  C_5
REMARK    3  A    between atoms: C_19  and  C_20
REMARK    4  A    between atoms: C_20  and  O_22
REMARK    5  A    between atoms: C_23  and  C_24
REMARK                            x       y       z     vdW  Elec       q    Type
REMARK                         _______ _______ _______ _____ _____    ______ ____
ROOT
ATOM      1  C   UNL     1       6.952   5.155  15.275  0.00  0.00    +0.000 C 
ATOM      2  O   UNL     1       7.761   6.074  15.361  0.00  0.00    +0.000 OA
ATOM      3  N   UNL     1       6.172   4.762  16.386  0.00  0.00    +0.000 N 
ATOM      4  C   UNL     1       5.205   3.663  16.276  0.00  0.00    +0.000 C 
ATOM      5  C   UNL     1       4.194   3.713  17.331  0.00  0.00    +0.000 A 
ATOM      6  N   UNL     1       3.338   2.691  17.612  0.00  0.00    +0.000 N 
ATOM      7  C   UNL     1       2.479   3.079  18.610  0.00  0.00    +0.000 A 
ATOM      8  C   UNL     1       1.431   2.366  19.205  0.00  0.00    +0.000 A 
ATOM      9  C   UNL     1       0.710   3.011  20.206  0.00  0.00    +0.000 A 
ATOM     10  C   UNL     1       1.021   4.313  20.593  0.00  0.00    +0.000 A 
ATOM     11  C   UNL     1       2.070   5.015  19.987  0.00  0.00    +0.000 A 
ATOM     12  C   UNL     1       2.816   4.385  18.975  0.00  0.00    +0.000 A 
ATOM     13  C   UNL     1       3.911   4.772  18.157  0.00  0.00    +0.000 A 
ATOM     14  C   UNL     1       4.707   6.026  18.060  0.00  0.00    +0.000 C 
ATOM     15  C   UNL     1       6.148   5.684  17.593  0.00  0.00    +0.000 C 
ATOM     16  H   UNL     1       3.306   1.793  17.148  0.00  0.00    +0.000 HD
ENDROOT
BRANCH   1  20
ATOM     17  C   UNL     1       4.868   2.712  11.291  0.00  0.00    +0.000 C 
ATOM     18  C   UNL     1       5.744   3.403  12.258  0.00  0.00    +0.000 A 
ATOM     19  C   UNL     1       5.768   3.467  13.631  0.00  0.00    +0.000 A 
ATOM     20  C   UNL     1       6.697   4.496  13.988  0.00  0.00    +0.000 A 
ATOM     21  C   UNL     1       7.327   4.824  12.793  0.00  0.00    +0.000 A 
ATOM     22  C   UNL     1       8.419   5.747  12.412  0.00  0.00    +0.000 C 
ATOM     23  O   UNL     1       6.726   4.187  11.746  0.00  0.00    +0.000 OA
ENDBRANCH   1  20
BRANCH  15  24
ATOM     24  C   UNL     1       6.941   5.194  18.817  0.00  0.00    +0.000 C 
ATOM     25  O   UNL     1       6.607   5.411  19.979  0.00  0.00    +0.000 OA
BRANCH  24  26
ATOM     26  O   UNL     1       8.035   4.458  18.519  0.00  0.00    +0.000 OA
ATOM     27  H   UNL     1       8.625   4.957  17.929  0.00  0.00    +0.000 HD
ENDBRANCH  24  26
ENDBRANCH  15  24
TORSDOF 3
ENDMDL
MODEL 3
REMARK VINA RESULT:      -8.1      3.090      5.061
REMARK  Name = 
REMARK  5 active torsions:
REMARK  status: ('A' for Active; 'I' for Inactive)
REMARK    1  A    between atoms: C_1  and  C_2
REMARK    2  A    between atoms: C_4  and  C_5
REMARK    3  A    between atoms: C_19  and  C_20
REMARK    4  A    between atoms: C_20  and  O_22
REMARK    5  A    between atoms: C_23  and  C_24
REMARK                            x       y       z     vdW  Elec       q    Type
REMARK                         _______ _______ _______ _____ _____    ______ ____
ROOT
ATOM      1  C   UNL     1       6.541   4.589  14.327  0.00  0.00    +0.000 C 
ATOM      2  O   UNL     1       7.525   5.303  14.153  0.00  0.00    +0.000 OA
ATOM      3  N   UNL     1       5.942   4.468  15.601  0.00  0.00    +0.000 N 
ATOM      4  C   UNL     1       4.765   3.614  15.801  0.00  0.00    +0.000 C 
ATOM      5  C   UNL     1       4.027   3.971  17.012  0.00  0.00    +0.000 A 
ATOM      6  N   UNL     1       3.053   3.195  17.563  0.00  0.00    +0.000 N 
ATOM      7  C   UNL     1       2.518   3.840  18.651  0.00  0.00    +0.000 A 
ATOM      8  C   UNL     1       1.490   3.431  19.509  0.00  0.00    +0.000 A 
ATOM      9  C   UNL     1       1.143   4.295  20.544  0.00  0.00    +0.000 A 
ATOM     10  C   UNL     1       1.793   5.516  20.712  0.00  0.00    +0.000 A 
ATOM     11  C   UNL     1       2.818   5.913  19.844  0.00  0.00    +0.000 A 
ATOM     12  C   UNL     1       3.190   5.058  18.792  0.00  0.00    +0.000 A 
ATOM     13  C   UNL     1       4.149   5.123  17.746  0.00  0.00    +0.000 A 
ATOM     14  C   UNL     1       5.153   6.152  17.358  0.00  0.00    +0.000 C 
ATOM     15  C   UNL     1       6.361   5.456  16.676  0.00  0.00    +0.000 C 
ATOM     16  H   UNL     1       2.738   2.296  17.221  0.00  0.00    +0.000 HD
ENDROOT
BRANCH   1  20
ATOM     17  C   UNL     1       3.360   3.135  10.592  0.00  0.00    +0.000 C 
ATOM     18  C   UNL     1       4.456   3.295  11.568  0.00  0.00    +0.000 A 
ATOM     19  C   UNL     1       4.509   3.776  12.856  0.00  0.00    +0.000 A 
ATOM     20  C   UNL     1       5.893   3.915  13.195  0.00  0.00    +0.000 A 
ATOM     21  C   UNL     1       6.570   3.294  12.152  0.00  0.00    +0.000 A 
ATOM     22  C   UNL     1       7.992   3.008  11.859  0.00  0.00    +0.000 C 
ATOM     23  O   UNL     1       5.702   2.952  11.156  0.00  0.00    +0.000 OA
ENDBRANCH   1  20
BRANCH  15  24
ATOM     24  C   UNL     1       7.270   4.888  17.781  0.00  0.00    +0.000 C 
ATOM     25  O   UNL     1       7.130   5.138  18.975  0.00  0.00    +0.000 OA
BRANCH  24  26
ATOM     26  O   UNL     1       8.230   4.044  17.339  0.00  0.00    +0.000 OA
ATOM     27  H   UNL     1       8.515   3.455  18.058  0.00  0.00    +0.000 HD
ENDBRANCH  24  26
ENDBRANCH  15  24
TORSDOF 3
ENDMDL
MODEL 4
REMARK VINA RESULT:      -7.0      3.458      5.710
REMARK  Name = 
REMARK  5 active torsions:
REMARK  status: ('A' for Active; 'I' for Inactive)
REMARK    1  A    between atoms: C_1  and  C_2
REMARK    2  A    between atoms: C_4  and  C_5
REMARK    3  A    between atoms: C_19  and  C_20
REMARK    4  A    between atoms: C_20  and  O_22
REMARK    5  A    between atoms: C_23  and  C_24
REMARK                            x       y       z     vdW  Elec       q    Type
REMARK                         _______ _______ _______ _____ _____    ______ ____
ROOT
ATOM      1  C   UNL     1       6.724   4.501  13.382  0.00  0.00    +0.000 C 
ATOM      2  O   UNL     1       7.367   5.455  12.954  0.00  0.00    +0.000 OA
ATOM      3  N   UNL     1       6.247   4.480  14.711  0.00  0.00    +0.000 N 
ATOM      4  C   UNL     1       5.477   3.337  15.217  0.00  0.00    +0.000 C 
ATOM      5  C   UNL     1       4.692   3.683  16.401  0.00  0.00    +0.000 A 
ATOM      6  N   UNL     1       4.090   2.765  17.208  0.00  0.00    +0.000 N 
ATOM      7  C   UNL     1       3.384   3.416  18.189  0.00  0.00    +0.000 A 
ATOM      8  C   UNL     1       2.604   2.884  19.223  0.00  0.00    +0.000 A 
ATOM      9  C   UNL     1       1.989   3.786  20.086  0.00  0.00    +0.000 A 
ATOM     10  C   UNL     1       2.143   5.161  19.920  0.00  0.00    +0.000 A 
ATOM     11  C   UNL     1       2.923   5.679  18.879  0.00  0.00    +0.000 A 
ATOM     12  C   UNL     1       3.558   4.790  17.995  0.00  0.00    +0.000 A 
ATOM     13  C   UNL     1       4.396   4.942  16.859  0.00  0.00    +0.000 A 
ATOM     14  C   UNL     1       4.936   6.138  16.153  0.00  0.00    +0.000 C 
ATOM     15  C   UNL     1       6.298   5.777  15.502  0.00  0.00    +0.000 C 
ATOM     16  H   UNL     1       4.123   1.760  17.100  0.00  0.00    +0.000 HD
ENDROOT
BRANCH   1  20
ATOM     17  C   UNL     1       6.171  -0.042  11.094  0.00  0.00    +0.000 C 
ATOM     18  C   UNL     1       6.137   1.375  11.508  0.00  0.00    +0.000 A 
ATOM     19  C   UNL     1       7.039   2.191  12.150  0.00  0.00    +0.000 A 
ATOM     20  C   UNL     1       6.343   3.394  12.497  0.00  0.00    +0.000 A 
ATOM     21  C   UNL     1       5.125   3.293  11.835  0.00  0.00    +0.000 A 
ATOM     22  C   UNL     1       3.945   4.174  11.687  0.00  0.00    +0.000 C 
ATOM     23  O   UNL     1       4.991   2.059  11.267  0.00  0.00    +0.000 OA
ENDBRANCH   1  20
BRANCH  15  24
ATOM     24  C   UNL     1       7.381   5.846  16.593  0.00  0.00    +0.000 C 
ATOM     25  O   UNL     1       7.860   4.858  17.142  0.00  0.00    +0.000 OA
BRANCH  24  26
ATOM     26  O   UNL     1       7.807   7.096  16.882  0.00  0.00    +0.000 OA
ATOM     27  H   UNL     1       7.052   7.661  17.119  0.00  0.00    +0.000 HD
ENDBRANCH  24  26
ENDBRANCH  15  24
TORSDOF 3
ENDMDL
MODEL 5
REMARK VINA RESULT:      -6.8      3.487      5.930
REMARK  Name = 
REMARK  5 active torsions:
REMARK  status: ('A' for Active; 'I' for Inactive)
REMARK    1  A    between atoms: C_1  and  C_2
REMARK    2  A    between atoms: C_4  and  C_5
REMARK    3  A    between atoms: C_19  and  C_20
REMARK    4  A    between atoms: C_20  and  O_22
REMARK    5  A    between atoms: C_23  and  C_24
REMARK                            x       y       z     vdW  Elec       q    Type
REMARK                         _______ _______ _______ _____ _____    ______ ____
ROOT
ATOM      1  C   UNL     1       2.308   7.788  18.638  0.00  0.00    +0.000 C 
ATOM      2  O   UNL     1       2.605   7.807  17.447  0.00  0.00    +0.000 OA
ATOM      3  N   UNL     1       1.685   8.897  19.253  0.00  0.00    +0.000 N 
ATOM      4  C   UNL     1       1.332   8.868  20.677  0.00  0.00    +0.000 C 
ATOM      5  C   UNL     1       0.310   9.860  21.010  0.00  0.00    +0.000 A 
ATOM      6  N   UNL     1      -0.018  10.214  22.284  0.00  0.00    +0.000 N 
ATOM      7  C   UNL     1      -1.052  11.118  22.253  0.00  0.00    +0.000 A 
ATOM      8  C   UNL     1      -1.719  11.739  23.316  0.00  0.00    +0.000 A 
ATOM      9  C   UNL     1      -2.745  12.622  22.994  0.00  0.00    +0.000 A 
ATOM     10  C   UNL     1      -3.092  12.871  21.667  0.00  0.00    +0.000 A 
ATOM     11  C   UNL     1      -2.418  12.239  20.615  0.00  0.00    +0.000 A 
ATOM     12  C   UNL     1      -1.375  11.345  20.912  0.00  0.00    +0.000 A 
ATOM     13  C   UNL     1      -0.498  10.543  20.136  0.00  0.00    +0.000 A 
ATOM     14  C   UNL     1      -0.345  10.341  18.668  0.00  0.00    +0.000 C 
ATOM     15  C   UNL     1       1.133   9.987  18.350  0.00  0.00    +0.000 C 
ATOM     16  H   UNL     1       0.402   9.856  23.132  0.00  0.00    +0.000 HD
ENDROOT
BRANCH   1  20
ATOM     17  C   UNL     1       1.681   3.515  21.383  0.00  0.00    +0.000 C 
ATOM     18  C   UNL     1       2.182   4.702  20.660  0.00  0.00    +0.000 A 
ATOM     19  C   UNL     1       1.650   5.944  20.404  0.00  0.00    +0.000 A 
ATOM     20  C   UNL     1       2.502   6.575  19.442  0.00  0.00    +0.000 A 
ATOM     21  C   UNL     1       3.609   5.740  19.359  0.00  0.00    +0.000 A 
ATOM     22  C   UNL     1       4.893   5.784  18.623  0.00  0.00    +0.000 C 
ATOM     23  O   UNL     1       3.398   4.593  20.069  0.00  0.00    +0.000 OA
ENDBRANCH   1  20
BRANCH  15  24
ATOM     24  C   UNL     1       1.940  11.298  18.323  0.00  0.00    +0.000 C 
ATOM     25  O   UNL     1       1.981  12.093  19.257  0.00  0.00    +0.000 OA
BRANCH  24  26
ATOM     26  O   UNL     1       2.649  11.497  17.189  0.00  0.00    +0.000 OA
ATOM     27  H   UNL     1       2.842  12.443  17.076  0.00  0.00    +0.000 HD
ENDBRANCH  24  26
ENDBRANCH  15  24
TORSDOF 3
ENDMDL
MODEL 6
REMARK VINA RESULT:      -6.5      5.559     10.418
REMARK  Name = 
REMARK  5 active torsions:
REMARK  status: ('A' for Active; 'I' for Inactive)
REMARK    1  A    between atoms: C_1  and  C_2
REMARK    2  A    between atoms: C_4  and  C_5
REMARK    3  A    between atoms: C_19  and  C_20
REMARK    4  A    between atoms: C_20  and  O_22
REMARK    5  A    between atoms: C_23  and  C_24
REMARK                            x       y       z     vdW  Elec       q    Type
REMARK                         _______ _______ _______ _____ _____    ______ ____
ROOT
ATOM      1  C   UNL     1      -2.021  13.929  21.015  0.00  0.00    +0.000 C 
ATOM      2  O   UNL     1      -2.427  14.841  20.299  0.00  0.00    +0.000 OA
ATOM      3  N   UNL     1      -1.549  12.720  20.459  0.00  0.00    +0.000 N 
ATOM      4  C   UNL     1      -1.064  11.635  21.320  0.00  0.00    +0.000 C 
ATOM      5  C   UNL     1      -0.206  10.699  20.594  0.00  0.00    +0.000 A 
ATOM      6  N   UNL     1       0.172   9.483  21.079  0.00  0.00    +0.000 N 
ATOM      7  C   UNL     1       1.022   8.881  20.184  0.00  0.00    +0.000 A 
ATOM      8  C   UNL     1       1.666   7.640  20.269  0.00  0.00    +0.000 A 
ATOM      9  C   UNL     1       2.486   7.275  19.205  0.00  0.00    +0.000 A 
ATOM     10  C   UNL     1       2.658   8.114  18.106  0.00  0.00    +0.000 A 
ATOM     11  C   UNL     1       2.010   9.354  18.037  0.00  0.00    +0.000 A 
ATOM     12  C   UNL     1       1.173   9.746  19.097  0.00  0.00    +0.000 A 
ATOM     13  C   UNL     1       0.383  10.893  19.370  0.00  0.00    +0.000 A 
ATOM     14  C   UNL     1       0.132  12.152  18.615  0.00  0.00    +0.000 C 
ATOM     15  C   UNL     1      -1.284  12.685  18.963  0.00  0.00    +0.000 C 
ATOM     16  H   UNL     1      -0.098   9.083  21.968  0.00  0.00    +0.000 HD
ENDROOT
BRANCH   1  20
ATOM     17  C   UNL     1      -1.027  15.615  25.743  0.00  0.00    +0.000 C 
ATOM     18  C   UNL     1      -1.450  14.873  24.538  0.00  0.00    +0.000 A 
ATOM     19  C   UNL     1      -0.935  14.766  23.267  0.00  0.00    +0.000 A 
ATOM     20  C   UNL     1      -1.922  14.103  22.469  0.00  0.00    +0.000 A 
ATOM     21  C   UNL     1      -2.872  13.666  23.384  0.00  0.00    +0.000 A 
ATOM     22  C   UNL     1      -4.118  12.873  23.292  0.00  0.00    +0.000 C 
ATOM     23  O   UNL     1      -2.602  14.161  24.627  0.00  0.00    +0.000 OA
ENDBRANCH   1  20
BRANCH  15  24
ATOM     24  C   UNL     1      -2.309  11.898  18.127  0.00  0.00    +0.000 C 
ATOM     25  O   UNL     1      -3.354  11.443  18.582  0.00  0.00    +0.000 OA
BRANCH  24  26
ATOM     26  O   UNL     1      -1.989  11.774  16.819  0.00  0.00    +0.000 OA
ATOM     27  H   UNL     1      -2.740  12.043  16.263  0.00  0.00    +0.000 HD
ENDBRANCH  24  26
ENDBRANCH  15  24
TORSDOF 3
ENDMDL
MODEL 7
REMARK VINA RESULT:      -6.5      1.342      1.949
REMARK  Name = 
REMARK  5 active torsions:
REMARK  status: ('A' for Active; 'I' for Inactive)
REMARK    1  A    between atoms: C_1  and  C_2
REMARK    2  A    between atoms: C_4  and  C_5
REMARK    3  A    between atoms: C_19  and  C_20
REMARK    4  A    between atoms: C_20  and  O_22
REMARK    5  A    between atoms: C_23  and  C_24
REMARK                            x       y       z     vdW  Elec       q    Type
REMARK                         _______ _______ _______ _____ _____    ______ ____
ROOT
ATOM      1  C   UNL     1       4.679   4.863  18.261  0.00  0.00    +0.000 C 
ATOM      2  O   UNL     1       4.865   3.674  18.506  0.00  0.00    +0.000 OA
ATOM      3  N   UNL     1       3.500   5.519  18.678  0.00  0.00    +0.000 N 
ATOM      4  C   UNL     1       3.285   6.941  18.383  0.00  0.00    +0.000 C 
ATOM      5  C   UNL     1       2.285   7.541  19.266  0.00  0.00    +0.000 A 
ATOM      6  N   UNL     1       1.719   8.762  19.053  0.00  0.00    +0.000 N 
ATOM      7  C   UNL     1       0.871   9.057  20.092  0.00  0.00    +0.000 A 
ATOM      8  C   UNL     1       0.092  10.201  20.304  0.00  0.00    +0.000 A 
ATOM      9  C   UNL     1      -0.684  10.238  21.459  0.00  0.00    +0.000 A 
ATOM     10  C   UNL     1      -0.679   9.179  22.365  0.00  0.00    +0.000 A 
ATOM     11  C   UNL     1       0.108   8.042  22.141  0.00  0.00    +0.000 A 
ATOM     12  C   UNL     1       0.899   7.978  20.981  0.00  0.00    +0.000 A 
ATOM     13  C   UNL     1       1.797   7.021  20.438  0.00  0.00    +0.000 A 
ATOM     14  C   UNL     1       2.254   5.684  20.907  0.00  0.00    +0.000 C 
ATOM     15  C   UNL     1       2.608   4.803  19.679  0.00  0.00    +0.000 C 
ATOM     16  H   UNL     1       1.905   9.380  18.275  0.00  0.00    +0.000 HD
ENDROOT
BRANCH   1  20
ATOM     17  C   UNL     1       8.437   8.169  17.194  0.00  0.00    +0.000 C 
ATOM     18  C   UNL     1       7.369   7.149  17.179  0.00  0.00    +0.000 A 
ATOM     19  C   UNL     1       6.221   6.974  17.916  0.00  0.00    +0.000 A 
ATOM     20  C   UNL     1       5.721   5.668  17.612  0.00  0.00    +0.000 A 
ATOM     21  C   UNL     1       6.497   5.241  16.540  0.00  0.00    +0.000 A 
ATOM     22  C   UNL     1       6.511   4.036  15.681  0.00  0.00    +0.000 C 
ATOM     23  O   UNL     1       7.512   6.123  16.303  0.00  0.00    +0.000 OA
ENDBRANCH   1  20
BRANCH  15  24
ATOM     24  C   UNL     1       1.298   4.232  19.109  0.00  0.00    +0.000 C 
ATOM     25  O   UNL     1       1.079   4.096  17.908  0.00  0.00    +0.000 OA
BRANCH  24  26
ATOM     26  O   UNL     1       0.401   3.844  20.043  0.00  0.00    +0.000 OA
ATOM     27  H   UNL     1      -0.322   3.345  19.627  0.00  0.00    +0.000 HD
ENDBRANCH  24  26
ENDBRANCH  15  24
TORSDOF 3
ENDMDL
MODEL 8
REMARK VINA RESULT:      -6.3      5.260      7.799
REMARK  Name = 
REMARK  5 active torsions:
REMARK  status: ('A' for Active; 'I' for Inactive)
REMARK    1  A    between atoms: C_1  and  C_2
REMARK    2  A    between atoms: C_4  and  C_5
REMARK    3  A    between atoms: C_19  and  C_20
REMARK    4  A    between atoms: C_20  and  O_22
REMARK    5  A    between atoms: C_23  and  C_24
REMARK                            x       y       z     vdW  Elec       q    Type
REMARK                         _______ _______ _______ _____ _____    ______ ____
ROOT
ATOM      1  C   UNL     1       0.409  10.427  19.140  0.00  0.00    +0.000 C 
ATOM      2  O   UNL     1      -0.719  10.320  19.612  0.00  0.00    +0.000 OA
ATOM      3  N   UNL     1       0.984  11.695  18.902  0.00  0.00    +0.000 N 
ATOM      4  C   UNL     1       2.335  11.815  18.339  0.00  0.00    +0.000 C 
ATOM      5  C   UNL     1       2.924  13.127  18.601  0.00  0.00    +0.000 A 
ATOM      6  N   UNL     1       4.050  13.590  17.989  0.00  0.00    +0.000 N 
ATOM      7  C   UNL     1       4.372  14.823  18.500  0.00  0.00    +0.000 A 
ATOM      8  C   UNL     1       5.448  15.662  18.183  0.00  0.00    +0.000 A 
ATOM      9  C   UNL     1       5.535  16.871  18.867  0.00  0.00    +0.000 A 
ATOM     10  C   UNL     1       4.590  17.225  19.828  0.00  0.00    +0.000 A 
ATOM     11  C   UNL     1       3.522  16.374  20.137  0.00  0.00    +0.000 A 
ATOM     12  C   UNL     1       3.408  15.148  19.459  0.00  0.00    +0.000 A 
ATOM     13  C   UNL     1       2.493  14.063  19.507  0.00  0.00    +0.000 A 
ATOM     14  C   UNL     1       1.270  13.807  20.317  0.00  0.00    +0.000 C 
ATOM     15  C   UNL     1       0.298  12.907  19.508  0.00  0.00    +0.000 C 
ATOM     16  H   UNL     1       4.593  13.103  17.288  0.00  0.00    +0.000 HD
ENDROOT
BRANCH   1  20
ATOM     17  C   UNL     1       3.825   7.047  17.381  0.00  0.00    +0.000 C 
ATOM     18  C   UNL     1       2.748   7.772  18.084  0.00  0.00    +0.000 A 
ATOM     19  C   UNL     1       1.885   8.776  17.709  0.00  0.00    +0.000 A 
ATOM     20  C   UNL     1       1.238   9.239  18.899  0.00  0.00    +0.000 A 
ATOM     21  C   UNL     1       1.606   8.320  19.874  0.00  0.00    +0.000 A 
ATOM     22  C   UNL     1       1.275   8.132  21.305  0.00  0.00    +0.000 C 
ATOM     23  O   UNL     1       2.544   7.457  19.388  0.00  0.00    +0.000 OA
ENDBRANCH   1  20
BRANCH  15  24
ATOM     24  C   UNL     1      -0.464  13.803  18.515  0.00  0.00    +0.000 C 
ATOM     25  O   UNL     1      -0.566  15.020  18.634  0.00  0.00    +0.000 OA
BRANCH  24  26
ATOM     26  O   UNL     1      -0.991  13.146  17.457  0.00  0.00    +0.000 OA
ATOM     27  H   UNL     1      -1.696  12.545  17.753  0.00  0.00    +0.000 HD
ENDBRANCH  24  26
ENDBRANCH  15  24
TORSDOF 3
ENDMDL
MODEL 9
REMARK VINA RESULT:      -6.3      1.863      6.649
REMARK  Name = 
REMARK  5 active torsions:
REMARK  status: ('A' for Active; 'I' for Inactive)
REMARK    1  A    between atoms: C_1  and  C_2
REMARK    2  A    between atoms: C_4  and  C_5
REMARK    3  A    between atoms: C_19  and  C_20
REMARK    4  A    between atoms: C_20  and  O_22
REMARK    5  A    between atoms: C_23  and  C_24
REMARK                            x       y       z     vdW  Elec       q    Type
REMARK                         _______ _______ _______ _____ _____    ______ ____
ROOT
ATOM      1  C   UNL     1       2.479   6.239  19.548  0.00  0.00    +0.000 C 
ATOM      2  O   UNL     1       1.909   5.483  20.330  0.00  0.00    +0.000 OA
ATOM      3  N   UNL     1       3.502   5.770  18.694  0.00  0.00    +0.000 N 
ATOM      4  C   UNL     1       4.178   6.678  17.761  0.00  0.00    +0.000 C 
ATOM      5  C   UNL     1       4.836   5.957  16.672  0.00  0.00    +0.000 A 
ATOM      6  N   UNL     1       5.733   6.525  15.817  0.00  0.00    +0.000 N 
ATOM      7  C   UNL     1       6.114   5.600  14.877  0.00  0.00    +0.000 A 
ATOM      8  C   UNL     1       7.000   5.741  13.801  0.00  0.00    +0.000 A 
ATOM      9  C   UNL     1       7.203   4.626  12.994  0.00  0.00    +0.000 A 
ATOM     10  C   UNL     1       6.548   3.423  13.248  0.00  0.00    +0.000 A 
ATOM     11  C   UNL     1       5.663   3.298  14.326  0.00  0.00    +0.000 A 
ATOM     12  C   UNL     1       5.441   4.408  15.160  0.00  0.00    +0.000 A 
ATOM     13  C   UNL     1       4.638   4.650  16.305  0.00  0.00    +0.000 A 
ATOM     14  C   UNL     1       3.700   3.793  17.082  0.00  0.00    +0.000 C 
ATOM     15  C   UNL     1       3.676   4.266  18.560  0.00  0.00    +0.000 C 
ATOM     16  H   UNL     1       6.055   7.484  15.838  0.00  0.00    +0.000 HD
ENDROOT
BRANCH   1  20
ATOM     17  C   UNL     1       0.632  10.701  17.858  0.00  0.00    +0.000 C 
ATOM     18  C   UNL     1       1.238   9.589  18.616  0.00  0.00    +0.000 A 
ATOM     19  C   UNL     1       1.941   8.466  18.244  0.00  0.00    +0.000 A 
ATOM     20  C   UNL     1       2.049   7.635  19.404  0.00  0.00    +0.000 A 
ATOM     21  C   UNL     1       1.587   8.431  20.446  0.00  0.00    +0.000 A 
ATOM     22  C   UNL     1       1.465   8.261  21.911  0.00  0.00    +0.000 C 
ATOM     23  O   UNL     1       1.067   9.597  19.962  0.00  0.00    +0.000 OA
ENDBRANCH   1  20
BRANCH  15  24
ATOM     24  C   UNL     1       4.909   3.677  19.268  0.00  0.00    +0.000 C 
ATOM     25  O   UNL     1       5.895   4.337  19.584  0.00  0.00    +0.000 OA
BRANCH  24  26
ATOM     26  O   UNL     1       4.813   2.360  19.560  0.00  0.00    +0.000 OA
ATOM     27  H   UNL     1       4.014   1.984  19.153  0.00  0.00    +0.000 HD
ENDBRANCH  24  26
ENDBRANCH  15  24
TORSDOF 3
ENDMDL
