MODEL 1
REMARK VINA RESULT:      -8.2      0.000      0.000
REMARK  Name = 
REMARK  5 active torsions:
REMARK  status: ('A' for Active; 'I' for Inactive)
REMARK    1  A    between atoms: C_7  and  C_8
REMARK    2  A    between atoms: N_16  and  C_17
REMARK    3  A    between atoms: C_17  and  C_18
REMARK    4  A    between atoms: C_18  and  C_19
REMARK    5  A    between atoms: C_19  and  N_20
REMARK                            x       y       z     vdW  Elec       q    Type
REMARK                         _______ _______ _______ _____ _____    ______ ____
ROOT
ATOM      1  C   UNL     1       4.802   3.898  19.155  0.00  0.00    +0.000 A 
ATOM      2  N   UNL     1       5.171   2.660  19.527  0.00  0.00    +0.000 NA
ATOM      3  O   UNL     1       4.151   2.177  20.324  0.00  0.00    +0.000 OA
ATOM      4  C   UNL     1       3.165   3.108  20.426  0.00  0.00    +0.000 A 
ATOM      5  N   UNL     1       2.062   2.935  21.165  0.00  0.00    +0.000 NA
ATOM      6  C   UNL     1       1.267   4.008  21.099  0.00  0.00    +0.000 A 
ATOM      7  N   UNL     1       1.457   5.133  20.383  0.00  0.00    +0.000 NA
ATOM      8  C   UNL     1       2.553   5.240  19.594  0.00  0.00    +0.000 A 
ATOM      9  N   UNL     1       2.657   6.313  18.728  0.00  0.00    +0.000 N 
ATOM     10  C   UNL     1       3.500   4.205  19.655  0.00  0.00    +0.000 A 
ATOM     11  H   UNL     1       3.410   6.288  18.056  0.00  0.00    +0.000 HD
ENDROOT
BRANCH   1  18
ATOM     12  F   UNL     1       8.400   7.141  18.918  0.00  0.00    +0.000 F 
ATOM     13  C   UNL     1       7.535   6.344  18.278  0.00  0.00    +0.000 A 
ATOM     14  C   UNL     1       7.491   6.350  16.893  0.00  0.00    +0.000 A 
ATOM     15  C   UNL     1       6.579   5.521  16.255  0.00  0.00    +0.000 A 
ATOM     16  F   UNL     1       6.544   5.494  14.918  0.00  0.00    +0.000 F 
ATOM     17  C   UNL     1       5.697   4.722  16.981  0.00  0.00    +0.000 A 
ATOM     18  C   UNL     1       5.727   4.733  18.383  0.00  0.00    +0.000 A 
ATOM     19  C   UNL     1       6.688   5.527  19.023  0.00  0.00    +0.000 A 
ENDBRANCH   1  18
BRANCH   9  20
ATOM     20  C   UNL     1       2.202   7.631  19.150  0.00  0.00    +0.000 C 
BRANCH  20  21
ATOM     21  C   UNL     1       1.798   8.423  17.898  0.00  0.00    +0.000 C 
BRANCH  21  22
ATOM     22  C   UNL     1       1.704   9.929  18.158  0.00  0.00    +0.000 C 
BRANCH  22  23
ATOM     23  N   UNL     1       0.847  10.251  19.313  0.00  0.00    +0.000 NA
ATOM     24  C   UNL     1      -0.607  10.144  19.054  0.00  0.00    +0.000 C 
ATOM     25  C   UNL     1      -1.196  11.292  18.214  0.00  0.00    +0.000 C 
ATOM     26  O   UNL     1      -0.882  12.574  18.771  0.00  0.00    +0.000 OA
ATOM     27  C   UNL     1       0.533  12.730  18.931  0.00  0.00    +0.000 C 
ATOM     28  C   UNL     1       1.114  11.617  19.820  0.00  0.00    +0.000 C 
ENDBRANCH  22  23
ENDBRANCH  21  22
ENDBRANCH  20  21
ENDBRANCH   9  20
TORSDOF 5
ENDMDL
MODEL 2
REMARK VINA RESULT:      -8.2      0.035      1.579
REMARK  Name = 
REMARK  5 active torsions:
REMARK  status: ('A' for Active; 'I' for Inactive)
REMARK    1  A    between atoms: C_7  and  C_8
REMARK    2  A    between atoms: N_16  and  C_17
REMARK    3  A    between atoms: C_17  and  C_18
REMARK    4  A    between atoms: C_18  and  C_19
REMARK    5  A    between atoms: C_19  and  N_20
REMARK                            x       y       z     vdW  Elec       q    Type
REMARK                         _______ _______ _______ _____ _____    ______ ____
ROOT
ATOM      1  C   UNL     1       4.795   3.890  19.163  0.00  0.00    +0.000 A 
ATOM      2  N   UNL     1       5.165   2.653  19.537  0.00  0.00    +0.000 NA
ATOM      3  O   UNL     1       4.148   2.173  20.339  0.00  0.00    +0.000 OA
ATOM      4  C   UNL     1       3.162   3.104  20.441  0.00  0.00    +0.000 A 
ATOM      5  N   UNL     1       2.061   2.934  21.185  0.00  0.00    +0.000 NA
ATOM      6  C   UNL     1       1.266   4.007  21.117  0.00  0.00    +0.000 A 
ATOM      7  N   UNL     1       1.454   5.129  20.398  0.00  0.00    +0.000 NA
ATOM      8  C   UNL     1       2.547   5.234  19.605  0.00  0.00    +0.000 A 
ATOM      9  N   UNL     1       2.649   6.304  18.735  0.00  0.00    +0.000 N 
ATOM     10  C   UNL     1       3.494   4.199  19.666  0.00  0.00    +0.000 A 
ATOM     11  H   UNL     1       3.400   6.276  18.060  0.00  0.00    +0.000 HD
ENDROOT
BRANCH   1  18
ATOM     12  F   UNL     1       6.505   5.501  14.920  0.00  0.00    +0.000 F 
ATOM     13  C   UNL     1       6.554   5.530  16.259  0.00  0.00    +0.000 A 
ATOM     14  C   UNL     1       7.505   6.313  16.894  0.00  0.00    +0.000 A 
ATOM     15  C   UNL     1       7.539   6.318  18.281  0.00  0.00    +0.000 A 
ATOM     16  F   UNL     1       8.432   7.091  18.910  0.00  0.00    +0.000 F 
ATOM     17  C   UNL     1       6.664   5.531  19.030  0.00  0.00    +0.000 A 
ATOM     18  C   UNL     1       5.717   4.723  18.385  0.00  0.00    +0.000 A 
ATOM     19  C   UNL     1       5.646   4.764  16.986  0.00  0.00    +0.000 A 
ENDBRANCH   1  18
BRANCH   9  20
ATOM     20  C   UNL     1       2.196   7.624  19.154  0.00  0.00    +0.000 C 
BRANCH  20  21
ATOM     21  C   UNL     1       1.787   8.411  17.901  0.00  0.00    +0.000 C 
BRANCH  21  22
ATOM     22  C   UNL     1       1.719   9.921  18.150  0.00  0.00    +0.000 C 
BRANCH  22  23
ATOM     23  N   UNL     1       0.870  10.265  19.304  0.00  0.00    +0.000 NA
ATOM     24  C   UNL     1      -0.585  10.135  19.064  0.00  0.00    +0.000 C 
ATOM     25  C   UNL     1      -1.196  11.252  18.199  0.00  0.00    +0.000 C 
ATOM     26  O   UNL     1      -0.892  12.553  18.716  0.00  0.00    +0.000 OA
ATOM     27  C   UNL     1       0.523  12.729  18.856  0.00  0.00    +0.000 C 
ATOM     28  C   UNL     1       1.127  11.649  19.770  0.00  0.00    +0.000 C 
ENDBRANCH  22  23
ENDBRANCH  21  22
ENDBRANCH  20  21
ENDBRANCH   9  20
TORSDOF 5
ENDMDL
MODEL 3
REMARK VINA RESULT:      -8.1      1.379      2.382
REMARK  Name = 
REMARK  5 active torsions:
REMARK  status: ('A' for Active; 'I' for Inactive)
REMARK    1  A    between atoms: C_7  and  C_8
REMARK    2  A    between atoms: N_16  and  C_17
REMARK    3  A    between atoms: C_17  and  C_18
REMARK    4  A    between atoms: C_18  and  C_19
REMARK    5  A    between atoms: C_19  and  N_20
REMARK                            x       y       z     vdW  Elec       q    Type
REMARK                         _______ _______ _______ _____ _____    ______ ____
ROOT
ATOM      1  C   UNL     1       4.002   3.349  17.925  0.00  0.00    +0.000 A 
ATOM      2  N   UNL     1       4.032   2.018  18.120  0.00  0.00    +0.000 NA
ATOM      3  O   UNL     1       3.034   1.742  19.034  0.00  0.00    +0.000 OA
ATOM      4  C   UNL     1       2.393   2.890  19.381  0.00  0.00    +0.000 A 
ATOM      5  N   UNL     1       1.401   2.939  20.279  0.00  0.00    +0.000 NA
ATOM      6  C   UNL     1       0.961   4.191  20.440  0.00  0.00    +0.000 A 
ATOM      7  N   UNL     1       1.378   5.301  19.802  0.00  0.00    +0.000 NA
ATOM      8  C   UNL     1       2.337   5.199  18.851  0.00  0.00    +0.000 A 
ATOM      9  N   UNL     1       2.638   6.303  18.075  0.00  0.00    +0.000 N 
ATOM     10  C   UNL     1       2.931   3.940  18.661  0.00  0.00    +0.000 A 
ATOM     11  H   UNL     1       3.250   6.156  17.285  0.00  0.00    +0.000 HD
ENDROOT
BRANCH   1  18
ATOM     12  F   UNL     1       6.187   3.949  13.637  0.00  0.00    +0.000 F 
ATOM     13  C   UNL     1       6.094   4.285  14.930  0.00  0.00    +0.000 A 
ATOM     14  C   UNL     1       6.988   5.196  15.469  0.00  0.00    +0.000 A 
ATOM     15  C   UNL     1       6.875   5.520  16.813  0.00  0.00    +0.000 A 
ATOM     16  F   UNL     1       7.713   6.420  17.342  0.00  0.00    +0.000 F 
ATOM     17  C   UNL     1       5.909   4.922  17.623  0.00  0.00    +0.000 A 
ATOM     18  C   UNL     1       5.019   3.984  17.082  0.00  0.00    +0.000 A 
ATOM     19  C   UNL     1       5.098   3.702  15.711  0.00  0.00    +0.000 A 
ENDBRANCH   1  18
BRANCH   9  20
ATOM     20  C   UNL     1       2.659   7.629  18.679  0.00  0.00    +0.000 C 
BRANCH  20  21
ATOM     21  C   UNL     1       1.739   8.545  17.860  0.00  0.00    +0.000 C 
BRANCH  21  22
ATOM     22  C   UNL     1       1.881  10.020  18.245  0.00  0.00    +0.000 C 
BRANCH  22  23
ATOM     23  N   UNL     1       0.611  10.609  18.704  0.00  0.00    +0.000 NA
ATOM     24  C   UNL     1       0.676  12.056  19.016  0.00  0.00    +0.000 C 
ATOM     25  C   UNL     1       1.386  12.396  20.338  0.00  0.00    +0.000 C 
ATOM     26  O   UNL     1       0.831  11.673  21.444  0.00  0.00    +0.000 OA
ATOM     27  C   UNL     1       0.857  10.262  21.196  0.00  0.00    +0.000 C 
ATOM     28  C   UNL     1       0.095   9.913  19.906  0.00  0.00    +0.000 C 
ENDBRANCH  22  23
ENDBRANCH  21  22
ENDBRANCH  20  21
ENDBRANCH   9  20
TORSDOF 5
ENDMDL
MODEL 4
REMARK VINA RESULT:      -8.1      1.426      1.844
REMARK  Name = 
REMARK  5 active torsions:
REMARK  status: ('A' for Active; 'I' for Inactive)
REMARK    1  A    between atoms: C_7  and  C_8
REMARK    2  A    between atoms: N_16  and  C_17
REMARK    3  A    between atoms: C_17  and  C_18
REMARK    4  A    between atoms: C_18  and  C_19
REMARK    5  A    between atoms: C_19  and  N_20
REMARK                            x       y       z     vdW  Elec       q    Type
REMARK                         _______ _______ _______ _____ _____    ______ ____
ROOT
ATOM      1  C   UNL     1       3.974   3.300  17.816  0.00  0.00    +0.000 A 
ATOM      2  N   UNL     1       4.014   1.965  17.975  0.00  0.00    +0.000 NA
ATOM      3  O   UNL     1       3.021   1.657  18.884  0.00  0.00    +0.000 OA
ATOM      4  C   UNL     1       2.374   2.790  19.265  0.00  0.00    +0.000 A 
ATOM      5  N   UNL     1       1.385   2.806  20.168  0.00  0.00    +0.000 NA
ATOM      6  C   UNL     1       0.937   4.051  20.365  0.00  0.00    +0.000 A 
ATOM      7  N   UNL     1       1.344   5.181  19.757  0.00  0.00    +0.000 NA
ATOM      8  C   UNL     1       2.300   5.112  18.800  0.00  0.00    +0.000 A 
ATOM      9  N   UNL     1       2.589   6.240  18.053  0.00  0.00    +0.000 N 
ATOM     10  C   UNL     1       2.902   3.864  18.573  0.00  0.00    +0.000 A 
ATOM     11  H   UNL     1       3.199   6.119  17.258  0.00  0.00    +0.000 HD
ENDROOT
BRANCH   1  18
ATOM     12  F   UNL     1       7.649   6.421  17.296  0.00  0.00    +0.000 F 
ATOM     13  C   UNL     1       6.828   5.518  16.743  0.00  0.00    +0.000 A 
ATOM     14  C   UNL     1       6.911   5.256  15.385  0.00  0.00    +0.000 A 
ATOM     15  C   UNL     1       6.042   4.323  14.837  0.00  0.00    +0.000 A 
ATOM     16  F   UNL     1       6.128   4.037  13.532  0.00  0.00    +0.000 F 
ATOM     17  C   UNL     1       5.080   3.683  15.617  0.00  0.00    +0.000 A 
ATOM     18  C   UNL     1       4.983   3.966  16.987  0.00  0.00    +0.000 A 
ATOM     19  C   UNL     1       5.899   4.865  17.550  0.00  0.00    +0.000 A 
ENDBRANCH   1  18
BRANCH   9  20
ATOM     20  C   UNL     1       2.604   7.548  18.694  0.00  0.00    +0.000 C 
BRANCH  20  21
ATOM     21  C   UNL     1       1.741   8.503  17.857  0.00  0.00    +0.000 C 
BRANCH  21  22
ATOM     22  C   UNL     1       1.911   9.967  18.270  0.00  0.00    +0.000 C 
BRANCH  22  23
ATOM     23  N   UNL     1       0.645  10.581  18.708  0.00  0.00    +0.000 NA
ATOM     24  C   UNL     1       0.728  12.031  19.001  0.00  0.00    +0.000 C 
ATOM     25  C   UNL     1       1.431  12.379  20.326  0.00  0.00    +0.000 C 
ATOM     26  O   UNL     1       0.854  11.679  21.435  0.00  0.00    +0.000 OA
ATOM     27  C   UNL     1       0.862  10.265  21.207  0.00  0.00    +0.000 C 
ATOM     28  C   UNL     1       0.107   9.909  19.915  0.00  0.00    +0.000 C 
ENDBRANCH  22  23
ENDBRANCH  21  22
ENDBRANCH  20  21
ENDBRANCH   9  20
TORSDOF 5
ENDMDL
MODEL 5
REMARK VINA RESULT:      -8.0      0.826      2.017
REMARK  Name = 
REMARK  5 active torsions:
REMARK  status: ('A' for Active; 'I' for Inactive)
REMARK    1  A    between atoms: C_7  and  C_8
REMARK    2  A    between atoms: N_16  and  C_17
REMARK    3  A    between atoms: C_17  and  C_18
REMARK    4  A    between atoms: C_18  and  C_19
REMARK    5  A    between atoms: C_19  and  N_20
REMARK                            x       y       z     vdW  Elec       q    Type
REMARK                         _______ _______ _______ _____ _____    ______ ____
ROOT
ATOM      1  C   UNL     1       4.800   3.826  19.135  0.00  0.00    +0.000 A 
ATOM      2  N   UNL     1       5.173   2.575  19.456  0.00  0.00    +0.000 NA
ATOM      3  O   UNL     1       4.173   2.071  20.265  0.00  0.00    +0.000 OA
ATOM      4  C   UNL     1       3.195   3.002  20.425  0.00  0.00    +0.000 A 
ATOM      5  N   UNL     1       2.112   2.810  21.189  0.00  0.00    +0.000 NA
ATOM      6  C   UNL     1       1.321   3.889  21.179  0.00  0.00    +0.000 A 
ATOM      7  N   UNL     1       1.498   5.035  20.496  0.00  0.00    +0.000 NA
ATOM      8  C   UNL     1       2.571   5.163  19.680  0.00  0.00    +0.000 A 
ATOM      9  N   UNL     1       2.658   6.263  18.847  0.00  0.00    +0.000 N 
ATOM     10  C   UNL     1       3.514   4.122  19.681  0.00  0.00    +0.000 A 
ATOM     11  H   UNL     1       3.392   6.257  18.153  0.00  0.00    +0.000 HD
ENDROOT
BRANCH   1  18
ATOM     12  F   UNL     1       6.494   5.491  14.907  0.00  0.00    +0.000 F 
ATOM     13  C   UNL     1       6.536   5.516  16.246  0.00  0.00    +0.000 A 
ATOM     14  C   UNL     1       7.467   6.317  16.888  0.00  0.00    +0.000 A 
ATOM     15  C   UNL     1       7.494   6.317  18.275  0.00  0.00    +0.000 A 
ATOM     16  F   UNL     1       8.368   7.107  18.912  0.00  0.00    +0.000 F 
ATOM     17  C   UNL     1       6.634   5.508  19.017  0.00  0.00    +0.000 A 
ATOM     18  C   UNL     1       5.708   4.682  18.365  0.00  0.00    +0.000 A 
ATOM     19  C   UNL     1       5.642   4.727  16.966  0.00  0.00    +0.000 A 
ENDBRANCH   1  18
BRANCH   9  20
ATOM     20  C   UNL     1       2.222   7.570  19.324  0.00  0.00    +0.000 C 
BRANCH  20  21
ATOM     21  C   UNL     1       1.688   8.365  18.124  0.00  0.00    +0.000 C 
BRANCH  21  22
ATOM     22  C   UNL     1       1.913   9.873  18.270  0.00  0.00    +0.000 C 
BRANCH  22  23
ATOM     23  N   UNL     1       0.678  10.598  18.617  0.00  0.00    +0.000 NA
ATOM     24  C   UNL     1       0.846  12.059  18.795  0.00  0.00    +0.000 C 
ATOM     25  C   UNL     1       1.534  12.470  20.109  0.00  0.00    +0.000 C 
ATOM     26  O   UNL     1       0.884  11.901  21.252  0.00  0.00    +0.000 OA
ATOM     27  C   UNL     1       0.807  10.475  21.138  0.00  0.00    +0.000 C 
ATOM     28  C   UNL     1       0.066  10.061  19.856  0.00  0.00    +0.000 C 
ENDBRANCH  22  23
ENDBRANCH  21  22
ENDBRANCH  20  21
ENDBRANCH   9  20
TORSDOF 5
ENDMDL
MODEL 6
REMARK VINA RESULT:      -8.0      0.825      1.253
REMARK  Name = 
REMARK  5 active torsions:
REMARK  status: ('A' for Active; 'I' for Inactive)
REMARK    1  A    between atoms: C_7  and  C_8
REMARK    2  A    between atoms: N_16  and  C_17
REMARK    3  A    between atoms: C_17  and  C_18
REMARK    4  A    between atoms: C_18  and  C_19
REMARK    5  A    between atoms: C_19  and  N_20
REMARK                            x       y       z     vdW  Elec       q    Type
REMARK                         _______ _______ _______ _____ _____    ______ ____
ROOT
ATOM      1  C   UNL     1       4.804   3.841  19.111  0.00  0.00    +0.000 A 
ATOM      2  N   UNL     1       5.186   2.589  19.419  0.00  0.00    +0.000 NA
ATOM      3  O   UNL     1       4.192   2.073  20.228  0.00  0.00    +0.000 OA
ATOM      4  C   UNL     1       3.209   2.996  20.399  0.00  0.00    +0.000 A 
ATOM      5  N   UNL     1       2.130   2.790  21.166  0.00  0.00    +0.000 NA
ATOM      6  C   UNL     1       1.333   3.864  21.168  0.00  0.00    +0.000 A 
ATOM      7  N   UNL     1       1.499   5.017  20.494  0.00  0.00    +0.000 NA
ATOM      8  C   UNL     1       2.568   5.159  19.676  0.00  0.00    +0.000 A 
ATOM      9  N   UNL     1       2.644   6.266  18.851  0.00  0.00    +0.000 N 
ATOM     10  C   UNL     1       3.518   4.124  19.663  0.00  0.00    +0.000 A 
ATOM     11  H   UNL     1       3.375   6.270  18.154  0.00  0.00    +0.000 HD
ENDROOT
BRANCH   1  18
ATOM     12  F   UNL     1       8.358   7.133  18.894  0.00  0.00    +0.000 F 
ATOM     13  C   UNL     1       7.489   6.344  18.249  0.00  0.00    +0.000 A 
ATOM     14  C   UNL     1       7.417   6.389  16.865  0.00  0.00    +0.000 A 
ATOM     15  C   UNL     1       6.502   5.568  16.223  0.00  0.00    +0.000 A 
ATOM     16  F   UNL     1       6.440   5.578  14.886  0.00  0.00    +0.000 F 
ATOM     17  C   UNL     1       5.644   4.737  16.943  0.00  0.00    +0.000 A 
ATOM     18  C   UNL     1       5.702   4.709  18.344  0.00  0.00    +0.000 A 
ATOM     19  C   UNL     1       6.667   5.496  18.987  0.00  0.00    +0.000 A 
ENDBRANCH   1  18
BRANCH   9  20
ATOM     20  C   UNL     1       2.201   7.565  19.340  0.00  0.00    +0.000 C 
BRANCH  20  21
ATOM     21  C   UNL     1       1.671   8.373  18.148  0.00  0.00    +0.000 C 
BRANCH  21  22
ATOM     22  C   UNL     1       1.903   9.878  18.305  0.00  0.00    +0.000 C 
BRANCH  22  23
ATOM     23  N   UNL     1       0.667  10.610  18.634  0.00  0.00    +0.000 NA
ATOM     24  C   UNL     1       0.838  12.072  18.800  0.00  0.00    +0.000 C 
ATOM     25  C   UNL     1       1.516  12.494  20.116  0.00  0.00    +0.000 C 
ATOM     26  O   UNL     1       0.855  11.937  21.259  0.00  0.00    +0.000 OA
ATOM     27  C   UNL     1       0.775  10.510  21.158  0.00  0.00    +0.000 C 
ATOM     28  C   UNL     1       0.044  10.087  19.873  0.00  0.00    +0.000 C 
ENDBRANCH  22  23
ENDBRANCH  21  22
ENDBRANCH  20  21
ENDBRANCH   9  20
TORSDOF 5
ENDMDL
MODEL 7
REMARK VINA RESULT:      -7.9      1.139      2.019
REMARK  Name = 
REMARK  5 active torsions:
REMARK  status: ('A' for Active; 'I' for Inactive)
REMARK    1  A    between atoms: C_7  and  C_8
REMARK    2  A    between atoms: N_16  and  C_17
REMARK    3  A    between atoms: C_17  and  C_18
REMARK    4  A    between atoms: C_18  and  C_19
REMARK    5  A    between atoms: C_19  and  N_20
REMARK                            x       y       z     vdW  Elec       q    Type
REMARK                         _______ _______ _______ _____ _____    ______ ____
ROOT
ATOM      1  C   UNL     1       3.917   3.301  17.880  0.00  0.00    +0.000 A 
ATOM      2  N   UNL     1       3.960   1.959  17.950  0.00  0.00    +0.000 NA
ATOM      3  O   UNL     1       2.941   1.586  18.805  0.00  0.00    +0.000 OA
ATOM      4  C   UNL     1       2.276   2.689  19.241  0.00  0.00    +0.000 A 
ATOM      5  N   UNL     1       1.259   2.641  20.111  0.00  0.00    +0.000 NA
ATOM      6  C   UNL     1       0.798   3.868  20.377  0.00  0.00    +0.000 A 
ATOM      7  N   UNL     1       1.217   5.037  19.859  0.00  0.00    +0.000 NA
ATOM      8  C   UNL     1       2.203   5.036  18.930  0.00  0.00    +0.000 A 
ATOM      9  N   UNL     1       2.509   6.213  18.271  0.00  0.00    +0.000 N 
ATOM     10  C   UNL     1       2.819   3.809  18.639  0.00  0.00    +0.000 A 
ATOM     11  H   UNL     1       3.144   6.148  17.488  0.00  0.00    +0.000 HD
ENDROOT
BRANCH   1  18
ATOM     12  F   UNL     1       6.101   4.457  13.707  0.00  0.00    +0.000 F 
ATOM     13  C   UNL     1       6.022   4.606  15.037  0.00  0.00    +0.000 A 
ATOM     14  C   UNL     1       6.943   5.406  15.694  0.00  0.00    +0.000 A 
ATOM     15  C   UNL     1       6.843   5.535  17.072  0.00  0.00    +0.000 A 
ATOM     16  F   UNL     1       7.706   6.328  17.719  0.00  0.00    +0.000 F 
ATOM     17  C   UNL     1       5.865   4.852  17.794  0.00  0.00    +0.000 A 
ATOM     18  C   UNL     1       4.948   4.025  17.130  0.00  0.00    +0.000 A 
ATOM     19  C   UNL     1       5.014   3.942  15.733  0.00  0.00    +0.000 A 
ENDBRANCH   1  18
BRANCH   9  20
ATOM     20  C   UNL     1       2.495   7.476  18.998  0.00  0.00    +0.000 C 
BRANCH  20  21
ATOM     21  C   UNL     1       2.458   8.619  17.974  0.00  0.00    +0.000 C 
BRANCH  21  22
ATOM     22  C   UNL     1       1.112   9.350  17.957  0.00  0.00    +0.000 C 
BRANCH  22  23
ATOM     23  N   UNL     1       0.770   9.936  19.266  0.00  0.00    +0.000 NA
ATOM     24  C   UNL     1      -0.681  10.096  19.512  0.00  0.00    +0.000 C 
ATOM     25  C   UNL     1      -1.338  11.259  18.747  0.00  0.00    +0.000 C 
ATOM     26  O   UNL     1      -0.655  12.498  18.973  0.00  0.00    +0.000 OA
ATOM     27  C   UNL     1       0.734  12.384  18.639  0.00  0.00    +0.000 C 
ATOM     28  C   UNL     1       1.407  11.262  19.447  0.00  0.00    +0.000 C 
ENDBRANCH  22  23
ENDBRANCH  21  22
ENDBRANCH  20  21
ENDBRANCH   9  20
TORSDOF 5
ENDMDL
MODEL 8
REMARK VINA RESULT:      -7.9      0.886      1.296
REMARK  Name = 
REMARK  5 active torsions:
REMARK  status: ('A' for Active; 'I' for Inactive)
REMARK    1  A    between atoms: C_7  and  C_8
REMARK    2  A    between atoms: N_16  and  C_17
REMARK    3  A    between atoms: C_17  and  C_18
REMARK    4  A    between atoms: C_18  and  C_19
REMARK    5  A    between atoms: C_19  and  N_20
REMARK                            x       y       z     vdW  Elec       q    Type
REMARK                         _______ _______ _______ _____ _____    ______ ____
ROOT
ATOM      1  C   UNL     1       4.725   3.981  19.169  0.00  0.00    +0.000 A 
ATOM      2  N   UNL     1       5.218   2.733  19.261  0.00  0.00    +0.000 NA
ATOM      3  O   UNL     1       4.337   2.030  20.058  0.00  0.00    +0.000 OA
ATOM      4  C   UNL     1       3.310   2.837  20.436  0.00  0.00    +0.000 A 
ATOM      5  N   UNL     1       2.318   2.439  21.244  0.00  0.00    +0.000 NA
ATOM      6  C   UNL     1       1.451   3.433  21.463  0.00  0.00    +0.000 A 
ATOM      7  N   UNL     1       1.478   4.679  20.954  0.00  0.00    +0.000 NA
ATOM      8  C   UNL     1       2.460   5.020  20.087  0.00  0.00    +0.000 A 
ATOM      9  N   UNL     1       2.387   6.235  19.430  0.00  0.00    +0.000 N 
ATOM     10  C   UNL     1       3.475   4.078  19.852  0.00  0.00    +0.000 A 
ATOM     11  H   UNL     1       3.054   6.396  18.688  0.00  0.00    +0.000 HD
ENDROOT
BRANCH   1  18
ATOM     12  F   UNL     1       8.549   6.949  18.869  0.00  0.00    +0.000 F 
ATOM     13  C   UNL     1       7.414   6.487  18.327  0.00  0.00    +0.000 A 
ATOM     14  C   UNL     1       6.954   7.024  17.135  0.00  0.00    +0.000 A 
ATOM     15  C   UNL     1       5.772   6.533  16.600  0.00  0.00    +0.000 A 
ATOM     16  F   UNL     1       5.329   7.021  15.436  0.00  0.00    +0.000 F 
ATOM     17  C   UNL     1       5.036   5.545  17.255  0.00  0.00    +0.000 A 
ATOM     18  C   UNL     1       5.492   5.018  18.472  0.00  0.00    +0.000 A 
ATOM     19  C   UNL     1       6.715   5.474  18.980  0.00  0.00    +0.000 A 
ENDBRANCH   1  18
BRANCH   9  20
ATOM     20  C   UNL     1       1.900   7.413  20.136  0.00  0.00    +0.000 C 
BRANCH  20  21
ATOM     21  C   UNL     1       1.731   8.548  19.117  0.00  0.00    +0.000 C 
BRANCH  21  22
ATOM     22  C   UNL     1       0.782   9.645  19.609  0.00  0.00    +0.000 C 
BRANCH  22  23
ATOM     23  N   UNL     1       0.523  10.670  18.582  0.00  0.00    +0.000 NA
ATOM     24  C   UNL     1       1.083  12.007  18.886  0.00  0.00    +0.000 C 
ATOM     25  C   UNL     1       0.314  12.796  19.961  0.00  0.00    +0.000 C 
ATOM     26  O   UNL     1      -1.081  12.900  19.651  0.00  0.00    +0.000 OA
ATOM     27  C   UNL     1      -1.658  11.603  19.456  0.00  0.00    +0.000 C 
ATOM     28  C   UNL     1      -0.930  10.836  18.339  0.00  0.00    +0.000 C 
ENDBRANCH  22  23
ENDBRANCH  21  22
ENDBRANCH  20  21
ENDBRANCH   9  20
TORSDOF 5
ENDMDL
MODEL 9
REMARK VINA RESULT:      -7.9      1.167      1.341
REMARK  Name = 
REMARK  5 active torsions:
REMARK  status: ('A' for Active; 'I' for Inactive)
REMARK    1  A    between atoms: C_7  and  C_8
REMARK    2  A    between atoms: N_16  and  C_17
REMARK    3  A    between atoms: C_17  and  C_18
REMARK    4  A    between atoms: C_18  and  C_19
REMARK    5  A    between atoms: C_19  and  N_20
REMARK                            x       y       z     vdW  Elec       q    Type
REMARK                         _______ _______ _______ _____ _____    ______ ____
ROOT
ATOM      1  C   UNL     1       3.975   3.339  17.836  0.00  0.00    +0.000 A 
ATOM      2  N   UNL     1       4.013   2.008  18.027  0.00  0.00    +0.000 NA
ATOM      3  O   UNL     1       3.036   1.727  18.963  0.00  0.00    +0.000 OA
ATOM      4  C   UNL     1       2.401   2.872  19.327  0.00  0.00    +0.000 A 
ATOM      5  N   UNL     1       1.428   2.916  20.247  0.00  0.00    +0.000 NA
ATOM      6  C   UNL     1       0.989   4.167  20.421  0.00  0.00    +0.000 A 
ATOM      7  N   UNL     1       1.389   5.279  19.777  0.00  0.00    +0.000 NA
ATOM      8  C   UNL     1       2.327   5.182  18.805  0.00  0.00    +0.000 A 
ATOM      9  N   UNL     1       2.607   6.290  18.025  0.00  0.00    +0.000 N 
ATOM     10  C   UNL     1       2.920   3.926  18.598  0.00  0.00    +0.000 A 
ATOM     11  H   UNL     1       3.202   6.146  17.221  0.00  0.00    +0.000 HD
ENDROOT
BRANCH   1  18
ATOM     12  F   UNL     1       7.639   6.445  17.167  0.00  0.00    +0.000 F 
ATOM     13  C   UNL     1       6.811   5.525  16.654  0.00  0.00    +0.000 A 
ATOM     14  C   UNL     1       6.875   5.221  15.303  0.00  0.00    +0.000 A 
ATOM     15  C   UNL     1       5.999   4.271  14.797  0.00  0.00    +0.000 A 
ATOM     16  F   UNL     1       6.067   3.944  13.501  0.00  0.00    +0.000 F 
ATOM     17  C   UNL     1       5.049   3.655  15.611  0.00  0.00    +0.000 A 
ATOM     18  C   UNL     1       4.972   3.980  16.972  0.00  0.00    +0.000 A 
ATOM     19  C   UNL     1       5.895   4.896  17.493  0.00  0.00    +0.000 A 
ENDBRANCH   1  18
BRANCH   9  20
ATOM     20  C   UNL     1       2.638   7.614  18.632  0.00  0.00    +0.000 C 
BRANCH  20  21
ATOM     21  C   UNL     1       1.669   8.519  17.859  0.00  0.00    +0.000 C 
BRANCH  21  22
ATOM     22  C   UNL     1       1.869  10.004  18.177  0.00  0.00    +0.000 C 
BRANCH  22  23
ATOM     23  N   UNL     1       1.084  10.443  19.345  0.00  0.00    +0.000 NA
ATOM     24  C   UNL     1      -0.371  10.184  19.246  0.00  0.00    +0.000 C 
ATOM     25  C   UNL     1      -1.128  11.132  18.299  0.00  0.00    +0.000 C 
ATOM     26  O   UNL     1      -0.888  12.508  18.617  0.00  0.00    +0.000 OA
ATOM     27  C   UNL     1       0.516  12.795  18.615  0.00  0.00    +0.000 C 
ATOM     28  C   UNL     1       1.267  11.890  19.606  0.00  0.00    +0.000 C 
ENDBRANCH  22  23
ENDBRANCH  21  22
ENDBRANCH  20  21
ENDBRANCH   9  20
TORSDOF 5
ENDMDL
