MODEL 1
REMARK VINA RESULT:      -7.5      0.000      0.000
REMARK  Name = 
REMARK  8 active torsions:
REMARK  status: ('A' for Active; 'I' for Inactive)
REMARK    1  A    between atoms: C_1  and  C_2
REMARK    2  A    between atoms: C_2  and  C_3
REMARK    3  A    between atoms: C_3  and  C_4
REMARK    4  A    between atoms: C_4  and  N_5
REMARK    5  A    between atoms: C_7  and  C_8
REMARK    6  A    between atoms: C_13  and  C_14
REMARK    7  A    between atoms: C_18  and  C_19
REMARK    8  A    between atoms: C_19  and  N_20
REMARK                            x       y       z     vdW  Elec       q    Type
REMARK                         _______ _______ _______ _____ _____    ______ ____
ROOT
ATOM      1  C   UNL     1       1.949   7.456  20.000  0.00  0.00    +0.000 C 
ATOM      2  O   UNL     1       2.102   7.058  21.151  0.00  0.00    +0.000 OA
ATOM      3  N   UNL     1       1.185   8.594  19.703  0.00  0.00    +0.000 N 
ATOM      4  C   UNL     1       0.880   9.094  18.365  0.00  0.00    +0.000 C 
ATOM      5  C   UNL     1       1.269  10.548  18.210  0.00  0.00    +0.000 C 
ATOM      6  C   UNL     1       0.545  11.422  19.240  0.00  0.00    +0.000 C 
ATOM      7  C   UNL     1       0.877  10.866  20.644  0.00  0.00    +0.000 C 
ATOM      8  C   UNL     1       0.604   9.361  20.801  0.00  0.00    +0.000 C 
ENDROOT
BRANCH   1  11
ATOM      9  N   UNL     1       4.222   6.380  17.343  0.00  0.00    +0.000 N 
ATOM     10  C   UNL     1       3.618   7.385  18.055  0.00  0.00    +0.000 A 
ATOM     11  C   UNL     1       2.669   6.823  18.891  0.00  0.00    +0.000 A 
ATOM     12  C   UNL     1       2.519   5.470  18.462  0.00  0.00    +0.000 A 
ATOM     13  C   UNL     1       1.636   4.434  18.833  0.00  0.00    +0.000 A 
ATOM     14  C   UNL     1       1.766   3.171  18.254  0.00  0.00    +0.000 A 
ATOM     15  C   UNL     1       2.784   2.926  17.337  0.00  0.00    +0.000 A 
ATOM     16  C   UNL     1       3.678   3.926  16.963  0.00  0.00    +0.000 A 
ATOM     17  C   UNL     1       3.526   5.204  17.524  0.00  0.00    +0.000 A 
BRANCH   9  18
ATOM     18  C   UNL     1       5.389   6.599  16.499  0.00  0.00    +0.000 C 
BRANCH  18  19
ATOM     19  C   UNL     1       6.639   7.014  17.285  0.00  0.00    +0.000 C 
BRANCH  19  21
ATOM     20  C   UNL     1       7.455   4.635  17.488  0.00  0.00    +0.000 C 
ATOM     21  C   UNL     1       7.092   5.907  18.240  0.00  0.00    +0.000 C 
ENDBRANCH  19  21
ENDBRANCH  18  19
ENDBRANCH   9  18
ENDBRANCH   1  11
BRANCH   6  22
ATOM     22  C   UNL     1      -0.930  11.589  18.889  0.00  0.00    +0.000 A 
ATOM     23  C   UNL     1      -1.892  12.016  19.809  0.00  0.00    +0.000 A 
ATOM     24  C   UNL     1      -3.238  12.096  19.455  0.00  0.00    +0.000 A 
ATOM     25  C   UNL     1      -3.646  11.769  18.165  0.00  0.00    +0.000 A 
ATOM     26  C   UNL     1      -2.711  11.371  17.204  0.00  0.00    +0.000 A 
ATOM     27  C   UNL     1      -1.362  11.287  17.580  0.00  0.00    +0.000 A 
BRANCH  26  28
ATOM     28  C   UNL     1      -3.190  10.948  15.835  0.00  0.00    +0.000 C 
BRANCH  28  29
ATOM     29  N   UNL     1      -2.751   9.610  15.454  0.00  0.00    +0.000 NA
ATOM     30  H   UNL     1      -3.492   8.949  15.686  0.00  0.00    +0.000 HD
ATOM     31  H   UNL     1      -1.949   9.352  16.026  0.00  0.00    +0.000 HD
ENDBRANCH  28  29
ENDBRANCH  26  28
ENDBRANCH   6  22
TORSDOF 7
ENDMDL
MODEL 2
REMARK VINA RESULT:      -7.3      1.820      8.408
REMARK  Name = 
REMARK  8 active torsions:
REMARK  status: ('A' for Active; 'I' for Inactive)
REMARK    1  A    between atoms: C_1  and  C_2
REMARK    2  A    between atoms: C_2  and  C_3
REMARK    3  A    between atoms: C_3  and  C_4
REMARK    4  A    between atoms: C_4  and  N_5
REMARK    5  A    between atoms: C_7  and  C_8
REMARK    6  A    between atoms: C_13  and  C_14
REMARK    7  A    between atoms: C_18  and  C_19
REMARK    8  A    between atoms: C_19  and  N_20
REMARK                            x       y       z     vdW  Elec       q    Type
REMARK                         _______ _______ _______ _____ _____    ______ ____
ROOT
ATOM      1  C   UNL     1       0.984   9.137  20.523  0.00  0.00    +0.000 C 
ATOM      2  O   UNL     1       0.712   9.118  21.720  0.00  0.00    +0.000 OA
ATOM      3  N   UNL     1       1.734   8.120  19.915  0.00  0.00    +0.000 N 
ATOM      4  C   UNL     1       2.174   8.099  18.522  0.00  0.00    +0.000 C 
ATOM      5  C   UNL     1       1.753   6.823  17.824  0.00  0.00    +0.000 C 
ATOM      6  C   UNL     1       2.319   5.593  18.540  0.00  0.00    +0.000 C 
ATOM      7  C   UNL     1       1.847   5.647  20.011  0.00  0.00    +0.000 C 
ATOM      8  C   UNL     1       2.155   6.977  20.718  0.00  0.00    +0.000 C 
ENDROOT
BRANCH   1  11
ATOM      9  N   UNL     1      -0.960  11.271  18.275  0.00  0.00    +0.000 N 
ATOM     10  C   UNL     1      -0.531  10.024  18.654  0.00  0.00    +0.000 A 
ATOM     11  C   UNL     1       0.421  10.170  19.648  0.00  0.00    +0.000 A 
ATOM     12  C   UNL     1       0.760  11.556  19.667  0.00  0.00    +0.000 A 
ATOM     13  C   UNL     1       1.734  12.300  20.367  0.00  0.00    +0.000 A 
ATOM     14  C   UNL     1       1.795  13.685  20.208  0.00  0.00    +0.000 A 
ATOM     15  C   UNL     1       0.878  14.334  19.387  0.00  0.00    +0.000 A 
ATOM     16  C   UNL     1      -0.102  13.626  18.695  0.00  0.00    +0.000 A 
ATOM     17  C   UNL     1      -0.142  12.229  18.833  0.00  0.00    +0.000 A 
BRANCH   9  18
ATOM     18  C   UNL     1      -2.085  11.480  17.374  0.00  0.00    +0.000 C 
BRANCH  18  19
ATOM     19  C   UNL     1      -2.825  10.185  17.014  0.00  0.00    +0.000 C 
BRANCH  19  21
ATOM     20  C   UNL     1      -2.958  10.102  14.495  0.00  0.00    +0.000 C 
ATOM     21  C   UNL     1      -3.718  10.375  15.785  0.00  0.00    +0.000 C 
ENDBRANCH  19  21
ENDBRANCH  18  19
ENDBRANCH   9  18
ENDBRANCH   1  11
BRANCH   6  22
ATOM     22  C   UNL     1       3.818   5.449  18.295  0.00  0.00    +0.000 A 
ATOM     23  C   UNL     1       4.761   5.402  19.327  0.00  0.00    +0.000 A 
ATOM     24  C   UNL     1       6.125   5.329  19.050  0.00  0.00    +0.000 A 
ATOM     25  C   UNL     1       6.573   5.281  17.733  0.00  0.00    +0.000 A 
ATOM     26  C   UNL     1       5.662   5.290  16.672  0.00  0.00    +0.000 A 
ATOM     27  C   UNL     1       4.293   5.373  16.968  0.00  0.00    +0.000 A 
BRANCH  26  28
ATOM     28  C   UNL     1       6.178   5.315  15.252  0.00  0.00    +0.000 C 
BRANCH  28  29
ATOM     29  N   UNL     1       7.634   5.280  15.163  0.00  0.00    +0.000 NA
ATOM     30  H   UNL     1       7.996   6.189  15.447  0.00  0.00    +0.000 HD
ATOM     31  H   UNL     1       7.900   5.159  14.187  0.00  0.00    +0.000 HD
ENDBRANCH  28  29
ENDBRANCH  26  28
ENDBRANCH   6  22
TORSDOF 7
ENDMDL
MODEL 3
REMARK VINA RESULT:      -7.3      1.273      1.797
REMARK  Name = 
REMARK  8 active torsions:
REMARK  status: ('A' for Active; 'I' for Inactive)
REMARK    1  A    between atoms: C_1  and  C_2
REMARK    2  A    between atoms: C_2  and  C_3
REMARK    3  A    between atoms: C_3  and  C_4
REMARK    4  A    between atoms: C_4  and  N_5
REMARK    5  A    between atoms: C_7  and  C_8
REMARK    6  A    between atoms: C_13  and  C_14
REMARK    7  A    between atoms: C_18  and  C_19
REMARK    8  A    between atoms: C_19  and  N_20
REMARK                            x       y       z     vdW  Elec       q    Type
REMARK                         _______ _______ _______ _____ _____    ______ ____
ROOT
ATOM      1  C   UNL     1       1.985   7.415  19.972  0.00  0.00    +0.000 C 
ATOM      2  O   UNL     1       2.157   7.040  21.128  0.00  0.00    +0.000 OA
ATOM      3  N   UNL     1       1.183   8.524  19.663  0.00  0.00    +0.000 N 
ATOM      4  C   UNL     1       0.856   8.994  18.319  0.00  0.00    +0.000 C 
ATOM      5  C   UNL     1       1.196  10.458  18.142  0.00  0.00    +0.000 C 
ATOM      6  C   UNL     1       0.450  11.323  19.163  0.00  0.00    +0.000 C 
ATOM      7  C   UNL     1       0.807  10.798  20.572  0.00  0.00    +0.000 C 
ATOM      8  C   UNL     1       0.584   9.288  20.753  0.00  0.00    +0.000 C 
ENDROOT
BRANCH   1  11
ATOM      9  N   UNL     1       4.288   6.362  17.333  0.00  0.00    +0.000 N 
ATOM     10  C   UNL     1       3.670   7.361  18.040  0.00  0.00    +0.000 A 
ATOM     11  C   UNL     1       2.719   6.790  18.868  0.00  0.00    +0.000 A 
ATOM     12  C   UNL     1       2.585   5.436  18.437  0.00  0.00    +0.000 A 
ATOM     13  C   UNL     1       1.709   4.391  18.801  0.00  0.00    +0.000 A 
ATOM     14  C   UNL     1       1.855   3.130  18.222  0.00  0.00    +0.000 A 
ATOM     15  C   UNL     1       2.882   2.895  17.313  0.00  0.00    +0.000 A 
ATOM     16  C   UNL     1       3.770   3.904  16.947  0.00  0.00    +0.000 A 
ATOM     17  C   UNL     1       3.601   5.180  17.507  0.00  0.00    +0.000 A 
BRANCH   9  18
ATOM     18  C   UNL     1       5.459   6.592  16.497  0.00  0.00    +0.000 C 
BRANCH  18  19
ATOM     19  C   UNL     1       6.716   6.954  17.299  0.00  0.00    +0.000 C 
BRANCH  19  21
ATOM     20  C   UNL     1       7.607   4.612  17.593  0.00  0.00    +0.000 C 
ATOM     21  C   UNL     1       7.079   5.852  18.298  0.00  0.00    +0.000 C 
ENDBRANCH  19  21
ENDBRANCH  18  19
ENDBRANCH   9  18
ENDBRANCH   1  11
BRANCH   6  22
ATOM     22  C   UNL     1      -1.031  11.437  18.817  0.00  0.00    +0.000 A 
ATOM     23  C   UNL     1      -1.566  11.019  17.594  0.00  0.00    +0.000 A 
ATOM     24  C   UNL     1      -2.917  11.198  17.304  0.00  0.00    +0.000 A 
ATOM     25  C   UNL     1      -3.766  11.781  18.239  0.00  0.00    +0.000 A 
ATOM     26  C   UNL     1      -3.280  12.180  19.489  0.00  0.00    +0.000 A 
ATOM     27  C   UNL     1      -1.915  12.001  19.761  0.00  0.00    +0.000 A 
BRANCH  26  28
ATOM     28  C   UNL     1      -4.206  12.879  20.456  0.00  0.00    +0.000 C 
BRANCH  28  29
ATOM     29  N   UNL     1      -4.836  14.071  19.897  0.00  0.00    +0.000 NA
ATOM     30  H   UNL     1      -4.943  14.758  20.643  0.00  0.00    +0.000 HD
ATOM     31  H   UNL     1      -5.778  13.832  19.592  0.00  0.00    +0.000 HD
ENDBRANCH  28  29
ENDBRANCH  26  28
ENDBRANCH   6  22
TORSDOF 7
ENDMDL
MODEL 4
REMARK VINA RESULT:      -7.2      1.818      8.606
REMARK  Name = 
REMARK  8 active torsions:
REMARK  status: ('A' for Active; 'I' for Inactive)
REMARK    1  A    between atoms: C_1  and  C_2
REMARK    2  A    between atoms: C_2  and  C_3
REMARK    3  A    between atoms: C_3  and  C_4
REMARK    4  A    between atoms: C_4  and  N_5
REMARK    5  A    between atoms: C_7  and  C_8
REMARK    6  A    between atoms: C_13  and  C_14
REMARK    7  A    between atoms: C_18  and  C_19
REMARK    8  A    between atoms: C_19  and  N_20
REMARK                            x       y       z     vdW  Elec       q    Type
REMARK                         _______ _______ _______ _____ _____    ______ ____
ROOT
ATOM      1  C   UNL     1       0.696   9.271  20.443  0.00  0.00    +0.000 C 
ATOM      2  O   UNL     1       0.427   9.116  21.630  0.00  0.00    +0.000 OA
ATOM      3  N   UNL     1       1.579   8.419  19.763  0.00  0.00    +0.000 N 
ATOM      4  C   UNL     1       2.021   8.573  18.380  0.00  0.00    +0.000 C 
ATOM      5  C   UNL     1       1.779   7.315  17.574  0.00  0.00    +0.000 C 
ATOM      6  C   UNL     1       2.506   6.117  18.194  0.00  0.00    +0.000 C 
ATOM      7  C   UNL     1       2.028   5.984  19.658  0.00  0.00    +0.000 C 
ATOM      8  C   UNL     1       2.150   7.280  20.476  0.00  0.00    +0.000 C 
ENDROOT
BRANCH   1  11
ATOM      9  N   UNL     1      -1.611  11.419  18.587  0.00  0.00    +0.000 N 
ATOM     10  C   UNL     1      -1.197  10.167  18.963  0.00  0.00    +0.000 A 
ATOM     11  C   UNL     1       0.000  10.287  19.648  0.00  0.00    +0.000 A 
ATOM     12  C   UNL     1       0.443  11.626  19.432  0.00  0.00    +0.000 A 
ATOM     13  C   UNL     1       1.629  12.314  19.766  0.00  0.00    +0.000 A 
ATOM     14  C   UNL     1       1.757  13.668  19.454  0.00  0.00    +0.000 A 
ATOM     15  C   UNL     1       0.705  14.346  18.844  0.00  0.00    +0.000 A 
ATOM     16  C   UNL     1      -0.482  13.695  18.516  0.00  0.00    +0.000 A 
ATOM     17  C   UNL     1      -0.596  12.325  18.803  0.00  0.00    +0.000 A 
BRANCH   9  18
ATOM     18  C   UNL     1      -2.920  11.677  18.001  0.00  0.00    +0.000 C 
BRANCH  18  19
ATOM     19  C   UNL     1      -3.532  10.448  17.316  0.00  0.00    +0.000 C 
BRANCH  19  21
ATOM     20  C   UNL     1      -2.860  10.152  14.902  0.00  0.00    +0.000 C 
ATOM     21  C   UNL     1      -3.888  10.741  15.856  0.00  0.00    +0.000 C 
ENDBRANCH  19  21
ENDBRANCH  18  19
ENDBRANCH   9  18
ENDBRANCH   1  11
BRANCH   6  22
ATOM     22  C   UNL     1       4.011   6.198  17.959  0.00  0.00    +0.000 A 
ATOM     23  C   UNL     1       4.581   6.877  16.877  0.00  0.00    +0.000 A 
ATOM     24  C   UNL     1       5.960   6.873  16.673  0.00  0.00    +0.000 A 
ATOM     25  C   UNL     1       6.800   6.206  17.560  0.00  0.00    +0.000 A 
ATOM     26  C   UNL     1       6.274   5.544  18.675  0.00  0.00    +0.000 A 
ATOM     27  C   UNL     1       4.883   5.551  18.860  0.00  0.00    +0.000 A 
BRANCH  26  28
ATOM     28  C   UNL     1       7.200   4.764  19.578  0.00  0.00    +0.000 C 
BRANCH  28  29
ATOM     29  N   UNL     1       8.102   5.608  20.354  0.00  0.00    +0.000 NA
ATOM     30  H   UNL     1       8.740   6.075  19.710  0.00  0.00    +0.000 HD
ATOM     31  H   UNL     1       8.680   5.014  20.946  0.00  0.00    +0.000 HD
ENDBRANCH  28  29
ENDBRANCH  26  28
ENDBRANCH   6  22
TORSDOF 7
ENDMDL
MODEL 5
REMARK VINA RESULT:      -7.0      1.084      1.188
REMARK  Name = 
REMARK  8 active torsions:
REMARK  status: ('A' for Active; 'I' for Inactive)
REMARK    1  A    between atoms: C_1  and  C_2
REMARK    2  A    between atoms: C_2  and  C_3
REMARK    3  A    between atoms: C_3  and  C_4
REMARK    4  A    between atoms: C_4  and  N_5
REMARK    5  A    between atoms: C_7  and  C_8
REMARK    6  A    between atoms: C_13  and  C_14
REMARK    7  A    between atoms: C_18  and  C_19
REMARK    8  A    between atoms: C_19  and  N_20
REMARK                            x       y       z     vdW  Elec       q    Type
REMARK                         _______ _______ _______ _____ _____    ______ ____
ROOT
ATOM      1  C   UNL     1       1.543   8.205  20.644  0.00  0.00    +0.000 C 
ATOM      2  O   UNL     1       1.842   8.125  21.831  0.00  0.00    +0.000 OA
ATOM      3  N   UNL     1       0.709   9.221  20.153  0.00  0.00    +0.000 N 
ATOM      4  C   UNL     1       0.235   9.348  18.778  0.00  0.00    +0.000 C 
ATOM      5  C   UNL     1       0.551  10.713  18.203  0.00  0.00    +0.000 C 
ATOM      6  C   UNL     1      -0.082  11.824  19.049  0.00  0.00    +0.000 C 
ATOM      7  C   UNL     1       0.429  11.658  20.498  0.00  0.00    +0.000 C 
ATOM      8  C   UNL     1       0.231  10.247  21.075  0.00  0.00    +0.000 C 
ENDROOT
BRANCH   1  11
ATOM      9  N   UNL     1       3.483   6.508  18.047  0.00  0.00    +0.000 N 
ATOM     10  C   UNL     1       2.871   7.640  18.524  0.00  0.00    +0.000 A 
ATOM     11  C   UNL     1       2.154   7.305  19.660  0.00  0.00    +0.000 A 
ATOM     12  C   UNL     1       2.121   5.879  19.699  0.00  0.00    +0.000 A 
ATOM     13  C   UNL     1       1.458   4.953  20.532  0.00  0.00    +0.000 A 
ATOM     14  C   UNL     1       1.663   3.585  20.349  0.00  0.00    +0.000 A 
ATOM     15  C   UNL     1       2.544   3.137  19.369  0.00  0.00    +0.000 A 
ATOM     16  C   UNL     1       3.222   4.029  18.542  0.00  0.00    +0.000 A 
ATOM     17  C   UNL     1       2.991   5.404  18.708  0.00  0.00    +0.000 A 
BRANCH   9  18
ATOM     18  C   UNL     1       4.458   6.533  16.965  0.00  0.00    +0.000 C 
BRANCH  18  19
ATOM     19  C   UNL     1       5.909   6.625  17.455  0.00  0.00    +0.000 C 
BRANCH  19  21
ATOM     20  C   UNL     1       6.179   4.439  16.224  0.00  0.00    +0.000 C 
ATOM     21  C   UNL     1       6.592   5.255  17.440  0.00  0.00    +0.000 C 
ENDBRANCH  19  21
ENDBRANCH  18  19
ENDBRANCH   9  18
ENDBRANCH   1  11
BRANCH   6  22
ATOM     22  C   UNL     1      -1.592  11.884  18.846  0.00  0.00    +0.000 A 
ATOM     23  C   UNL     1      -2.484  12.272  19.850  0.00  0.00    +0.000 A 
ATOM     24  C   UNL     1      -3.861  12.255  19.633  0.00  0.00    +0.000 A 
ATOM     25  C   UNL     1      -4.373  11.867  18.398  0.00  0.00    +0.000 A 
ATOM     26  C   UNL     1      -3.514  11.506  17.355  0.00  0.00    +0.000 A 
ATOM     27  C   UNL     1      -2.132  11.520  17.594  0.00  0.00    +0.000 A 
BRANCH  26  28
ATOM     28  C   UNL     1      -4.098  11.016  16.051  0.00  0.00    +0.000 C 
BRANCH  28  29
ATOM     29  N   UNL     1      -3.101  10.826  15.003  0.00  0.00    +0.000 NA
ATOM     30  H   UNL     1      -2.338  10.267  15.382  0.00  0.00    +0.000 HD
ATOM     31  H   UNL     1      -2.700  11.732  14.763  0.00  0.00    +0.000 HD
ENDBRANCH  28  29
ENDBRANCH  26  28
ENDBRANCH   6  22
TORSDOF 7
ENDMDL
MODEL 6
REMARK VINA RESULT:      -7.0      1.891      2.488
REMARK  Name = 
REMARK  8 active torsions:
REMARK  status: ('A' for Active; 'I' for Inactive)
REMARK    1  A    between atoms: C_1  and  C_2
REMARK    2  A    between atoms: C_2  and  C_3
REMARK    3  A    between atoms: C_3  and  C_4
REMARK    4  A    between atoms: C_4  and  N_5
REMARK    5  A    between atoms: C_7  and  C_8
REMARK    6  A    between atoms: C_13  and  C_14
REMARK    7  A    between atoms: C_18  and  C_19
REMARK    8  A    between atoms: C_19  and  N_20
REMARK                            x       y       z     vdW  Elec       q    Type
REMARK                         _______ _______ _______ _____ _____    ______ ____
ROOT
ATOM      1  C   UNL     1       1.317   8.545  20.795  0.00  0.00    +0.000 C 
ATOM      2  O   UNL     1       1.656   8.518  21.975  0.00  0.00    +0.000 OA
ATOM      3  N   UNL     1       0.407   9.493  20.304  0.00  0.00    +0.000 N 
ATOM      4  C   UNL     1      -0.115   9.551  18.942  0.00  0.00    +0.000 C 
ATOM      5  C   UNL     1       0.097  10.915  18.320  0.00  0.00    +0.000 C 
ATOM      6  C   UNL     1      -0.577  12.009  19.155  0.00  0.00    +0.000 C 
ATOM      7  C   UNL     1      -0.014  11.918  20.591  0.00  0.00    +0.000 C 
ATOM      8  C   UNL     1      -0.106  10.514  21.212  0.00  0.00    +0.000 C 
ENDROOT
BRANCH   1  11
ATOM      9  N   UNL     1       3.277   6.896  18.183  0.00  0.00    +0.000 N 
ATOM     10  C   UNL     1       2.609   8.000  18.648  0.00  0.00    +0.000 A 
ATOM     11  C   UNL     1       1.953   7.656  19.818  0.00  0.00    +0.000 A 
ATOM     12  C   UNL     1       2.015   6.233  19.899  0.00  0.00    +0.000 A 
ATOM     13  C   UNL     1       1.441   5.293  20.782  0.00  0.00    +0.000 A 
ATOM     14  C   UNL     1       1.729   3.935  20.631  0.00  0.00    +0.000 A 
ATOM     15  C   UNL     1       2.604   3.514  19.635  0.00  0.00    +0.000 A 
ATOM     16  C   UNL     1       3.195   4.422  18.759  0.00  0.00    +0.000 A 
ATOM     17  C   UNL     1       2.880   5.783  18.893  0.00  0.00    +0.000 A 
BRANCH   9  18
ATOM     18  C   UNL     1       4.212   6.949  17.067  0.00  0.00    +0.000 C 
BRANCH  18  19
ATOM     19  C   UNL     1       5.627   6.486  17.437  0.00  0.00    +0.000 C 
BRANCH  19  21
ATOM     20  C   UNL     1       7.312   4.632  17.139  0.00  0.00    +0.000 C 
ATOM     21  C   UNL     1       6.076   5.311  16.566  0.00  0.00    +0.000 C 
ENDBRANCH  19  21
ENDBRANCH  18  19
ENDBRANCH   9  18
ENDBRANCH   1  11
BRANCH   6  22
ATOM     22  C   UNL     1      -2.094  11.971  18.999  0.00  0.00    +0.000 A 
ATOM     23  C   UNL     1      -2.734  11.487  17.853  0.00  0.00    +0.000 A 
ATOM     24  C   UNL     1      -4.122  11.527  17.735  0.00  0.00    +0.000 A 
ATOM     25  C   UNL     1      -4.901  12.034  18.771  0.00  0.00    +0.000 A 
ATOM     26  C   UNL     1      -4.304  12.495  19.949  0.00  0.00    +0.000 A 
ATOM     27  C   UNL     1      -2.905  12.456  20.047  0.00  0.00    +0.000 A 
BRANCH  26  28
ATOM     28  C   UNL     1      -5.167  13.111  21.025  0.00  0.00    +0.000 C 
BRANCH  28  29
ATOM     29  N   UNL     1      -6.069  12.158  21.662  0.00  0.00    +0.000 NA
ATOM     30  H   UNL     1      -6.735  11.828  20.965  0.00  0.00    +0.000 HD
ATOM     31  H   UNL     1      -6.616  12.646  22.370  0.00  0.00    +0.000 HD
ENDBRANCH  28  29
ENDBRANCH  26  28
ENDBRANCH   6  22
TORSDOF 7
ENDMDL
MODEL 7
REMARK VINA RESULT:      -6.9      2.193      7.868
REMARK  Name = 
REMARK  8 active torsions:
REMARK  status: ('A' for Active; 'I' for Inactive)
REMARK    1  A    between atoms: C_1  and  C_2
REMARK    2  A    between atoms: C_2  and  C_3
REMARK    3  A    between atoms: C_3  and  C_4
REMARK    4  A    between atoms: C_4  and  N_5
REMARK    5  A    between atoms: C_7  and  C_8
REMARK    6  A    between atoms: C_13  and  C_14
REMARK    7  A    between atoms: C_18  and  C_19
REMARK    8  A    between atoms: C_19  and  N_20
REMARK                            x       y       z     vdW  Elec       q    Type
REMARK                         _______ _______ _______ _____ _____    ______ ____
ROOT
ATOM      1  C   UNL     1       0.979   8.736  20.862  0.00  0.00    +0.000 C 
ATOM      2  O   UNL     1       0.457   8.404  21.921  0.00  0.00    +0.000 OA
ATOM      3  N   UNL     1       1.749   7.844  20.100  0.00  0.00    +0.000 N 
ATOM      4  C   UNL     1       2.473   8.171  18.874  0.00  0.00    +0.000 C 
ATOM      5  C   UNL     1       2.099   7.240  17.741  0.00  0.00    +0.000 C 
ATOM      6  C   UNL     1       2.386   5.781  18.110  0.00  0.00    +0.000 C 
ATOM      7  C   UNL     1       1.617   5.467  19.414  0.00  0.00    +0.000 C 
ATOM      8  C   UNL     1       1.884   6.464  20.554  0.00  0.00    +0.000 C 
ENDROOT
BRANCH   1  11
ATOM      9  N   UNL     1       0.986  12.154  19.558  0.00  0.00    +0.000 N 
ATOM     10  C   UNL     1       1.396  11.240  20.494  0.00  0.00    +0.000 A 
ATOM     11  C   UNL     1       0.712  10.056  20.281  0.00  0.00    +0.000 A 
ATOM     12  C   UNL     1      -0.333  10.366  19.360  0.00  0.00    +0.000 A 
ATOM     13  C   UNL     1      -1.419   9.624  18.849  0.00  0.00    +0.000 A 
ATOM     14  C   UNL     1      -2.268  10.199  17.902  0.00  0.00    +0.000 A 
ATOM     15  C   UNL     1      -2.025  11.488  17.439  0.00  0.00    +0.000 A 
ATOM     16  C   UNL     1      -0.952  12.238  17.916  0.00  0.00    +0.000 A 
ATOM     17  C   UNL     1      -0.118  11.669  18.891  0.00  0.00    +0.000 A 
BRANCH   9  18
ATOM     18  C   UNL     1       1.630  13.450  19.383  0.00  0.00    +0.000 C 
BRANCH  18  19
ATOM     19  C   UNL     1       2.582  13.498  18.181  0.00  0.00    +0.000 C 
BRANCH  19  21
ATOM     20  C   UNL     1       3.525  15.687  17.352  0.00  0.00    +0.000 C 
ATOM     21  C   UNL     1       3.665  14.563  18.368  0.00  0.00    +0.000 C 
ENDBRANCH  19  21
ENDBRANCH  18  19
ENDBRANCH   9  18
ENDBRANCH   1  11
BRANCH   6  22
ATOM     22  C   UNL     1       3.884   5.490  18.099  0.00  0.00    +0.000 A 
ATOM     23  C   UNL     1       4.666   5.460  19.258  0.00  0.00    +0.000 A 
ATOM     24  C   UNL     1       6.041   5.247  19.190  0.00  0.00    +0.000 A 
ATOM     25  C   UNL     1       6.661   5.041  17.960  0.00  0.00    +0.000 A 
ATOM     26  C   UNL     1       5.910   5.029  16.780  0.00  0.00    +0.000 A 
ATOM     27  C   UNL     1       4.528   5.253  16.866  0.00  0.00    +0.000 A 
BRANCH  26  28
ATOM     28  C   UNL     1       6.618   4.880  15.454  0.00  0.00    +0.000 C 
BRANCH  28  29
ATOM     29  N   UNL     1       6.292   3.640  14.758  0.00  0.00    +0.000 NA
ATOM     30  H   UNL     1       6.708   2.863  15.271  0.00  0.00    +0.000 HD
ATOM     31  H   UNL     1       6.740   3.649  13.843  0.00  0.00    +0.000 HD
ENDBRANCH  28  29
ENDBRANCH  26  28
ENDBRANCH   6  22
TORSDOF 7
ENDMDL
MODEL 8
REMARK VINA RESULT:      -6.9      1.713      2.296
REMARK  Name = 
REMARK  8 active torsions:
REMARK  status: ('A' for Active; 'I' for Inactive)
REMARK    1  A    between atoms: C_1  and  C_2
REMARK    2  A    between atoms: C_2  and  C_3
REMARK    3  A    between atoms: C_3  and  C_4
REMARK    4  A    between atoms: C_4  and  N_5
REMARK    5  A    between atoms: C_7  and  C_8
REMARK    6  A    between atoms: C_13  and  C_14
REMARK    7  A    between atoms: C_18  and  C_19
REMARK    8  A    between atoms: C_19  and  N_20
REMARK                            x       y       z     vdW  Elec       q    Type
REMARK                         _______ _______ _______ _____ _____    ______ ____
ROOT
ATOM      1  C   UNL     1       1.532   8.000  20.703  0.00  0.00    +0.000 C 
ATOM      2  O   UNL     1       1.727   8.066  21.913  0.00  0.00    +0.000 OA
ATOM      3  N   UNL     1       0.714   8.920  20.031  0.00  0.00    +0.000 N 
ATOM      4  C   UNL     1       0.360   8.873  18.614  0.00  0.00    +0.000 C 
ATOM      5  C   UNL     1       0.682  10.177  17.916  0.00  0.00    +0.000 C 
ATOM      6  C   UNL     1      -0.057  11.349  18.572  0.00  0.00    +0.000 C 
ATOM      7  C   UNL     1       0.329  11.367  20.069  0.00  0.00    +0.000 C 
ATOM      8  C   UNL     1       0.124  10.022  20.784  0.00  0.00    +0.000 C 
ENDROOT
BRANCH   1  11
ATOM      9  N   UNL     1       3.832   6.056  18.625  0.00  0.00    +0.000 N 
ATOM     10  C   UNL     1       3.254   7.256  18.954  0.00  0.00    +0.000 A 
ATOM     11  C   UNL     1       2.256   7.022  19.884  0.00  0.00    +0.000 A 
ATOM     12  C   UNL     1       2.057   5.609  19.901  0.00  0.00    +0.000 A 
ATOM     13  C   UNL     1       1.117   4.776  20.544  0.00  0.00    +0.000 A 
ATOM     14  C   UNL     1       1.207   3.391  20.402  0.00  0.00    +0.000 A 
ATOM     15  C   UNL     1       2.239   2.831  19.655  0.00  0.00    +0.000 A 
ATOM     16  C   UNL     1       3.189   3.629  19.021  0.00  0.00    +0.000 A 
ATOM     17  C   UNL     1       3.078   5.024  19.140  0.00  0.00    +0.000 A 
BRANCH   9  18
ATOM     18  C   UNL     1       5.032   5.955  17.805  0.00  0.00    +0.000 C 
BRANCH  18  19
ATOM     19  C   UNL     1       4.858   6.541  16.398  0.00  0.00    +0.000 C 
BRANCH  19  21
ATOM     20  C   UNL     1       5.367   4.154  15.758  0.00  0.00    +0.000 C 
ATOM     21  C   UNL     1       5.441   5.612  15.330  0.00  0.00    +0.000 C 
ENDBRANCH  19  21
ENDBRANCH  18  19
ENDBRANCH   9  18
ENDBRANCH   1  11
BRANCH   6  22
ATOM     22  C   UNL     1      -1.545  11.324  18.237  0.00  0.00    +0.000 A 
ATOM     23  C   UNL     1      -2.054  10.776  17.055  0.00  0.00    +0.000 A 
ATOM     24  C   UNL     1      -3.416  10.830  16.768  0.00  0.00    +0.000 A 
ATOM     25  C   UNL     1      -4.302  11.417  17.668  0.00  0.00    +0.000 A 
ATOM     26  C   UNL     1      -3.838  11.946  18.877  0.00  0.00    +0.000 A 
ATOM     27  C   UNL     1      -2.463  11.891  19.146  0.00  0.00    +0.000 A 
BRANCH  26  28
ATOM     28  C   UNL     1      -4.809  12.646  19.799  0.00  0.00    +0.000 C 
BRANCH  28  29
ATOM     29  N   UNL     1      -4.392  13.994  20.167  0.00  0.00    +0.000 NA
ATOM     30  H   UNL     1      -4.249  14.024  21.176  0.00  0.00    +0.000 HD
ATOM     31  H   UNL     1      -5.154  14.640  19.967  0.00  0.00    +0.000 HD
ENDBRANCH  28  29
ENDBRANCH  26  28
ENDBRANCH   6  22
TORSDOF 7
ENDMDL
MODEL 9
REMARK VINA RESULT:      -6.8      1.838      8.414
REMARK  Name = 
REMARK  8 active torsions:
REMARK  status: ('A' for Active; 'I' for Inactive)
REMARK    1  A    between atoms: C_1  and  C_2
REMARK    2  A    between atoms: C_2  and  C_3
REMARK    3  A    between atoms: C_3  and  C_4
REMARK    4  A    between atoms: C_4  and  N_5
REMARK    5  A    between atoms: C_7  and  C_8
REMARK    6  A    between atoms: C_13  and  C_14
REMARK    7  A    between atoms: C_18  and  C_19
REMARK    8  A    between atoms: C_19  and  N_20
REMARK                            x       y       z     vdW  Elec       q    Type
REMARK                         _______ _______ _______ _____ _____    ______ ____
ROOT
ATOM      1  C   UNL     1       0.671   8.966  20.535  0.00  0.00    +0.000 C 
ATOM      2  O   UNL     1       0.177   8.797  21.645  0.00  0.00    +0.000 OA
ATOM      3  N   UNL     1       1.583   8.057  19.980  0.00  0.00    +0.000 N 
ATOM      4  C   UNL     1       2.282   8.215  18.707  0.00  0.00    +0.000 C 
ATOM      5  C   UNL     1       2.079   7.015  17.807  0.00  0.00    +0.000 C 
ATOM      6  C   UNL     1       2.570   5.731  18.483  0.00  0.00    +0.000 C 
ATOM      7  C   UNL     1       1.823   5.595  19.830  0.00  0.00    +0.000 C 
ATOM      8  C   UNL     1       1.910   6.843  20.723  0.00  0.00    +0.000 C 
ENDROOT
BRANCH   1  11
ATOM      9  N   UNL     1      -0.988  11.311  18.270  0.00  0.00    +0.000 N 
ATOM     10  C   UNL     1      -0.639  10.027  18.603  0.00  0.00    +0.000 A 
ATOM     11  C   UNL     1       0.226  10.073  19.683  0.00  0.00    +0.000 A 
ATOM     12  C   UNL     1       0.612  11.440  19.819  0.00  0.00    +0.000 A 
ATOM     13  C   UNL     1       1.547  12.099  20.645  0.00  0.00    +0.000 A 
ATOM     14  C   UNL     1       1.673  13.487  20.580  0.00  0.00    +0.000 A 
ATOM     15  C   UNL     1       0.856  14.222  19.727  0.00  0.00    +0.000 A 
ATOM     16  C   UNL     1      -0.085  13.599  18.910  0.00  0.00    +0.000 A 
ATOM     17  C   UNL     1      -0.188  12.199  18.955  0.00  0.00    +0.000 A 
BRANCH   9  18
ATOM     18  C   UNL     1      -2.021  11.622  17.290  0.00  0.00    +0.000 C 
BRANCH  18  19
ATOM     19  C   UNL     1      -3.011  10.472  17.065  0.00  0.00    +0.000 C 
BRANCH  19  21
ATOM     20  C   UNL     1      -3.054  10.108  14.569  0.00  0.00    +0.000 C 
ATOM     21  C   UNL     1      -3.804  10.662  15.770  0.00  0.00    +0.000 C 
ENDBRANCH  19  21
ENDBRANCH  18  19
ENDBRANCH   9  18
ENDBRANCH   1  11
BRANCH   6  22
ATOM     22  C   UNL     1       4.094   5.674  18.524  0.00  0.00    +0.000 A 
ATOM     23  C   UNL     1       4.806   4.895  19.443  0.00  0.00    +0.000 A 
ATOM     24  C   UNL     1       6.199   4.922  19.478  0.00  0.00    +0.000 A 
ATOM     25  C   UNL     1       6.910   5.713  18.581  0.00  0.00    +0.000 A 
ATOM     26  C   UNL     1       6.238   6.479  17.622  0.00  0.00    +0.000 A 
ATOM     27  C   UNL     1       4.835   6.448  17.607  0.00  0.00    +0.000 A 
BRANCH  26  28
ATOM     28  C   UNL     1       7.030   7.388  16.712  0.00  0.00    +0.000 C 
BRANCH  28  29
ATOM     29  N   UNL     1       7.795   8.404  17.427  0.00  0.00    +0.000 NA
ATOM     30  H   UNL     1       7.724   8.216  18.426  0.00  0.00    +0.000 HD
ATOM     31  H   UNL     1       7.357   9.311  17.276  0.00  0.00    +0.000 HD
ENDBRANCH  28  29
ENDBRANCH  26  28
ENDBRANCH   6  22
TORSDOF 7
ENDMDL
