MODEL 1
REMARK VINA RESULT:      -6.7      0.000      0.000
REMARK  Name = 
REMARK  6 active torsions:
REMARK  status: ('A' for Active; 'I' for Inactive)
REMARK    1  A    between atoms: C_1  and  C_2
REMARK    2  A    between atoms: C_2  and  C_3
REMARK    3  A    between atoms: C_3  and  N_4
REMARK    4  A    between atoms: C_5  and  C_7
REMARK    5  A    between atoms: C_8  and  C_9
REMARK    6  A    between atoms: C_9  and  O_11
REMARK                            x       y       z     vdW  Elec       q    Type
REMARK                         _______ _______ _______ _____ _____    ______ ____
ROOT
ATOM      1  C   UNL     1       5.713   6.256  17.499  0.00  0.00    +0.000 C 
ATOM      2  C   UNL     1       6.562   5.227  18.272  0.00  0.00    +0.000 C 
ATOM      3  C   UNL     1       5.523   4.531  19.145  0.00  0.00    +0.000 C 
ATOM      4  C   UNL     1       4.612   3.645  18.295  0.00  0.00    +0.000 C 
ATOM      5  C   UNL     1       3.694   4.667  17.630  0.00  0.00    +0.000 C 
ATOM      6  C   UNL     1       4.313   5.992  18.071  0.00  0.00    +0.000 C 
ATOM      7  O   UNL     1       4.653   5.661  19.450  0.00  0.00    +0.000 OA
ENDROOT
BRANCH   1   9
ATOM      8  N   UNL     1       6.691   5.127  15.582  0.00  0.00    +0.000 N 
ATOM      9  C   UNL     1       5.806   6.100  15.997  0.00  0.00    +0.000 C 
ATOM     10  O   UNL     1       5.142   6.772  15.218  0.00  0.00    +0.000 OA
ATOM     11  H   UNL     1       7.206   4.577  16.252  0.00  0.00    +0.000 HD
BRANCH   8  12
ATOM     12  C   UNL     1       6.868   4.837  14.170  0.00  0.00    +0.000 C 
BRANCH  12  14
ATOM     13  C   UNL     1       6.173   3.374  12.219  0.00  0.00    +0.000 C 
ATOM     14  C   UNL     1       5.912   3.757  13.670  0.00  0.00    +0.000 C 
ENDBRANCH  12  14
ENDBRANCH   8  12
ENDBRANCH   1   9
BRANCH   2  15
ATOM     15  C   UNL     1       7.598   5.913  19.133  0.00  0.00    +0.000 C 
ATOM     16  O   UNL     1       8.253   6.874  18.757  0.00  0.00    +0.000 OA
BRANCH  15  17
ATOM     17  O   UNL     1       7.728   5.397  20.377  0.00  0.00    +0.000 OA
ATOM     18  H   UNL     1       7.049   5.728  21.009  0.00  0.00    +0.000 HD
ENDBRANCH  15  17
ENDBRANCH   2  15
TORSDOF 5
ENDMDL
MODEL 2
REMARK VINA RESULT:      -6.6      2.450      4.235
REMARK  Name = 
REMARK  6 active torsions:
REMARK  status: ('A' for Active; 'I' for Inactive)
REMARK    1  A    between atoms: C_1  and  C_2
REMARK    2  A    between atoms: C_2  and  C_3
REMARK    3  A    between atoms: C_3  and  N_4
REMARK    4  A    between atoms: C_5  and  C_7
REMARK    5  A    between atoms: C_8  and  C_9
REMARK    6  A    between atoms: C_9  and  O_11
REMARK                            x       y       z     vdW  Elec       q    Type
REMARK                         _______ _______ _______ _____ _____    ______ ____
ROOT
ATOM      1  C   UNL     1       4.164   3.890  19.373  0.00  0.00    +0.000 C 
ATOM      2  C   UNL     1       3.306   3.370  18.203  0.00  0.00    +0.000 C 
ATOM      3  C   UNL     1       2.052   4.233  18.305  0.00  0.00    +0.000 C 
ATOM      4  C   UNL     1       2.353   5.673  17.888  0.00  0.00    +0.000 C 
ATOM      5  C   UNL     1       3.094   6.215  19.108  0.00  0.00    +0.000 C 
ATOM      6  C   UNL     1       3.248   4.965  19.973  0.00  0.00    +0.000 C 
ATOM      7  O   UNL     1       1.944   4.349  19.754  0.00  0.00    +0.000 OA
ENDROOT
BRANCH   1   9
ATOM      8  N   UNL     1       5.852   4.096  17.637  0.00  0.00    +0.000 N 
ATOM      9  C   UNL     1       5.519   4.405  18.939  0.00  0.00    +0.000 C 
ATOM     10  O   UNL     1       6.250   5.052  19.678  0.00  0.00    +0.000 OA
ATOM     11  H   UNL     1       5.216   3.580  17.050  0.00  0.00    +0.000 HD
BRANCH   8  12
ATOM     12  C   UNL     1       7.107   4.549  17.064  0.00  0.00    +0.000 C 
BRANCH  12  14
ATOM     13  C   UNL     1       5.509   5.577  15.385  0.00  0.00    +0.000 C 
ATOM     14  C   UNL     1       6.937   5.124  15.660  0.00  0.00    +0.000 C 
ENDBRANCH  12  14
ENDBRANCH   8  12
ENDBRANCH   1   9
BRANCH   2  15
ATOM     15  C   UNL     1       2.958   1.912  18.388  0.00  0.00    +0.000 C 
ATOM     16  O   UNL     1       3.797   1.025  18.452  0.00  0.00    +0.000 OA
BRANCH  15  17
ATOM     17  O   UNL     1       1.634   1.659  18.508  0.00  0.00    +0.000 OA
ATOM     18  H   UNL     1       1.226   2.090  19.294  0.00  0.00    +0.000 HD
ENDBRANCH  15  17
ENDBRANCH   2  15
TORSDOF 5
ENDMDL
MODEL 3
REMARK VINA RESULT:      -6.5      3.255      5.063
REMARK  Name = 
REMARK  6 active torsions:
REMARK  status: ('A' for Active; 'I' for Inactive)
REMARK    1  A    between atoms: C_1  and  C_2
REMARK    2  A    between atoms: C_2  and  C_3
REMARK    3  A    between atoms: C_3  and  N_4
REMARK    4  A    between atoms: C_5  and  C_7
REMARK    5  A    between atoms: C_8  and  C_9
REMARK    6  A    between atoms: C_9  and  O_11
REMARK                            x       y       z     vdW  Elec       q    Type
REMARK                         _______ _______ _______ _____ _____    ______ ____
ROOT
ATOM      1  C   UNL     1       3.274   4.326  19.385  0.00  0.00    +0.000 C 
ATOM      2  C   UNL     1       2.597   3.004  19.797  0.00  0.00    +0.000 C 
ATOM      3  C   UNL     1       1.761   2.664  18.567  0.00  0.00    +0.000 C 
ATOM      4  C   UNL     1       2.658   2.234  17.407  0.00  0.00    +0.000 C 
ATOM      5  C   UNL     1       3.227   3.567  16.926  0.00  0.00    +0.000 C 
ATOM      6  C   UNL     1       2.698   4.541  17.978  0.00  0.00    +0.000 C 
ATOM      7  O   UNL     1       1.355   4.004  18.161  0.00  0.00    +0.000 OA
ENDROOT
BRANCH   1   9
ATOM      8  N   UNL     1       5.409   5.477  19.239  0.00  0.00    +0.000 N 
ATOM      9  C   UNL     1       4.785   4.263  19.430  0.00  0.00    +0.000 C 
ATOM     10  O   UNL     1       5.399   3.223  19.633  0.00  0.00    +0.000 OA
ATOM     11  H   UNL     1       4.870   6.318  19.096  0.00  0.00    +0.000 HD
BRANCH   8  12
ATOM     12  C   UNL     1       6.856   5.586  19.286  0.00  0.00    +0.000 C 
BRANCH  12  14
ATOM     13  C   UNL     1       7.580   7.324  17.588  0.00  0.00    +0.000 C 
ATOM     14  C   UNL     1       7.470   5.840  17.912  0.00  0.00    +0.000 C 
ENDBRANCH  12  14
ENDBRANCH   8  12
ENDBRANCH   1   9
BRANCH   2  15
ATOM     15  C   UNL     1       1.706   3.201  21.001  0.00  0.00    +0.000 C 
ATOM     16  O   UNL     1       2.107   3.121  22.153  0.00  0.00    +0.000 OA
BRANCH  15  17
ATOM     17  O   UNL     1       0.421   3.506  20.708  0.00  0.00    +0.000 OA
ATOM     18  H   UNL     1       0.293   4.450  20.456  0.00  0.00    +0.000 HD
ENDBRANCH  15  17
ENDBRANCH   2  15
TORSDOF 5
ENDMDL
MODEL 4
REMARK VINA RESULT:      -6.4      2.046      4.085
REMARK  Name = 
REMARK  6 active torsions:
REMARK  status: ('A' for Active; 'I' for Inactive)
REMARK    1  A    between atoms: C_1  and  C_2
REMARK    2  A    between atoms: C_2  and  C_3
REMARK    3  A    between atoms: C_3  and  N_4
REMARK    4  A    between atoms: C_5  and  C_7
REMARK    5  A    between atoms: C_8  and  C_9
REMARK    6  A    between atoms: C_9  and  O_11
REMARK                            x       y       z     vdW  Elec       q    Type
REMARK                         _______ _______ _______ _____ _____    ______ ____
ROOT
ATOM      1  C   UNL     1       6.309   4.498  18.092  0.00  0.00    +0.000 C 
ATOM      2  C   UNL     1       6.550   6.020  18.117  0.00  0.00    +0.000 C 
ATOM      3  C   UNL     1       6.705   6.354  16.636  0.00  0.00    +0.000 C 
ATOM      4  C   UNL     1       5.362   6.238  15.915  0.00  0.00    +0.000 C 
ATOM      5  C   UNL     1       5.195   4.726  15.784  0.00  0.00    +0.000 C 
ATOM      6  C   UNL     1       6.382   4.199  16.588  0.00  0.00    +0.000 C 
ATOM      7  O   UNL     1       7.402   5.158  16.181  0.00  0.00    +0.000 OA
ENDROOT
BRANCH   1   9
ATOM      8  N   UNL     1       4.678   2.761  18.566  0.00  0.00    +0.000 N 
ATOM      9  C   UNL     1       5.004   4.089  18.740  0.00  0.00    +0.000 C 
ATOM     10  O   UNL     1       4.306   4.869  19.375  0.00  0.00    +0.000 OA
ATOM     11  H   UNL     1       5.287   2.141  18.055  0.00  0.00    +0.000 HD
BRANCH   8  12
ATOM     12  C   UNL     1       3.470   2.209  19.156  0.00  0.00    +0.000 C 
BRANCH  12  14
ATOM     13  C   UNL     1       0.973   2.533  18.862  0.00  0.00    +0.000 C 
ATOM     14  C   UNL     1       2.295   2.199  18.183  0.00  0.00    +0.000 C 
ENDBRANCH  12  14
ENDBRANCH   8  12
ENDBRANCH   1   9
BRANCH   2  15
ATOM     15  C   UNL     1       7.816   6.359  18.868  0.00  0.00    +0.000 C 
ATOM     16  O   UNL     1       8.440   7.397  18.700  0.00  0.00    +0.000 OA
BRANCH  15  17
ATOM     17  O   UNL     1       8.199   5.431  19.775  0.00  0.00    +0.000 OA
ATOM     18  H   UNL     1       8.663   5.816  20.554  0.00  0.00    +0.000 HD
ENDBRANCH  15  17
ENDBRANCH   2  15
TORSDOF 5
ENDMDL
MODEL 5
REMARK VINA RESULT:      -6.3      2.285      4.640
REMARK  Name = 
REMARK  6 active torsions:
REMARK  status: ('A' for Active; 'I' for Inactive)
REMARK    1  A    between atoms: C_1  and  C_2
REMARK    2  A    between atoms: C_2  and  C_3
REMARK    3  A    between atoms: C_3  and  N_4
REMARK    4  A    between atoms: C_5  and  C_7
REMARK    5  A    between atoms: C_8  and  C_9
REMARK    6  A    between atoms: C_9  and  O_11
REMARK                            x       y       z     vdW  Elec       q    Type
REMARK                         _______ _______ _______ _____ _____    ______ ____
ROOT
ATOM      1  C   UNL     1       5.967   4.360  18.085  0.00  0.00    +0.000 C 
ATOM      2  C   UNL     1       6.325   5.833  18.369  0.00  0.00    +0.000 C 
ATOM      3  C   UNL     1       6.716   6.350  16.989  0.00  0.00    +0.000 C 
ATOM      4  C   UNL     1       5.487   6.470  16.089  0.00  0.00    +0.000 C 
ATOM      5  C   UNL     1       5.218   5.016  15.712  0.00  0.00    +0.000 C 
ATOM      6  C   UNL     1       6.231   4.266  16.575  0.00  0.00    +0.000 C 
ATOM      7  O   UNL     1       7.373   5.164  16.453  0.00  0.00    +0.000 OA
ENDROOT
BRANCH   1   9
ATOM      8  N   UNL     1       3.868   5.014  19.119  0.00  0.00    +0.000 N 
ATOM      9  C   UNL     1       4.555   3.999  18.489  0.00  0.00    +0.000 C 
ATOM     10  O   UNL     1       4.061   2.901  18.263  0.00  0.00    +0.000 OA
ATOM     11  H   UNL     1       4.299   5.914  19.270  0.00  0.00    +0.000 HD
BRANCH   8  12
ATOM     12  C   UNL     1       2.490   4.831  19.539  0.00  0.00    +0.000 C 
BRANCH  12  14
ATOM     13  C   UNL     1       1.760   3.151  21.292  0.00  0.00    +0.000 C 
ATOM     14  C   UNL     1       2.368   4.522  21.029  0.00  0.00    +0.000 C 
ENDBRANCH  12  14
ENDBRANCH   8  12
ENDBRANCH   1   9
BRANCH   2  15
ATOM     15  C   UNL     1       7.493   5.935  19.321  0.00  0.00    +0.000 C 
ATOM     16  O   UNL     1       7.611   5.237  20.317  0.00  0.00    +0.000 OA
BRANCH  15  17
ATOM     17  O   UNL     1       8.428   6.848  18.970  0.00  0.00    +0.000 OA
ATOM     18  H   UNL     1       8.959   7.175  19.733  0.00  0.00    +0.000 HD
ENDBRANCH  15  17
ENDBRANCH   2  15
TORSDOF 5
ENDMDL
MODEL 6
REMARK VINA RESULT:      -6.3      3.165      4.674
REMARK  Name = 
REMARK  6 active torsions:
REMARK  status: ('A' for Active; 'I' for Inactive)
REMARK    1  A    between atoms: C_1  and  C_2
REMARK    2  A    between atoms: C_2  and  C_3
REMARK    3  A    between atoms: C_3  and  N_4
REMARK    4  A    between atoms: C_5  and  C_7
REMARK    5  A    between atoms: C_8  and  C_9
REMARK    6  A    between atoms: C_9  and  O_11
REMARK                            x       y       z     vdW  Elec       q    Type
REMARK                         _______ _______ _______ _____ _____    ______ ____
ROOT
ATOM      1  C   UNL     1       4.240   3.906  19.014  0.00  0.00    +0.000 C 
ATOM      2  C   UNL     1       3.137   3.358  18.086  0.00  0.00    +0.000 C 
ATOM      3  C   UNL     1       1.937   4.225  18.452  0.00  0.00    +0.000 C 
ATOM      4  C   UNL     1       2.127   5.653  17.941  0.00  0.00    +0.000 C 
ATOM      5  C   UNL     1       3.127   6.225  18.943  0.00  0.00    +0.000 C 
ATOM      6  C   UNL     1       3.482   4.998  19.781  0.00  0.00    +0.000 C 
ATOM      7  O   UNL     1       2.165   4.379  19.884  0.00  0.00    +0.000 OA
ENDROOT
BRANCH   1   9
ATOM      8  N   UNL     1       6.514   4.759  19.076  0.00  0.00    +0.000 N 
ATOM      9  C   UNL     1       5.456   4.408  18.266  0.00  0.00    +0.000 C 
ATOM     10  O   UNL     1       5.498   4.482  17.044  0.00  0.00    +0.000 OA
ATOM     11  H   UNL     1       6.451   4.665  20.078  0.00  0.00    +0.000 HD
BRANCH   8  12
ATOM     12  C   UNL     1       7.764   5.230  18.505  0.00  0.00    +0.000 C 
BRANCH  12  14
ATOM     13  C   UNL     1       7.547   7.531  17.463  0.00  0.00    +0.000 C 
ATOM     14  C   UNL     1       7.964   6.731  18.690  0.00  0.00    +0.000 C 
ENDBRANCH  12  14
ENDBRANCH   8  12
ENDBRANCH   1   9
BRANCH   2  15
ATOM     15  C   UNL     1       2.847   1.906  18.384  0.00  0.00    +0.000 C 
ATOM     16  O   UNL     1       3.716   1.048  18.453  0.00  0.00    +0.000 OA
BRANCH  15  17
ATOM     17  O   UNL     1       1.542   1.624  18.600  0.00  0.00    +0.000 OA
ATOM     18  H   UNL     1       1.337   1.426  19.543  0.00  0.00    +0.000 HD
ENDBRANCH  15  17
ENDBRANCH   2  15
TORSDOF 5
ENDMDL
MODEL 7
REMARK VINA RESULT:      -6.3      2.966      4.831
REMARK  Name = 
REMARK  6 active torsions:
REMARK  status: ('A' for Active; 'I' for Inactive)
REMARK    1  A    between atoms: C_1  and  C_2
REMARK    2  A    between atoms: C_2  and  C_3
REMARK    3  A    between atoms: C_3  and  N_4
REMARK    4  A    between atoms: C_5  and  C_7
REMARK    5  A    between atoms: C_8  and  C_9
REMARK    6  A    between atoms: C_9  and  O_11
REMARK                            x       y       z     vdW  Elec       q    Type
REMARK                         _______ _______ _______ _____ _____    ______ ____
ROOT
ATOM      1  C   UNL     1       2.431   4.445  19.151  0.00  0.00    +0.000 C 
ATOM      2  C   UNL     1       2.736   3.117  19.872  0.00  0.00    +0.000 C 
ATOM      3  C   UNL     1       2.259   2.077  18.863  0.00  0.00    +0.000 C 
ATOM      4  C   UNL     1       3.196   2.027  17.656  0.00  0.00    +0.000 C 
ATOM      5  C   UNL     1       2.796   3.283  16.885  0.00  0.00    +0.000 C 
ATOM      6  C   UNL     1       1.807   3.948  17.840  0.00  0.00    +0.000 C 
ATOM      7  O   UNL     1       1.096   2.768  18.321  0.00  0.00    +0.000 OA
ENDROOT
BRANCH   1   9
ATOM      8  N   UNL     1       4.843   4.707  19.297  0.00  0.00    +0.000 N 
ATOM      9  C   UNL     1       3.653   5.317  18.961  0.00  0.00    +0.000 C 
ATOM     10  O   UNL     1       3.589   6.463  18.532  0.00  0.00    +0.000 OA
ATOM     11  H   UNL     1       4.859   3.754  19.626  0.00  0.00    +0.000 HD
BRANCH   8  12
ATOM     12  C   UNL     1       6.107   5.405  19.139  0.00  0.00    +0.000 C 
BRANCH  12  14
ATOM     13  C   UNL     1       6.402   4.593  16.756  0.00  0.00    +0.000 C 
ATOM     14  C   UNL     1       7.032   4.722  18.136  0.00  0.00    +0.000 C 
ENDBRANCH  12  14
ENDBRANCH   8  12
ENDBRANCH   1   9
BRANCH   2  15
ATOM     15  C   UNL     1       1.952   3.003  21.158  0.00  0.00    +0.000 C 
ATOM     16  O   UNL     1       2.475   2.948  22.261  0.00  0.00    +0.000 OA
BRANCH  15  17
ATOM     17  O   UNL     1       0.608   2.996  20.999  0.00  0.00    +0.000 OA
ATOM     18  H   UNL     1       0.327   2.923  20.058  0.00  0.00    +0.000 HD
ENDBRANCH  15  17
ENDBRANCH   2  15
TORSDOF 5
ENDMDL
MODEL 8
REMARK VINA RESULT:      -6.3      1.935      3.300
REMARK  Name = 
REMARK  6 active torsions:
REMARK  status: ('A' for Active; 'I' for Inactive)
REMARK    1  A    between atoms: C_1  and  C_2
REMARK    2  A    between atoms: C_2  and  C_3
REMARK    3  A    between atoms: C_3  and  N_4
REMARK    4  A    between atoms: C_5  and  C_7
REMARK    5  A    between atoms: C_8  and  C_9
REMARK    6  A    between atoms: C_9  and  O_11
REMARK                            x       y       z     vdW  Elec       q    Type
REMARK                         _______ _______ _______ _____ _____    ______ ____
ROOT
ATOM      1  C   UNL     1       5.831   3.949  16.290  0.00  0.00    +0.000 C 
ATOM      2  C   UNL     1       4.644   4.515  17.095  0.00  0.00    +0.000 C 
ATOM      3  C   UNL     1       5.340   5.300  18.202  0.00  0.00    +0.000 C 
ATOM      4  C   UNL     1       5.995   6.561  17.638  0.00  0.00    +0.000 C 
ATOM      5  C   UNL     1       7.237   6.001  16.950  0.00  0.00    +0.000 C 
ATOM      6  C   UNL     1       7.027   4.493  17.083  0.00  0.00    +0.000 C 
ATOM      7  O   UNL     1       6.490   4.437  18.438  0.00  0.00    +0.000 OA
ENDROOT
BRANCH   1   9
ATOM      8  N   UNL     1       6.373   3.435  13.978  0.00  0.00    +0.000 N 
ATOM      9  C   UNL     1       5.816   4.361  14.834  0.00  0.00    +0.000 C 
ATOM     10  O   UNL     1       5.339   5.421  14.450  0.00  0.00    +0.000 OA
ATOM     11  H   UNL     1       6.737   2.562  14.328  0.00  0.00    +0.000 HD
BRANCH   8  12
ATOM     12  C   UNL     1       6.405   3.671  12.546  0.00  0.00    +0.000 C 
BRANCH  12  14
ATOM     13  C   UNL     1       4.213   3.246  11.343  0.00  0.00    +0.000 C 
ATOM     14  C   UNL     1       5.557   2.669  11.767  0.00  0.00    +0.000 C 
ENDBRANCH  12  14
ENDBRANCH   8  12
ENDBRANCH   1   9
BRANCH   2  15
ATOM     15  C   UNL     1       3.807   3.404  17.684  0.00  0.00    +0.000 C 
ATOM     16  O   UNL     1       2.587   3.372  17.613  0.00  0.00    +0.000 OA
BRANCH  15  17
ATOM     17  O   UNL     1       4.517   2.417  18.279  0.00  0.00    +0.000 OA
ATOM     18  H   UNL     1       5.392   2.259  17.856  0.00  0.00    +0.000 HD
ENDBRANCH  15  17
ENDBRANCH   2  15
TORSDOF 5
ENDMDL
MODEL 9
REMARK VINA RESULT:      -6.3      2.064      3.994
REMARK  Name = 
REMARK  6 active torsions:
REMARK  status: ('A' for Active; 'I' for Inactive)
REMARK    1  A    between atoms: C_1  and  C_2
REMARK    2  A    between atoms: C_2  and  C_3
REMARK    3  A    between atoms: C_3  and  N_4
REMARK    4  A    between atoms: C_5  and  C_7
REMARK    5  A    between atoms: C_8  and  C_9
REMARK    6  A    between atoms: C_9  and  O_11
REMARK                            x       y       z     vdW  Elec       q    Type
REMARK                         _______ _______ _______ _____ _____    ______ ____
ROOT
ATOM      1  C   UNL     1       6.661   5.017  17.965  0.00  0.00    +0.000 C 
ATOM      2  C   UNL     1       6.530   6.446  17.400  0.00  0.00    +0.000 C 
ATOM      3  C   UNL     1       6.645   6.218  15.896  0.00  0.00    +0.000 C 
ATOM      4  C   UNL     1       5.392   5.528  15.359  0.00  0.00    +0.000 C 
ATOM      5  C   UNL     1       5.595   4.086  15.817  0.00  0.00    +0.000 C 
ATOM      6  C   UNL     1       6.849   4.195  16.682  0.00  0.00    +0.000 C 
ATOM      7  O   UNL     1       7.622   5.136  15.880  0.00  0.00    +0.000 OA
ENDROOT
BRANCH   1   9
ATOM      8  N   UNL     1       5.324   3.229  18.922  0.00  0.00    +0.000 N 
ATOM      9  C   UNL     1       5.474   4.594  18.802  0.00  0.00    +0.000 C 
ATOM     10  O   UNL     1       4.720   5.397  19.336  0.00  0.00    +0.000 OA
ATOM     11  H   UNL     1       5.977   2.597  18.485  0.00  0.00    +0.000 HD
BRANCH   8  12
ATOM     12  C   UNL     1       4.248   2.667  19.720  0.00  0.00    +0.000 C 
BRANCH  12  14
ATOM     13  C   UNL     1       2.653   2.575  17.752  0.00  0.00    +0.000 C 
ATOM     14  C   UNL     1       3.297   1.804  18.897  0.00  0.00    +0.000 C 
ENDBRANCH  12  14
ENDBRANCH   8  12
ENDBRANCH   1   9
BRANCH   2  15
ATOM     15  C   UNL     1       7.655   7.329  17.887  0.00  0.00    +0.000 C 
ATOM     16  O   UNL     1       7.949   8.393  17.361  0.00  0.00    +0.000 OA
BRANCH  15  17
ATOM     17  O   UNL     1       8.305   6.865  18.979  0.00  0.00    +0.000 OA
ATOM     18  H   UNL     1       9.130   7.362  19.182  0.00  0.00    +0.000 HD
ENDBRANCH  15  17
ENDBRANCH   2  15
TORSDOF 5
ENDMDL
