MODEL 1
REMARK VINA RESULT:      -7.2      0.000      0.000
REMARK  Name = 
REMARK  8 active torsions:
REMARK  status: ('A' for Active; 'I' for Inactive)
REMARK    1  A    between atoms: C_1  and  C_2
REMARK    2  A    between atoms: C_4  and  C_5
REMARK    3  A    between atoms: C_5  and  N_6
REMARK    4  A    between atoms: C_9  and  C_10
REMARK    5  A    between atoms: C_10  and  N_11
REMARK    6  A    between atoms: N_11  and  S_12
REMARK    7  A    between atoms: S_12  and  C_15
REMARK    8  A    between atoms: C_23  and  C_24
REMARK                            x       y       z     vdW  Elec       q    Type
REMARK                         _______ _______ _______ _____ _____    ______ ____
ROOT
ATOM      1  N   UNL     1       4.346   4.403  18.657  0.00  0.00    +0.000 NA
ATOM      2  C   UNL     1       4.267   5.640  19.433  0.00  0.00    +0.000 C 
ATOM      3  C   UNL     1       2.824   6.049  19.741  0.00  0.00    +0.000 C 
ATOM      4  C   UNL     1       1.963   6.122  18.472  0.00  0.00    +0.000 C 
ATOM      5  C   UNL     1       2.041   4.756  17.780  0.00  0.00    +0.000 C 
ATOM      6  C   UNL     1       3.485   4.352  17.475  0.00  0.00    +0.000 C 
ENDROOT
BRANCH   1   7
ATOM      7  C   UNL     1       5.726   3.967  18.384  0.00  0.00    +0.000 C 
BRANCH   7  11
ATOM      8  C   UNL     1       7.062   4.776  13.478  0.00  0.00    +0.000 C 
ATOM      9  C   UNL     1       6.844   4.792  14.940  0.00  0.00    +0.000 A 
ATOM     10  C   UNL     1       6.206   3.944  15.812  0.00  0.00    +0.000 A 
ATOM     11  C   UNL     1       6.313   4.517  17.115  0.00  0.00    +0.000 A 
ATOM     12  C   UNL     1       7.005   5.703  16.930  0.00  0.00    +0.000 A 
ATOM     13  C   UNL     1       7.428   6.794  17.829  0.00  0.00    +0.000 C 
ATOM     14  O   UNL     1       7.343   5.863  15.616  0.00  0.00    +0.000 OA
ENDBRANCH   7  11
ENDBRANCH   1   7
BRANCH   4  15
ATOM     15  C   UNL     1       2.400   7.287  17.564  0.00  0.00    +0.000 C 
BRANCH  15  16
ATOM     16  N   UNL     1       2.668   8.488  18.378  0.00  0.00    +0.000 NA
ATOM     17  H   UNL     1       3.577   8.923  18.208  0.00  0.00    +0.000 HD
BRANCH  16  18
ATOM     18  S   UNL     1       1.473   9.686  18.362  0.00  0.00    +0.000 S 
ATOM     19  O   UNL     1       2.146  10.937  18.103  0.00  0.00    +0.000 OA
ATOM     20  O   UNL     1       0.386   9.221  17.527  0.00  0.00    +0.000 OA
BRANCH  18  21
ATOM     21  C   UNL     1       0.788   9.820  19.992  0.00  0.00    +0.000 A 
ATOM     22  C   UNL     1       0.910   9.031  21.122  0.00  0.00    +0.000 A 
ATOM     23  C   UNL     1       0.141   9.526  22.217  0.00  0.00    +0.000 A 
ATOM     24  C   UNL     1      -0.525  10.674  21.870  0.00  0.00    +0.000 A 
ATOM     25 BR   UNL     1      -1.623  11.630  23.049  0.00  0.00    +0.000 Br
ATOM     26  S   UNL     1      -0.233  11.167  20.276  0.00  0.00    +0.000 S 
ENDBRANCH  18  21
ENDBRANCH  16  18
ENDBRANCH  15  16
ENDBRANCH   4  15
TORSDOF 6
ENDMDL
MODEL 2
REMARK VINA RESULT:      -7.1      2.006      2.382
REMARK  Name = 
REMARK  8 active torsions:
REMARK  status: ('A' for Active; 'I' for Inactive)
REMARK    1  A    between atoms: C_1  and  C_2
REMARK    2  A    between atoms: C_4  and  C_5
REMARK    3  A    between atoms: C_5  and  N_6
REMARK    4  A    between atoms: C_9  and  C_10
REMARK    5  A    between atoms: C_10  and  N_11
REMARK    6  A    between atoms: N_11  and  S_12
REMARK    7  A    between atoms: S_12  and  C_15
REMARK    8  A    between atoms: C_23  and  C_24
REMARK                            x       y       z     vdW  Elec       q    Type
REMARK                         _______ _______ _______ _____ _____    ______ ____
ROOT
ATOM      1  N   UNL     1       4.302   4.484  18.646  0.00  0.00    +0.000 NA
ATOM      2  C   UNL     1       3.705   3.936  19.864  0.00  0.00    +0.000 C 
ATOM      3  C   UNL     1       2.174   3.984  19.841  0.00  0.00    +0.000 C 
ATOM      4  C   UNL     1       1.646   5.392  19.536  0.00  0.00    +0.000 C 
ATOM      5  C   UNL     1       2.258   5.839  18.203  0.00  0.00    +0.000 C 
ATOM      6  C   UNL     1       3.787   5.789  18.232  0.00  0.00    +0.000 C 
ENDROOT
BRANCH   1   7
ATOM      7  C   UNL     1       5.773   4.411  18.628  0.00  0.00    +0.000 C 
BRANCH   7  11
ATOM      8  C   UNL     1       7.176   4.800  13.690  0.00  0.00    +0.000 C 
ATOM      9  C   UNL     1       6.956   4.928  15.146  0.00  0.00    +0.000 A 
ATOM     10  C   UNL     1       6.256   4.186  16.066  0.00  0.00    +0.000 A 
ATOM     11  C   UNL     1       6.401   4.834  17.331  0.00  0.00    +0.000 A 
ATOM     12  C   UNL     1       7.178   5.952  17.074  0.00  0.00    +0.000 A 
ATOM     13  C   UNL     1       7.676   7.066  17.904  0.00  0.00    +0.000 C 
ATOM     14  O   UNL     1       7.530   6.002  15.755  0.00  0.00    +0.000 OA
ENDBRANCH   7  11
ENDBRANCH   1   7
BRANCH   4  15
ATOM     15  C   UNL     1       1.942   6.364  20.695  0.00  0.00    +0.000 C 
BRANCH  15  16
ATOM     16  N   UNL     1       1.801   7.758  20.233  0.00  0.00    +0.000 NA
ATOM     17  H   UNL     1       1.414   7.858  19.292  0.00  0.00    +0.000 HD
BRANCH  16  18
ATOM     18  S   UNL     1       0.988   8.814  21.277  0.00  0.00    +0.000 S 
ATOM     19  O   UNL     1      -0.309   8.229  21.526  0.00  0.00    +0.000 OA
ATOM     20  O   UNL     1       1.888   9.153  22.358  0.00  0.00    +0.000 OA
BRANCH  18  21
ATOM     21  C   UNL     1       0.689  10.336  20.419  0.00  0.00    +0.000 A 
ATOM     22  C   UNL     1       1.017  10.768  19.147  0.00  0.00    +0.000 A 
ATOM     23  C   UNL     1       0.585  12.105  18.898  0.00  0.00    +0.000 A 
ATOM     24  C   UNL     1      -0.058  12.625  19.993  0.00  0.00    +0.000 A 
ATOM     25 BR   UNL     1      -0.786  14.351  20.042  0.00  0.00    +0.000 Br
ATOM     26  S   UNL     1      -0.162  11.542  21.290  0.00  0.00    +0.000 S 
ENDBRANCH  18  21
ENDBRANCH  16  18
ENDBRANCH  15  16
ENDBRANCH   4  15
TORSDOF 6
ENDMDL
MODEL 3
REMARK VINA RESULT:      -6.9      2.150      2.987
REMARK  Name = 
REMARK  8 active torsions:
REMARK  status: ('A' for Active; 'I' for Inactive)
REMARK    1  A    between atoms: C_1  and  C_2
REMARK    2  A    between atoms: C_4  and  C_5
REMARK    3  A    between atoms: C_5  and  N_6
REMARK    4  A    between atoms: C_9  and  C_10
REMARK    5  A    between atoms: C_10  and  N_11
REMARK    6  A    between atoms: N_11  and  S_12
REMARK    7  A    between atoms: S_12  and  C_15
REMARK    8  A    between atoms: C_23  and  C_24
REMARK                            x       y       z     vdW  Elec       q    Type
REMARK                         _______ _______ _______ _____ _____    ______ ____
ROOT
ATOM      1  N   UNL     1       4.055   4.183  18.477  0.00  0.00    +0.000 NA
ATOM      2  C   UNL     1       3.505   3.705  19.746  0.00  0.00    +0.000 C 
ATOM      3  C   UNL     1       1.993   3.925  19.850  0.00  0.00    +0.000 C 
ATOM      4  C   UNL     1       1.603   5.385  19.579  0.00  0.00    +0.000 C 
ATOM      5  C   UNL     1       2.148   5.762  18.196  0.00  0.00    +0.000 C 
ATOM      6  C   UNL     1       3.658   5.539  18.097  0.00  0.00    +0.000 C 
ENDROOT
BRANCH   1   7
ATOM      7  C   UNL     1       5.501   3.945  18.337  0.00  0.00    +0.000 C 
BRANCH   7  11
ATOM      8  C   UNL     1       8.128   8.338  17.782  0.00  0.00    +0.000 C 
ATOM      9  C   UNL     1       7.417   7.050  17.641  0.00  0.00    +0.000 A 
ATOM     10  C   UNL     1       6.706   6.261  18.513  0.00  0.00    +0.000 A 
ATOM     11  C   UNL     1       6.274   5.110  17.787  0.00  0.00    +0.000 A 
ATOM     12  C   UNL     1       6.781   5.281  16.509  0.00  0.00    +0.000 A 
ATOM     13  C   UNL     1       6.748   4.470  15.276  0.00  0.00    +0.000 C 
ATOM     14  O   UNL     1       7.459   6.463  16.414  0.00  0.00    +0.000 OA
ENDBRANCH   7  11
ENDBRANCH   1   7
BRANCH   4  15
ATOM     15  C   UNL     1       2.103   6.316  20.701  0.00  0.00    +0.000 C 
BRANCH  15  16
ATOM     16  N   UNL     1       1.971   7.725  20.284  0.00  0.00    +0.000 NA
ATOM     17  H   UNL     1       1.744   7.858  19.297  0.00  0.00    +0.000 HD
BRANCH  16  18
ATOM     18  S   UNL     1       0.941   8.689  21.220  0.00  0.00    +0.000 S 
ATOM     19  O   UNL     1      -0.224   7.885  21.511  0.00  0.00    +0.000 OA
ATOM     20  O   UNL     1       1.729   9.292  22.274  0.00  0.00    +0.000 OA
BRANCH  18  21
ATOM     21  C   UNL     1       0.374  10.041  20.224  0.00  0.00    +0.000 A 
ATOM     22  C   UNL     1      -0.402  10.094  19.080  0.00  0.00    +0.000 A 
ATOM     23  C   UNL     1      -0.580  11.428  18.605  0.00  0.00    +0.000 A 
ATOM     24  C   UNL     1       0.064  12.328  19.414  0.00  0.00    +0.000 A 
ATOM     25 BR   UNL     1       0.045  14.178  19.125  0.00  0.00    +0.000 Br
ATOM     26  S   UNL     1       0.857  11.606  20.726  0.00  0.00    +0.000 S 
ENDBRANCH  18  21
ENDBRANCH  16  18
ENDBRANCH  15  16
ENDBRANCH   4  15
TORSDOF 6
ENDMDL
MODEL 4
REMARK VINA RESULT:      -6.9      3.646      7.242
REMARK  Name = 
REMARK  8 active torsions:
REMARK  status: ('A' for Active; 'I' for Inactive)
REMARK    1  A    between atoms: C_1  and  C_2
REMARK    2  A    between atoms: C_4  and  C_5
REMARK    3  A    between atoms: C_5  and  N_6
REMARK    4  A    between atoms: C_9  and  C_10
REMARK    5  A    between atoms: C_10  and  N_11
REMARK    6  A    between atoms: N_11  and  S_12
REMARK    7  A    between atoms: S_12  and  C_15
REMARK    8  A    between atoms: C_23  and  C_24
REMARK                            x       y       z     vdW  Elec       q    Type
REMARK                         _______ _______ _______ _____ _____    ______ ____
ROOT
ATOM      1  N   UNL     1       2.544   6.341  18.756  0.00  0.00    +0.000 NA
ATOM      2  C   UNL     1       1.739   5.561  17.815  0.00  0.00    +0.000 C 
ATOM      3  C   UNL     1       1.495   4.128  18.298  0.00  0.00    +0.000 C 
ATOM      4  C   UNL     1       2.804   3.410  18.656  0.00  0.00    +0.000 C 
ATOM      5  C   UNL     1       3.527   4.259  19.707  0.00  0.00    +0.000 C 
ATOM      6  C   UNL     1       3.768   5.689  19.220  0.00  0.00    +0.000 C 
ENDROOT
BRANCH   1   7
ATOM      7  C   UNL     1       2.758   7.735  18.331  0.00  0.00    +0.000 C 
BRANCH   7  11
ATOM      8  C   UNL     1      -0.994  11.259  18.410  0.00  0.00    +0.000 C 
ATOM      9  C   UNL     1       0.039  10.239  18.688  0.00  0.00    +0.000 A 
ATOM     10  C   UNL     1       0.970   9.597  17.907  0.00  0.00    +0.000 A 
ATOM     11  C   UNL     1       1.676   8.687  18.752  0.00  0.00    +0.000 A 
ATOM     12  C   UNL     1       1.096   8.835  20.001  0.00  0.00    +0.000 A 
ATOM     13  C   UNL     1       1.308   8.189  21.312  0.00  0.00    +0.000 C 
ATOM     14  O   UNL     1       0.116   9.786  19.969  0.00  0.00    +0.000 OA
ENDBRANCH   7  11
ENDBRANCH   1   7
BRANCH   4  15
ATOM     15  C   UNL     1       3.657   3.144  17.401  0.00  0.00    +0.000 C 
BRANCH  15  16
ATOM     16  N   UNL     1       5.068   3.482  17.668  0.00  0.00    +0.000 NA
ATOM     17  H   UNL     1       5.677   2.677  17.827  0.00  0.00    +0.000 HD
BRANCH  16  18
ATOM     18  S   UNL     1       5.811   4.525  16.561  0.00  0.00    +0.000 S 
ATOM     19  O   UNL     1       6.700   3.713  15.763  0.00  0.00    +0.000 OA
ATOM     20  O   UNL     1       4.780   5.341  15.956  0.00  0.00    +0.000 OA
BRANCH  18  21
ATOM     21  C   UNL     1       6.841   5.656  17.456  0.00  0.00    +0.000 A 
ATOM     22  C   UNL     1       7.645   5.501  18.571  0.00  0.00    +0.000 A 
ATOM     23  C   UNL     1       8.279   6.720  18.958  0.00  0.00    +0.000 A 
ATOM     24  C   UNL     1       7.931   7.744  18.114  0.00  0.00    +0.000 A 
ATOM     25 BR   UNL     1       8.578   9.493  18.289  0.00  0.00    +0.000 Br
ATOM     26  S   UNL     1       6.882   7.267  16.873  0.00  0.00    +0.000 S 
ENDBRANCH  18  21
ENDBRANCH  16  18
ENDBRANCH  15  16
ENDBRANCH   4  15
TORSDOF 6
ENDMDL
MODEL 5
REMARK VINA RESULT:      -6.8      1.153      2.120
REMARK  Name = 
REMARK  8 active torsions:
REMARK  status: ('A' for Active; 'I' for Inactive)
REMARK    1  A    between atoms: C_1  and  C_2
REMARK    2  A    between atoms: C_4  and  C_5
REMARK    3  A    between atoms: C_5  and  N_6
REMARK    4  A    between atoms: C_9  and  C_10
REMARK    5  A    between atoms: C_10  and  N_11
REMARK    6  A    between atoms: N_11  and  S_12
REMARK    7  A    between atoms: S_12  and  C_15
REMARK    8  A    between atoms: C_23  and  C_24
REMARK                            x       y       z     vdW  Elec       q    Type
REMARK                         _______ _______ _______ _____ _____    ______ ____
ROOT
ATOM      1  N   UNL     1       4.281   4.415  18.588  0.00  0.00    +0.000 NA
ATOM      2  C   UNL     1       4.168   5.374  19.687  0.00  0.00    +0.000 C 
ATOM      3  C   UNL     1       2.714   5.636  20.091  0.00  0.00    +0.000 C 
ATOM      4  C   UNL     1       1.847   6.045  18.892  0.00  0.00    +0.000 C 
ATOM      5  C   UNL     1       1.964   4.939  17.836  0.00  0.00    +0.000 C 
ATOM      6  C   UNL     1       3.418   4.681  17.436  0.00  0.00    +0.000 C 
ENDROOT
BRANCH   1   7
ATOM      7  C   UNL     1       5.672   4.117  18.209  0.00  0.00    +0.000 C 
BRANCH   7  11
ATOM      8  C   UNL     1       8.251   8.544  17.713  0.00  0.00    +0.000 C 
ATOM      9  C   UNL     1       7.559   7.248  17.556  0.00  0.00    +0.000 A 
ATOM     10  C   UNL     1       6.844   6.447  18.414  0.00  0.00    +0.000 A 
ATOM     11  C   UNL     1       6.438   5.293  17.676  0.00  0.00    +0.000 A 
ATOM     12  C   UNL     1       6.963   5.477  16.407  0.00  0.00    +0.000 A 
ATOM     13  C   UNL     1       6.958   4.671  15.170  0.00  0.00    +0.000 C 
ATOM     14  O   UNL     1       7.627   6.667  16.327  0.00  0.00    +0.000 OA
ENDBRANCH   7  11
ENDBRANCH   1   7
BRANCH   4  15
ATOM     15  C   UNL     1       2.248   7.434  18.359  0.00  0.00    +0.000 C 
BRANCH  15  16
ATOM     16  N   UNL     1       1.663   8.488  19.210  0.00  0.00    +0.000 NA
ATOM     17  H   UNL     1       2.234   8.750  20.016  0.00  0.00    +0.000 HD
BRANCH  16  18
ATOM     18  S   UNL     1       1.153   9.894  18.417  0.00  0.00    +0.000 S 
ATOM     19  O   UNL     1       2.283  10.369  17.653  0.00  0.00    +0.000 OA
ATOM     20  O   UNL     1      -0.123   9.616  17.793  0.00  0.00    +0.000 OA
BRANCH  18  21
ATOM     21  C   UNL     1       0.820  11.139  19.635  0.00  0.00    +0.000 A 
ATOM     22  C   UNL     1       1.444  12.337  19.937  0.00  0.00    +0.000 A 
ATOM     23  C   UNL     1       0.830  13.007  21.037  0.00  0.00    +0.000 A 
ATOM     24  C   UNL     1      -0.237  12.290  21.516  0.00  0.00    +0.000 A 
ATOM     25 BR   UNL     1      -1.307  12.857  22.945  0.00  0.00    +0.000 Br
ATOM     26  S   UNL     1      -0.517  10.851  20.666  0.00  0.00    +0.000 S 
ENDBRANCH  18  21
ENDBRANCH  16  18
ENDBRANCH  15  16
ENDBRANCH   4  15
TORSDOF 6
ENDMDL
MODEL 6
REMARK VINA RESULT:      -6.8      3.278      4.749
REMARK  Name = 
REMARK  8 active torsions:
REMARK  status: ('A' for Active; 'I' for Inactive)
REMARK    1  A    between atoms: C_1  and  C_2
REMARK    2  A    between atoms: C_4  and  C_5
REMARK    3  A    between atoms: C_5  and  N_6
REMARK    4  A    between atoms: C_9  and  C_10
REMARK    5  A    between atoms: C_10  and  N_11
REMARK    6  A    between atoms: N_11  and  S_12
REMARK    7  A    between atoms: S_12  and  C_15
REMARK    8  A    between atoms: C_23  and  C_24
REMARK                            x       y       z     vdW  Elec       q    Type
REMARK                         _______ _______ _______ _____ _____    ______ ____
ROOT
ATOM      1  N   UNL     1       6.362   5.591  15.682  0.00  0.00    +0.000 NA
ATOM      2  C   UNL     1       5.949   6.699  16.545  0.00  0.00    +0.000 C 
ATOM      3  C   UNL     1       6.906   6.915  17.721  0.00  0.00    +0.000 C 
ATOM      4  C   UNL     1       7.133   5.626  18.524  0.00  0.00    +0.000 C 
ATOM      5  C   UNL     1       7.645   4.558  17.551  0.00  0.00    +0.000 C 
ATOM      6  C   UNL     1       6.686   4.346  16.378  0.00  0.00    +0.000 C 
ENDROOT
BRANCH   1   7
ATOM      7  C   UNL     1       5.478   5.390  14.521  0.00  0.00    +0.000 C 
BRANCH   7  11
ATOM      8  C   UNL     1       6.144   1.629  11.071  0.00  0.00    +0.000 C 
ATOM      9  C   UNL     1       6.232   2.793  11.977  0.00  0.00    +0.000 A 
ATOM     10  C   UNL     1       5.406   3.299  12.951  0.00  0.00    +0.000 A 
ATOM     11  C   UNL     1       6.032   4.474  13.469  0.00  0.00    +0.000 A 
ATOM     12  C   UNL     1       7.205   4.605  12.742  0.00  0.00    +0.000 A 
ATOM     13  C   UNL     1       8.296   5.598  12.730  0.00  0.00    +0.000 C 
ATOM     14  O   UNL     1       7.336   3.579  11.851  0.00  0.00    +0.000 OA
ENDBRANCH   7  11
ENDBRANCH   1   7
BRANCH   4  15
ATOM     15  C   UNL     1       5.856   5.200  19.273  0.00  0.00    +0.000 C 
BRANCH  15  16
ATOM     16  N   UNL     1       5.138   4.168  18.501  0.00  0.00    +0.000 NA
ATOM     17  H   UNL     1       5.560   3.238  18.538  0.00  0.00    +0.000 HD
BRANCH  16  18
ATOM     18  S   UNL     1       3.478   4.031  18.798  0.00  0.00    +0.000 S 
ATOM     19  O   UNL     1       2.879   3.547  17.575  0.00  0.00    +0.000 OA
ATOM     20  O   UNL     1       3.305   3.334  20.054  0.00  0.00    +0.000 OA
BRANCH  18  21
ATOM     21  C   UNL     1       2.817   5.654  19.065  0.00  0.00    +0.000 A 
ATOM     22  C   UNL     1       2.760   6.780  18.263  0.00  0.00    +0.000 A 
ATOM     23  C   UNL     1       2.147   7.887  18.924  0.00  0.00    +0.000 A 
ATOM     24  C   UNL     1       1.760   7.548  20.195  0.00  0.00    +0.000 A 
ATOM     25 BR   UNL     1       0.902   8.732  21.366  0.00  0.00    +0.000 Br
ATOM     26  S   UNL     1       2.104   5.939  20.597  0.00  0.00    +0.000 S 
ENDBRANCH  18  21
ENDBRANCH  16  18
ENDBRANCH  15  16
ENDBRANCH   4  15
TORSDOF 6
ENDMDL
MODEL 7
REMARK VINA RESULT:      -6.8      2.213      2.651
REMARK  Name = 
REMARK  8 active torsions:
REMARK  status: ('A' for Active; 'I' for Inactive)
REMARK    1  A    between atoms: C_1  and  C_2
REMARK    2  A    between atoms: C_4  and  C_5
REMARK    3  A    between atoms: C_5  and  N_6
REMARK    4  A    between atoms: C_9  and  C_10
REMARK    5  A    between atoms: C_10  and  N_11
REMARK    6  A    between atoms: N_11  and  S_12
REMARK    7  A    between atoms: S_12  and  C_15
REMARK    8  A    between atoms: C_23  and  C_24
REMARK                            x       y       z     vdW  Elec       q    Type
REMARK                         _______ _______ _______ _____ _____    ______ ____
ROOT
ATOM      1  N   UNL     1       4.125   5.024  18.911  0.00  0.00    +0.000 NA
ATOM      2  C   UNL     1       3.482   4.684  20.181  0.00  0.00    +0.000 C 
ATOM      3  C   UNL     1       1.963   4.872  20.139  0.00  0.00    +0.000 C 
ATOM      4  C   UNL     1       1.569   6.277  19.664  0.00  0.00    +0.000 C 
ATOM      5  C   UNL     1       2.216   6.502  18.293  0.00  0.00    +0.000 C 
ATOM      6  C   UNL     1       3.734   6.313  18.339  0.00  0.00    +0.000 C 
ENDROOT
BRANCH   1   7
ATOM      7  C   UNL     1       5.582   4.812  18.914  0.00  0.00    +0.000 C 
BRANCH   7  11
ATOM      8  C   UNL     1       6.992   4.549  13.970  0.00  0.00    +0.000 C 
ATOM      9  C   UNL     1       6.796   4.845  15.405  0.00  0.00    +0.000 A 
ATOM     10  C   UNL     1       6.023   4.280  16.391  0.00  0.00    +0.000 A 
ATOM     11  C   UNL     1       6.246   5.031  17.585  0.00  0.00    +0.000 A 
ATOM     12  C   UNL     1       7.140   6.025  17.222  0.00  0.00    +0.000 A 
ATOM     13  C   UNL     1       7.763   7.155  17.940  0.00  0.00    +0.000 C 
ATOM     14  O   UNL     1       7.488   5.904  15.907  0.00  0.00    +0.000 OA
ENDBRANCH   7  11
ENDBRANCH   1   7
BRANCH   4  15
ATOM     15  C   UNL     1       1.958   7.348  20.700  0.00  0.00    +0.000 C 
BRANCH  15  16
ATOM     16  N   UNL     1       1.107   8.542  20.537  0.00  0.00    +0.000 NA
ATOM     17  H   UNL     1       0.289   8.404  19.941  0.00  0.00    +0.000 HD
BRANCH  16  18
ATOM     18  S   UNL     1       0.625   9.319  21.961  0.00  0.00    +0.000 S 
ATOM     19  O   UNL     1      -0.539   8.612  22.443  0.00  0.00    +0.000 OA
ATOM     20  O   UNL     1       1.798   9.502  22.789  0.00  0.00    +0.000 OA
BRANCH  18  21
ATOM     21  C   UNL     1       0.077  10.955  21.554  0.00  0.00    +0.000 A 
ATOM     22  C   UNL     1      -0.926  11.756  22.069  0.00  0.00    +0.000 A 
ATOM     23  C   UNL     1      -1.020  13.011  21.395  0.00  0.00    +0.000 A 
ATOM     24  C   UNL     1      -0.078  13.107  20.402  0.00  0.00    +0.000 A 
ATOM     25 BR   UNL     1       0.124  14.615  19.310  0.00  0.00    +0.000 Br
ATOM     26  S   UNL     1       0.913  11.738  20.280  0.00  0.00    +0.000 S 
ENDBRANCH  18  21
ENDBRANCH  16  18
ENDBRANCH  15  16
ENDBRANCH   4  15
TORSDOF 6
ENDMDL
MODEL 8
REMARK VINA RESULT:      -6.7      1.866      2.128
REMARK  Name = 
REMARK  8 active torsions:
REMARK  status: ('A' for Active; 'I' for Inactive)
REMARK    1  A    between atoms: C_1  and  C_2
REMARK    2  A    between atoms: C_4  and  C_5
REMARK    3  A    between atoms: C_5  and  N_6
REMARK    4  A    between atoms: C_9  and  C_10
REMARK    5  A    between atoms: C_10  and  N_11
REMARK    6  A    between atoms: N_11  and  S_12
REMARK    7  A    between atoms: S_12  and  C_15
REMARK    8  A    between atoms: C_23  and  C_24
REMARK                            x       y       z     vdW  Elec       q    Type
REMARK                         _______ _______ _______ _____ _____    ______ ____
ROOT
ATOM      1  N   UNL     1       4.201   4.682  18.586  0.00  0.00    +0.000 NA
ATOM      2  C   UNL     1       3.804   4.954  19.968  0.00  0.00    +0.000 C 
ATOM      3  C   UNL     1       2.302   5.222  20.106  0.00  0.00    +0.000 C 
ATOM      4  C   UNL     1       1.824   6.326  19.152  0.00  0.00    +0.000 C 
ATOM      5  C   UNL     1       2.208   5.908  17.728  0.00  0.00    +0.000 C 
ATOM      6  C   UNL     1       3.709   5.641  17.596  0.00  0.00    +0.000 C 
ENDROOT
BRANCH   1   7
ATOM      7  C   UNL     1       5.635   4.382  18.434  0.00  0.00    +0.000 C 
BRANCH   7  11
ATOM      8  C   UNL     1       6.770   4.306  13.414  0.00  0.00    +0.000 C 
ATOM      9  C   UNL     1       6.630   4.568  14.862  0.00  0.00    +0.000 A 
ATOM     10  C   UNL     1       5.980   3.918  15.882  0.00  0.00    +0.000 A 
ATOM     11  C   UNL     1       6.193   4.679  17.072  0.00  0.00    +0.000 A 
ATOM     12  C   UNL     1       6.955   5.765  16.671  0.00  0.00    +0.000 A 
ATOM     13  C   UNL     1       7.498   6.948  17.368  0.00  0.00    +0.000 C 
ATOM     14  O   UNL     1       7.235   5.691  15.337  0.00  0.00    +0.000 OA
ENDBRANCH   7  11
ENDBRANCH   1   7
BRANCH   4  15
ATOM     15  C   UNL     1       2.395   7.699  19.555  0.00  0.00    +0.000 C 
BRANCH  15  16
ATOM     16  N   UNL     1       1.307   8.692  19.644  0.00  0.00    +0.000 NA
ATOM     17  H   UNL     1       1.298   9.238  20.508  0.00  0.00    +0.000 HD
BRANCH  16  18
ATOM     18  S   UNL     1       1.143   9.742  18.327  0.00  0.00    +0.000 S 
ATOM     19  O   UNL     1       2.150   9.359  17.365  0.00  0.00    +0.000 OA
ATOM     20  O   UNL     1      -0.259   9.800  17.974  0.00  0.00    +0.000 OA
BRANCH  18  21
ATOM     21  C   UNL     1       1.562  11.381  18.857  0.00  0.00    +0.000 A 
ATOM     22  C   UNL     1       2.356  12.366  18.298  0.00  0.00    +0.000 A 
ATOM     23  C   UNL     1       2.424  13.537  19.111  0.00  0.00    +0.000 A 
ATOM     24  C   UNL     1       1.672  13.389  20.249  0.00  0.00    +0.000 A 
ATOM     25 BR   UNL     1       1.498  14.720  21.555  0.00  0.00    +0.000 Br
ATOM     26  S   UNL     1       0.886  11.892  20.347  0.00  0.00    +0.000 S 
ENDBRANCH  18  21
ENDBRANCH  16  18
ENDBRANCH  15  16
ENDBRANCH   4  15
TORSDOF 6
ENDMDL
MODEL 9
REMARK VINA RESULT:      -6.7      4.241      8.439
REMARK  Name = 
REMARK  8 active torsions:
REMARK  status: ('A' for Active; 'I' for Inactive)
REMARK    1  A    between atoms: C_1  and  C_2
REMARK    2  A    between atoms: C_4  and  C_5
REMARK    3  A    between atoms: C_5  and  N_6
REMARK    4  A    between atoms: C_9  and  C_10
REMARK    5  A    between atoms: C_10  and  N_11
REMARK    6  A    between atoms: N_11  and  S_12
REMARK    7  A    between atoms: S_12  and  C_15
REMARK    8  A    between atoms: C_23  and  C_24
REMARK                            x       y       z     vdW  Elec       q    Type
REMARK                         _______ _______ _______ _____ _____    ______ ____
ROOT
ATOM      1  N   UNL     1       1.829   6.477  19.641  0.00  0.00    +0.000 NA
ATOM      2  C   UNL     1       2.206   5.840  18.379  0.00  0.00    +0.000 C 
ATOM      3  C   UNL     1       1.826   4.358  18.331  0.00  0.00    +0.000 C 
ATOM      4  C   UNL     1       2.372   3.584  19.540  0.00  0.00    +0.000 C 
ATOM      5  C   UNL     1       1.852   4.274  20.806  0.00  0.00    +0.000 C 
ATOM      6  C   UNL     1       2.234   5.755  20.848  0.00  0.00    +0.000 C 
ENDROOT
BRANCH   1   7
ATOM      7  C   UNL     1       2.149   7.913  19.694  0.00  0.00    +0.000 C 
BRANCH   7  11
ATOM      8  C   UNL     1      -0.841  10.284  23.149  0.00  0.00    +0.000 C 
ATOM      9  C   UNL     1      -0.152   9.753  21.954  0.00  0.00    +0.000 A 
ATOM     10  C   UNL     1       0.844   8.825  21.770  0.00  0.00    +0.000 A 
ATOM     11  C   UNL     1       1.106   8.758  20.368  0.00  0.00    +0.000 A 
ATOM     12  C   UNL     1       0.246   9.682  19.798  0.00  0.00    +0.000 A 
ATOM     13  C   UNL     1       0.011  10.148  18.417  0.00  0.00    +0.000 C 
ATOM     14  O   UNL     1      -0.529  10.274  20.755  0.00  0.00    +0.000 OA
ENDBRANCH   7  11
ENDBRANCH   1   7
BRANCH   4  15
ATOM     15  C   UNL     1       3.909   3.484  19.492  0.00  0.00    +0.000 C 
BRANCH  15  16
ATOM     16  N   UNL     1       4.386   3.692  18.112  0.00  0.00    +0.000 NA
ATOM     17  H   UNL     1       3.657   3.949  17.443  0.00  0.00    +0.000 HD
BRANCH  16  18
ATOM     18  S   UNL     1       5.700   4.742  17.924  0.00  0.00    +0.000 S 
ATOM     19  O   UNL     1       5.192   6.079  18.130  0.00  0.00    +0.000 OA
ATOM     20  O   UNL     1       6.803   4.221  18.703  0.00  0.00    +0.000 OA
BRANCH  18  21
ATOM     21  C   UNL     1       6.241   4.672  16.237  0.00  0.00    +0.000 A 
ATOM     22  C   UNL     1       7.236   5.345  15.550  0.00  0.00    +0.000 A 
ATOM     23  C   UNL     1       7.289   4.976  14.172  0.00  0.00    +0.000 A 
ATOM     24  C   UNL     1       6.336   4.033  13.879  0.00  0.00    +0.000 A 
ATOM     25 BR   UNL     1       6.109   3.287  12.176  0.00  0.00    +0.000 Br
ATOM     26  S   UNL     1       5.402   3.581  15.217  0.00  0.00    +0.000 S 
ENDBRANCH  18  21
ENDBRANCH  16  18
ENDBRANCH  15  16
ENDBRANCH   4  15
TORSDOF 6
ENDMDL
