MODEL 1
REMARK VINA RESULT:      -7.6      0.000      0.000
REMARK  Name = 
REMARK  6 active torsions:
REMARK  status: ('A' for Active; 'I' for Inactive)
REMARK    1  A    between atoms: C_1  and  N_2
REMARK    2  A    between atoms: C_3  and  C_5
REMARK    3  A    between atoms: C_10  and  C_11
REMARK    4  A    between atoms: C_12  and  N_13
REMARK    5  A    between atoms: C_14  and  C_16
REMARK    6  A    between atoms: N_21  and  C_22
REMARK                            x       y       z     vdW  Elec       q    Type
REMARK                         _______ _______ _______ _____ _____    ______ ____
ROOT
ATOM      1  N   UNL     1       3.036   6.187  18.065  0.00  0.00    +0.000 N 
ATOM      2  C   UNL     1       4.299   5.657  18.317  0.00  0.00    +0.000 C 
ATOM      3  O   UNL     1       4.768   5.602  19.450  0.00  0.00    +0.000 OA
ATOM      4  H   UNL     1       2.490   5.691  17.355  0.00  0.00    +0.000 HD
ENDROOT
BRANCH   1  12
ATOM      5  C   UNL     1       1.671   6.113  20.114  0.00  0.00    +0.000 A 
ATOM      6  C   UNL     1       0.908   6.772  21.096  0.00  0.00    +0.000 A 
ATOM      7  C   UNL     1       0.776   8.153  21.072  0.00  0.00    +0.000 A 
ATOM      8 CL   UNL     1      -0.144   8.942  22.291  0.00  0.00    +0.000 Cl
ATOM      9  C   UNL     1       1.361   8.893  20.055  0.00  0.00    +0.000 A 
ATOM     10  C   UNL     1       2.092   8.264  19.031  0.00  0.00    +0.000 A 
ATOM     11  C   UNL     1       2.553   9.144  17.893  0.00  0.00    +0.000 C 
ATOM     12  C   UNL     1       2.284   6.857  19.075  0.00  0.00    +0.000 A 
BRANCH   5  15
ATOM     13  C   UNL     1       2.605   2.740  21.612  0.00  0.00    +0.000 C 
ATOM     14  N   UNL     1       2.468   4.142  21.325  0.00  0.00    +0.000 N 
ATOM     15  C   UNL     1       1.802   4.629  20.208  0.00  0.00    +0.000 C 
ATOM     16  O   UNL     1       1.342   3.910  19.327  0.00  0.00    +0.000 OA
ATOM     17  H   UNL     1       3.046   4.778  21.863  0.00  0.00    +0.000 HD
ENDBRANCH   5  15
ENDBRANCH   1  12
BRANCH   2  18
ATOM     18  C   UNL     1       5.046   5.231  17.149  0.00  0.00    +0.000 A 
ATOM     19  C   UNL     1       4.705   4.288  16.191  0.00  0.00    +0.000 A 
ATOM     20  C   UNL     1       5.644   4.448  15.173  0.00  0.00    +0.000 A 
ATOM     21  F   UNL     1       5.629   3.775  14.056  0.00  0.00    +0.000 F 
ATOM     22  N   UNL     1       6.533   5.395  15.428  0.00  0.00    +0.000 NA
ATOM     23  N   UNL     1       6.184   5.877  16.655  0.00  0.00    +0.000 N 
BRANCH  23  24
ATOM     24  C   UNL     1       7.025   6.829  17.320  0.00  0.00    +0.000 A 
ATOM     25  N   UNL     1       6.950   8.124  16.887  0.00  0.00    +0.000 NA
ATOM     26  C   UNL     1       7.700   9.047  17.528  0.00  0.00    +0.000 A 
ATOM     27  C   UNL     1       8.499   8.764  18.618  0.00  0.00    +0.000 A 
ATOM     28  C   UNL     1       8.565   7.447  19.057  0.00  0.00    +0.000 A 
ATOM     29  C   UNL     1       7.833   6.450  18.400  0.00  0.00    +0.000 A 
ATOM     30 CL   UNL     1       8.137   4.826  18.913  0.00  0.00    +0.000 Cl
ENDBRANCH  23  24
ENDBRANCH   2  18
TORSDOF 4
ENDMDL
MODEL 2
REMARK VINA RESULT:      -6.7      3.152      4.657
REMARK  Name = 
REMARK  6 active torsions:
REMARK  status: ('A' for Active; 'I' for Inactive)
REMARK    1  A    between atoms: C_1  and  N_2
REMARK    2  A    between atoms: C_3  and  C_5
REMARK    3  A    between atoms: C_10  and  C_11
REMARK    4  A    between atoms: C_12  and  N_13
REMARK    5  A    between atoms: C_14  and  C_16
REMARK    6  A    between atoms: N_21  and  C_22
REMARK                            x       y       z     vdW  Elec       q    Type
REMARK                         _______ _______ _______ _____ _____    ______ ____
ROOT
ATOM      1  N   UNL     1       2.351   7.304  20.042  0.00  0.00    +0.000 N 
ATOM      2  C   UNL     1       2.139   6.098  19.377  0.00  0.00    +0.000 C 
ATOM      3  O   UNL     1       1.641   6.052  18.256  0.00  0.00    +0.000 OA
ATOM      4  H   UNL     1       3.224   7.358  20.574  0.00  0.00    +0.000 HD
ENDROOT
BRANCH   1  12
ATOM      5  C   UNL     1       0.847   9.242  20.261  0.00  0.00    +0.000 A 
ATOM      6  C   UNL     1       0.331  10.449  19.754  0.00  0.00    +0.000 A 
ATOM      7  C   UNL     1       0.817  10.975  18.566  0.00  0.00    +0.000 A 
ATOM      8 CL   UNL     1       0.188  12.461  17.971  0.00  0.00    +0.000 Cl
ATOM      9  C   UNL     1       1.787  10.294  17.845  0.00  0.00    +0.000 A 
ATOM     10  C   UNL     1       2.293   9.062  18.298  0.00  0.00    +0.000 A 
ATOM     11  C   UNL     1       3.227   8.332  17.362  0.00  0.00    +0.000 C 
ATOM     12  C   UNL     1       1.847   8.540  19.542  0.00  0.00    +0.000 A 
BRANCH   5  15
ATOM     13  C   UNL     1       0.103   9.199  23.995  0.00  0.00    +0.000 C 
ATOM     14  N   UNL     1       0.614   9.494  22.684  0.00  0.00    +0.000 N 
ATOM     15  C   UNL     1       0.307   8.739  21.559  0.00  0.00    +0.000 C 
ATOM     16  O   UNL     1      -0.362   7.712  21.595  0.00  0.00    +0.000 OA
ATOM     17  H   UNL     1       1.376  10.162  22.629  0.00  0.00    +0.000 HD
ENDBRANCH   5  15
ENDBRANCH   1  12
BRANCH   2  18
ATOM     18  C   UNL     1       2.487   4.902  20.118  0.00  0.00    +0.000 A 
ATOM     19  C   UNL     1       1.734   4.202  21.050  0.00  0.00    +0.000 A 
ATOM     20  C   UNL     1       2.431   3.013  21.262  0.00  0.00    +0.000 A 
ATOM     21  F   UNL     1       2.012   2.052  22.037  0.00  0.00    +0.000 F 
ATOM     22  N   UNL     1       3.546   2.929  20.553  0.00  0.00    +0.000 NA
ATOM     23  N   UNL     1       3.601   4.098  19.853  0.00  0.00    +0.000 N 
BRANCH  23  24
ATOM     24  C   UNL     1       4.764   4.419  19.078  0.00  0.00    +0.000 A 
ATOM     25  N   UNL     1       5.810   4.991  19.748  0.00  0.00    +0.000 NA
ATOM     26  C   UNL     1       6.934   5.262  19.049  0.00  0.00    +0.000 A 
ATOM     27  C   UNL     1       7.099   4.953  17.712  0.00  0.00    +0.000 A 
ATOM     28  C   UNL     1       6.034   4.365  17.040  0.00  0.00    +0.000 A 
ATOM     29  C   UNL     1       4.837   4.100  17.716  0.00  0.00    +0.000 A 
ATOM     30 CL   UNL     1       3.523   3.544  16.738  0.00  0.00    +0.000 Cl
ENDBRANCH  23  24
ENDBRANCH   2  18
TORSDOF 4
ENDMDL
MODEL 3
REMARK VINA RESULT:      -6.7      9.489     13.007
REMARK  Name = 
REMARK  6 active torsions:
REMARK  status: ('A' for Active; 'I' for Inactive)
REMARK    1  A    between atoms: C_1  and  N_2
REMARK    2  A    between atoms: C_3  and  C_5
REMARK    3  A    between atoms: C_10  and  C_11
REMARK    4  A    between atoms: C_12  and  N_13
REMARK    5  A    between atoms: C_14  and  C_16
REMARK    6  A    between atoms: N_21  and  C_22
REMARK                            x       y       z     vdW  Elec       q    Type
REMARK                         _______ _______ _______ _____ _____    ______ ____
ROOT
ATOM      1  N   UNL     1      -3.062  12.553  21.097  0.00  0.00    +0.000 N 
ATOM      2  C   UNL     1      -2.764  13.866  21.455  0.00  0.00    +0.000 C 
ATOM      3  O   UNL     1      -2.577  14.743  20.616  0.00  0.00    +0.000 OA
ATOM      4  H   UNL     1      -3.756  12.089  21.689  0.00  0.00    +0.000 HD
ENDROOT
BRANCH   1  12
ATOM      5  C   UNL     1      -4.159  12.116  18.935  0.00  0.00    +0.000 A 
ATOM      6  C   UNL     1      -4.099  11.651  17.609  0.00  0.00    +0.000 A 
ATOM      7  C   UNL     1      -2.898  11.210  17.074  0.00  0.00    +0.000 A 
ATOM      8 CL   UNL     1      -2.839  10.664  15.444  0.00  0.00    +0.000 Cl
ATOM      9  C   UNL     1      -1.752  11.184  17.857  0.00  0.00    +0.000 A 
ATOM     10  C   UNL     1      -1.785  11.598  19.201  0.00  0.00    +0.000 A 
ATOM     11  C   UNL     1      -0.524  11.383  20.004  0.00  0.00    +0.000 C 
ATOM     12  C   UNL     1      -2.995  12.107  19.744  0.00  0.00    +0.000 A 
BRANCH   5  15
ATOM     13  C   UNL     1      -7.275  14.296  19.146  0.00  0.00    +0.000 C 
ATOM     14  N   UNL     1      -5.984  13.744  18.834  0.00  0.00    +0.000 N 
ATOM     15  C   UNL     1      -5.473  12.607  19.447  0.00  0.00    +0.000 C 
ATOM     16  O   UNL     1      -6.040  12.019  20.362  0.00  0.00    +0.000 OA
ATOM     17  H   UNL     1      -5.358  14.324  18.285  0.00  0.00    +0.000 HD
ENDBRANCH   5  15
ENDBRANCH   1  12
BRANCH   2  18
ATOM     18  C   UNL     1      -2.630  14.115  22.876  0.00  0.00    +0.000 A 
ATOM     19  C   UNL     1      -1.495  14.448  23.601  0.00  0.00    +0.000 A 
ATOM     20  C   UNL     1      -1.963  14.813  24.862  0.00  0.00    +0.000 A 
ATOM     21  F   UNL     1      -1.199  15.250  25.824  0.00  0.00    +0.000 F 
ATOM     22  N   UNL     1      -3.280  14.722  24.977  0.00  0.00    +0.000 NA
ATOM     23  N   UNL     1      -3.703  14.275  23.760  0.00  0.00    +0.000 N 
BRANCH  23  24
ATOM     24  C   UNL     1      -5.077  13.919  23.563  0.00  0.00    +0.000 A 
ATOM     25  N   UNL     1      -5.482  12.719  24.080  0.00  0.00    +0.000 NA
ATOM     26  C   UNL     1      -6.783  12.382  23.946  0.00  0.00    +0.000 A 
ATOM     27  C   UNL     1      -7.731  13.197  23.358  0.00  0.00    +0.000 A 
ATOM     28  C   UNL     1      -7.314  14.418  22.841  0.00  0.00    +0.000 A 
ATOM     29  C   UNL     1      -5.967  14.793  22.924  0.00  0.00    +0.000 A 
ATOM     30 CL   UNL     1      -5.532  16.241  22.084  0.00  0.00    +0.000 Cl
ENDBRANCH  23  24
ENDBRANCH   2  18
TORSDOF 4
ENDMDL
MODEL 4
REMARK VINA RESULT:      -6.6      9.263     12.753
REMARK  Name = 
REMARK  6 active torsions:
REMARK  status: ('A' for Active; 'I' for Inactive)
REMARK    1  A    between atoms: C_1  and  N_2
REMARK    2  A    between atoms: C_3  and  C_5
REMARK    3  A    between atoms: C_10  and  C_11
REMARK    4  A    between atoms: C_12  and  N_13
REMARK    5  A    between atoms: C_14  and  C_16
REMARK    6  A    between atoms: N_21  and  C_22
REMARK                            x       y       z     vdW  Elec       q    Type
REMARK                         _______ _______ _______ _____ _____    ______ ____
ROOT
ATOM      1  N   UNL     1      -2.750  12.603  21.153  0.00  0.00    +0.000 N 
ATOM      2  C   UNL     1      -2.433  13.934  21.419  0.00  0.00    +0.000 C 
ATOM      3  O   UNL     1      -2.242  14.749  20.521  0.00  0.00    +0.000 OA
ATOM      4  H   UNL     1      -3.444  12.189  21.781  0.00  0.00    +0.000 HD
ENDROOT
BRANCH   1  12
ATOM      5  C   UNL     1      -3.869  12.043  19.032  0.00  0.00    +0.000 A 
ATOM      6  C   UNL     1      -3.827  11.488  17.740  0.00  0.00    +0.000 A 
ATOM      7  C   UNL     1      -2.637  10.988  17.230  0.00  0.00    +0.000 A 
ATOM      8 CL   UNL     1      -2.599  10.332  15.641  0.00  0.00    +0.000 Cl
ATOM      9  C   UNL     1      -1.488  10.993  18.007  0.00  0.00    +0.000 A 
ATOM     10  C   UNL     1      -1.504  11.497  19.320  0.00  0.00    +0.000 A 
ATOM     11  C   UNL     1      -0.242  11.311  20.130  0.00  0.00    +0.000 C 
ATOM     12  C   UNL     1      -2.701  12.065  19.834  0.00  0.00    +0.000 A 
BRANCH   5  15
ATOM     13  C   UNL     1      -7.004  14.205  19.039  0.00  0.00    +0.000 C 
ATOM     14  N   UNL     1      -5.718  13.623  18.762  0.00  0.00    +0.000 N 
ATOM     15  C   UNL     1      -5.170  12.593  19.516  0.00  0.00    +0.000 C 
ATOM     16  O   UNL     1      -5.695  12.142  20.528  0.00  0.00    +0.000 OA
ATOM     17  H   UNL     1      -5.121  14.121  18.111  0.00  0.00    +0.000 HD
ENDBRANCH   5  15
ENDBRANCH   1  12
BRANCH   2  18
ATOM     18  C   UNL     1      -2.283  14.276  22.819  0.00  0.00    +0.000 A 
ATOM     19  C   UNL     1      -1.121  14.481  23.549  0.00  0.00    +0.000 A 
ATOM     20  C   UNL     1      -1.544  15.022  24.762  0.00  0.00    +0.000 A 
ATOM     21  F   UNL     1      -0.734  15.410  25.708  0.00  0.00    +0.000 F 
ATOM     22  N   UNL     1      -2.859  15.157  24.843  0.00  0.00    +0.000 NA
ATOM     23  N   UNL     1      -3.330  14.684  23.654  0.00  0.00    +0.000 N 
BRANCH  23  24
ATOM     24  C   UNL     1      -4.740  14.540  23.445  0.00  0.00    +0.000 A 
ATOM     25  N   UNL     1      -5.363  15.540  22.750  0.00  0.00    +0.000 NA
ATOM     26  C   UNL     1      -6.685  15.406  22.500  0.00  0.00    +0.000 A 
ATOM     27  C   UNL     1      -7.426  14.300  22.869  0.00  0.00    +0.000 A 
ATOM     28  C   UNL     1      -6.785  13.286  23.569  0.00  0.00    +0.000 A 
ATOM     29  C   UNL     1      -5.425  13.398  23.881  0.00  0.00    +0.000 A 
ATOM     30 CL   UNL     1      -4.781  12.169  24.913  0.00  0.00    +0.000 Cl
ENDBRANCH  23  24
ENDBRANCH   2  18
TORSDOF 4
ENDMDL
MODEL 5
REMARK VINA RESULT:      -6.5      9.058     12.530
REMARK  Name = 
REMARK  6 active torsions:
REMARK  status: ('A' for Active; 'I' for Inactive)
REMARK    1  A    between atoms: C_1  and  N_2
REMARK    2  A    between atoms: C_3  and  C_5
REMARK    3  A    between atoms: C_10  and  C_11
REMARK    4  A    between atoms: C_12  and  N_13
REMARK    5  A    between atoms: C_14  and  C_16
REMARK    6  A    between atoms: N_21  and  C_22
REMARK                            x       y       z     vdW  Elec       q    Type
REMARK                         _______ _______ _______ _____ _____    ______ ____
ROOT
ATOM      1  N   UNL     1      -3.174  12.059  20.037  0.00  0.00    +0.000 N 
ATOM      2  C   UNL     1      -2.528  13.238  20.404  0.00  0.00    +0.000 C 
ATOM      3  O   UNL     1      -1.992  13.970  19.577  0.00  0.00    +0.000 OA
ATOM      4  H   UNL     1      -4.037  11.859  20.550  0.00  0.00    +0.000 HD
ENDROOT
BRANCH   1  12
ATOM      5  C   UNL     1      -4.223  11.636  17.849  0.00  0.00    +0.000 A 
ATOM      6  C   UNL     1      -4.161  11.102  16.549  0.00  0.00    +0.000 A 
ATOM      7  C   UNL     1      -2.994  10.506  16.091  0.00  0.00    +0.000 A 
ATOM      8 CL   UNL     1      -2.930   9.876  14.492  0.00  0.00    +0.000 Cl
ATOM      9  C   UNL     1      -1.892  10.395  16.927  0.00  0.00    +0.000 A 
ATOM     10  C   UNL     1      -1.934  10.877  18.247  0.00  0.00    +0.000 A 
ATOM     11  C   UNL     1      -0.739  10.566  19.117  0.00  0.00    +0.000 C 
ATOM     12  C   UNL     1      -3.102  11.541  18.711  0.00  0.00    +0.000 A 
BRANCH   5  15
ATOM     13  C   UNL     1      -7.167  14.049  17.725  0.00  0.00    +0.000 C 
ATOM     14  N   UNL     1      -5.922  13.363  17.503  0.00  0.00    +0.000 N 
ATOM     15  C   UNL     1      -5.495  12.292  18.277  0.00  0.00    +0.000 C 
ATOM     16  O   UNL     1      -6.100  11.885  19.263  0.00  0.00    +0.000 OA
ATOM     17  H   UNL     1      -5.257  13.811  16.882  0.00  0.00    +0.000 HD
ENDBRANCH   5  15
ENDBRANCH   1  12
BRANCH   2  18
ATOM     18  C   UNL     1      -2.478  13.511  21.826  0.00  0.00    +0.000 A 
ATOM     19  C   UNL     1      -1.372  13.677  22.646  0.00  0.00    +0.000 A 
ATOM     20  C   UNL     1      -1.880  14.158  23.851  0.00  0.00    +0.000 A 
ATOM     21  F   UNL     1      -1.140  14.497  24.870  0.00  0.00    +0.000 F 
ATOM     22  N   UNL     1      -3.198  14.291  23.846  0.00  0.00    +0.000 NA
ATOM     23  N   UNL     1      -3.582  13.878  22.604  0.00  0.00    +0.000 N 
BRANCH  23  24
ATOM     24  C   UNL     1      -4.974  13.748  22.288  0.00  0.00    +0.000 A 
ATOM     25  N   UNL     1      -5.628  12.672  22.823  0.00  0.00    +0.000 NA
ATOM     26  C   UNL     1      -6.951  12.552  22.577  0.00  0.00    +0.000 A 
ATOM     27  C   UNL     1      -7.684  13.475  21.856  0.00  0.00    +0.000 A 
ATOM     28  C   UNL     1      -7.014  14.569  21.321  0.00  0.00    +0.000 A 
ATOM     29  C   UNL     1      -5.636  14.715  21.520  0.00  0.00    +0.000 A 
ATOM     30 CL   UNL     1      -4.879  16.007  20.655  0.00  0.00    +0.000 Cl
ENDBRANCH  23  24
ENDBRANCH   2  18
TORSDOF 4
ENDMDL
MODEL 6
REMARK VINA RESULT:      -6.5      8.979     12.615
REMARK  Name = 
REMARK  6 active torsions:
REMARK  status: ('A' for Active; 'I' for Inactive)
REMARK    1  A    between atoms: C_1  and  N_2
REMARK    2  A    between atoms: C_3  and  C_5
REMARK    3  A    between atoms: C_10  and  C_11
REMARK    4  A    between atoms: C_12  and  N_13
REMARK    5  A    between atoms: C_14  and  C_16
REMARK    6  A    between atoms: N_21  and  C_22
REMARK                            x       y       z     vdW  Elec       q    Type
REMARK                         _______ _______ _______ _____ _____    ______ ____
ROOT
ATOM      1  N   UNL     1      -3.056  12.454  20.851  0.00  0.00    +0.000 N 
ATOM      2  C   UNL     1      -3.867  13.561  21.092  0.00  0.00    +0.000 C 
ATOM      3  O   UNL     1      -3.525  14.698  20.780  0.00  0.00    +0.000 OA
ATOM      4  H   UNL     1      -3.551  11.611  20.548  0.00  0.00    +0.000 HD
ENDROOT
BRANCH   1  12
ATOM      5  C   UNL     1      -1.376  12.216  19.066  0.00  0.00    +0.000 A 
ATOM      6  C   UNL     1      -0.045  12.325  18.621  0.00  0.00    +0.000 A 
ATOM      7  C   UNL     1       0.937  12.825  19.462  0.00  0.00    +0.000 A 
ATOM      8 CL   UNL     1       2.554  12.969  18.894  0.00  0.00    +0.000 Cl
ATOM      9  C   UNL     1       0.625  13.183  20.766  0.00  0.00    +0.000 A 
ATOM     10  C   UNL     1      -0.685  13.044  21.260  0.00  0.00    +0.000 A 
ATOM     11  C   UNL     1      -0.883  13.315  22.733  0.00  0.00    +0.000 C 
ATOM     12  C   UNL     1      -1.713  12.589  20.391  0.00  0.00    +0.000 A 
BRANCH   5  15
ATOM     13  C   UNL     1      -2.831  11.066  15.740  0.00  0.00    +0.000 C 
ATOM     14  N   UNL     1      -2.002  11.621  16.777  0.00  0.00    +0.000 N 
ATOM     15  C   UNL     1      -2.396  11.700  18.106  0.00  0.00    +0.000 C 
ATOM     16  O   UNL     1      -3.511  11.377  18.502  0.00  0.00    +0.000 OA
ATOM     17  H   UNL     1      -1.185  12.143  16.479  0.00  0.00    +0.000 HD
ENDBRANCH   5  15
ENDBRANCH   1  12
BRANCH   2  18
ATOM     18  C   UNL     1      -5.109  13.290  21.788  0.00  0.00    +0.000 A 
ATOM     19  C   UNL     1      -5.328  13.104  23.145  0.00  0.00    +0.000 A 
ATOM     20  C   UNL     1      -6.713  13.127  23.297  0.00  0.00    +0.000 A 
ATOM     21  F   UNL     1      -7.320  13.040  24.448  0.00  0.00    +0.000 F 
ATOM     22  N   UNL     1      -7.361  13.299  22.155  0.00  0.00    +0.000 NA
ATOM     23  N   UNL     1      -6.380  13.386  21.211  0.00  0.00    +0.000 N 
BRANCH  23  24
ATOM     24  C   UNL     1      -6.724  13.431  19.820  0.00  0.00    +0.000 A 
ATOM     25  N   UNL     1      -6.823  14.671  19.252  0.00  0.00    +0.000 NA
ATOM     26  C   UNL     1      -7.102  14.739  17.931  0.00  0.00    +0.000 A 
ATOM     27  C   UNL     1      -7.247  13.631  17.120  0.00  0.00    +0.000 A 
ATOM     28  C   UNL     1      -7.138  12.374  17.703  0.00  0.00    +0.000 A 
ATOM     29  C   UNL     1      -6.886  12.255  19.075  0.00  0.00    +0.000 A 
ATOM     30 CL   UNL     1      -6.958  10.653  19.723  0.00  0.00    +0.000 Cl
ENDBRANCH  23  24
ENDBRANCH   2  18
TORSDOF 4
ENDMDL
MODEL 7
REMARK VINA RESULT:      -6.5      7.237     10.391
REMARK  Name = 
REMARK  6 active torsions:
REMARK  status: ('A' for Active; 'I' for Inactive)
REMARK    1  A    between atoms: C_1  and  N_2
REMARK    2  A    between atoms: C_3  and  C_5
REMARK    3  A    between atoms: C_10  and  C_11
REMARK    4  A    between atoms: C_12  and  N_13
REMARK    5  A    between atoms: C_14  and  C_16
REMARK    6  A    between atoms: N_21  and  C_22
REMARK                            x       y       z     vdW  Elec       q    Type
REMARK                         _______ _______ _______ _____ _____    ______ ____
ROOT
ATOM      1  N   UNL     1      -1.003  10.970  20.930  0.00  0.00    +0.000 N 
ATOM      2  C   UNL     1      -0.614  12.066  21.698  0.00  0.00    +0.000 C 
ATOM      3  O   UNL     1       0.531  12.507  21.669  0.00  0.00    +0.000 OA
ATOM      4  H   UNL     1      -1.940  11.035  20.525  0.00  0.00    +0.000 HD
ENDROOT
BRANCH   1  12
ATOM      5  C   UNL     1      -0.038  10.242  18.784  0.00  0.00    +0.000 A 
ATOM      6  C   UNL     1       0.875   9.451  18.062  0.00  0.00    +0.000 A 
ATOM      7  C   UNL     1       1.779   8.638  18.731  0.00  0.00    +0.000 A 
ATOM      8 CL   UNL     1       2.901   7.694  17.833  0.00  0.00    +0.000 Cl
ATOM      9  C   UNL     1       1.762   8.566  20.116  0.00  0.00    +0.000 A 
ATOM     10  C   UNL     1       0.833   9.308  20.868  0.00  0.00    +0.000 A 
ATOM     11  C   UNL     1       0.798   9.038  22.354  0.00  0.00    +0.000 C 
ATOM     12  C   UNL     1      -0.060  10.188  20.200  0.00  0.00    +0.000 A 
BRANCH   5  15
ATOM     13  C   UNL     1      -2.724  11.179  16.252  0.00  0.00    +0.000 C 
ATOM     14  N   UNL     1      -1.721  10.497  17.026  0.00  0.00    +0.000 N 
ATOM     15  C   UNL     1      -0.967  11.120  18.012  0.00  0.00    +0.000 C 
ATOM     16  O   UNL     1      -1.030  12.320  18.256  0.00  0.00    +0.000 OA
ATOM     17  H   UNL     1      -1.433   9.582  16.698  0.00  0.00    +0.000 HD
ENDBRANCH   5  15
ENDBRANCH   1  12
BRANCH   2  18
ATOM     18  C   UNL     1      -1.631  12.609  22.577  0.00  0.00    +0.000 A 
ATOM     19  C   UNL     1      -2.638  11.946  23.262  0.00  0.00    +0.000 A 
ATOM     20  C   UNL     1      -3.165  12.892  24.140  0.00  0.00    +0.000 A 
ATOM     21  F   UNL     1      -4.104  12.636  25.007  0.00  0.00    +0.000 F 
ATOM     22  N   UNL     1      -2.577  14.075  24.046  0.00  0.00    +0.000 NA
ATOM     23  N   UNL     1      -1.637  13.918  23.071  0.00  0.00    +0.000 N 
BRANCH  23  24
ATOM     24  C   UNL     1      -0.898  15.051  22.596  0.00  0.00    +0.000 A 
ATOM     25  N   UNL     1       0.260  15.351  23.259  0.00  0.00    +0.000 NA
ATOM     26  C   UNL     1       0.998  16.387  22.802  0.00  0.00    +0.000 A 
ATOM     27  C   UNL     1       0.671  17.127  21.682  0.00  0.00    +0.000 A 
ATOM     28  C   UNL     1      -0.503  16.811  21.009  0.00  0.00    +0.000 A 
ATOM     29  C   UNL     1      -1.318  15.769  21.468  0.00  0.00    +0.000 A 
ATOM     30 CL   UNL     1      -2.841  15.589  20.668  0.00  0.00    +0.000 Cl
ENDBRANCH  23  24
ENDBRANCH   2  18
TORSDOF 4
ENDMDL
MODEL 8
REMARK VINA RESULT:      -6.4      8.029      9.844
REMARK  Name = 
REMARK  6 active torsions:
REMARK  status: ('A' for Active; 'I' for Inactive)
REMARK    1  A    between atoms: C_1  and  N_2
REMARK    2  A    between atoms: C_3  and  C_5
REMARK    3  A    between atoms: C_10  and  C_11
REMARK    4  A    between atoms: C_12  and  N_13
REMARK    5  A    between atoms: C_14  and  C_16
REMARK    6  A    between atoms: N_21  and  C_22
REMARK                            x       y       z     vdW  Elec       q    Type
REMARK                         _______ _______ _______ _____ _____    ______ ____
ROOT
ATOM      1  N   UNL     1      -1.865  12.481  18.852  0.00  0.00    +0.000 N 
ATOM      2  C   UNL     1      -0.844  11.943  19.634  0.00  0.00    +0.000 C 
ATOM      3  O   UNL     1      -1.058  11.078  20.477  0.00  0.00    +0.000 OA
ATOM      4  H   UNL     1      -1.615  12.661  17.876  0.00  0.00    +0.000 HD
ENDROOT
BRANCH   1  12
ATOM      5  C   UNL     1      -3.931  11.272  18.273  0.00  0.00    +0.000 A 
ATOM      6  C   UNL     1      -5.294  11.005  18.503  0.00  0.00    +0.000 A 
ATOM      7  C   UNL     1      -5.959  11.612  19.559  0.00  0.00    +0.000 A 
ATOM      8 CL   UNL     1      -7.619  11.259  19.837  0.00  0.00    +0.000 Cl
ATOM      9  C   UNL     1      -5.297  12.522  20.371  0.00  0.00    +0.000 A 
ATOM     10  C   UNL     1      -3.948  12.848  20.142  0.00  0.00    +0.000 A 
ATOM     11  C   UNL     1      -3.371  13.961  20.984  0.00  0.00    +0.000 C 
ATOM     12  C   UNL     1      -3.238  12.190  19.102  0.00  0.00    +0.000 A 
BRANCH   5  15
ATOM     13  C   UNL     1      -3.160  10.317  14.669  0.00  0.00    +0.000 C 
ATOM     14  N   UNL     1      -3.748  10.844  15.871  0.00  0.00    +0.000 N 
ATOM     15  C   UNL     1      -3.261  10.566  17.142  0.00  0.00    +0.000 C 
ATOM     16  O   UNL     1      -2.338   9.787  17.358  0.00  0.00    +0.000 OA
ATOM     17  H   UNL     1      -4.662  11.274  15.783  0.00  0.00    +0.000 HD
ENDBRANCH   5  15
ENDBRANCH   1  12
BRANCH   2  18
ATOM     18  C   UNL     1       0.472  12.515  19.428  0.00  0.00    +0.000 A 
ATOM     19  C   UNL     1       1.525  12.032  18.666  0.00  0.00    +0.000 A 
ATOM     20  C   UNL     1       2.447  13.076  18.615  0.00  0.00    +0.000 A 
ATOM     21  F   UNL     1       3.559  13.033  17.937  0.00  0.00    +0.000 F 
ATOM     22  N   UNL     1       2.057  14.149  19.286  0.00  0.00    +0.000 NA
ATOM     23  N   UNL     1       0.843  13.810  19.808  0.00  0.00    +0.000 N 
BRANCH  23  24
ATOM     24  C   UNL     1       0.183  14.691  20.725  0.00  0.00    +0.000 A 
ATOM     25  N   UNL     1       0.176  14.317  22.040  0.00  0.00    +0.000 NA
ATOM     26  C   UNL     1      -0.402  15.153  22.931  0.00  0.00    +0.000 A 
ATOM     27  C   UNL     1      -0.943  16.379  22.593  0.00  0.00    +0.000 A 
ATOM     28  C   UNL     1      -0.926  16.755  21.256  0.00  0.00    +0.000 A 
ATOM     29  C   UNL     1      -0.370  15.904  20.293  0.00  0.00    +0.000 A 
ATOM     30 CL   UNL     1      -0.573  16.390  18.645  0.00  0.00    +0.000 Cl
ENDBRANCH  23  24
ENDBRANCH   2  18
TORSDOF 4
ENDMDL
MODEL 9
REMARK VINA RESULT:      -6.4      6.277      8.400
REMARK  Name = 
REMARK  6 active torsions:
REMARK  status: ('A' for Active; 'I' for Inactive)
REMARK    1  A    between atoms: C_1  and  N_2
REMARK    2  A    between atoms: C_3  and  C_5
REMARK    3  A    between atoms: C_10  and  C_11
REMARK    4  A    between atoms: C_12  and  N_13
REMARK    5  A    between atoms: C_14  and  C_16
REMARK    6  A    between atoms: N_21  and  C_22
REMARK                            x       y       z     vdW  Elec       q    Type
REMARK                         _______ _______ _______ _____ _____    ______ ____
ROOT
ATOM      1  N   UNL     1      -1.936  11.396  19.373  0.00  0.00    +0.000 N 
ATOM      2  C   UNL     1      -0.958  11.792  18.462  0.00  0.00    +0.000 C 
ATOM      3  O   UNL     1      -1.112  12.759  17.723  0.00  0.00    +0.000 OA
ATOM      4  H   UNL     1      -1.581  11.077  20.279  0.00  0.00    +0.000 HD
ENDROOT
BRANCH   1  12
ATOM      5  C   UNL     1      -4.161  11.667  18.354  0.00  0.00    +0.000 A 
ATOM      6  C   UNL     1      -5.437  12.261  18.349  0.00  0.00    +0.000 A 
ATOM      7  C   UNL     1      -5.810  13.129  19.365  0.00  0.00    +0.000 A 
ATOM      8 CL   UNL     1      -7.380  13.830  19.353  0.00  0.00    +0.000 Cl
ATOM      9  C   UNL     1      -4.913  13.452  20.372  0.00  0.00    +0.000 A 
ATOM     10  C   UNL     1      -3.614  12.913  20.384  0.00  0.00    +0.000 A 
ATOM     11  C   UNL     1      -2.670  13.449  21.435  0.00  0.00    +0.000 C 
ATOM     12  C   UNL     1      -3.237  11.978  19.383  0.00  0.00    +0.000 A 
BRANCH   5  15
ATOM     13  C   UNL     1      -3.247  10.519  14.840  0.00  0.00    +0.000 C 
ATOM     14  N   UNL     1      -3.655  11.278  15.991  0.00  0.00    +0.000 N 
ATOM     15  C   UNL     1      -3.827  10.718  17.251  0.00  0.00    +0.000 C 
ATOM     16  O   UNL     1      -3.722   9.517  17.478  0.00  0.00    +0.000 OA
ATOM     17  H   UNL     1      -4.013  12.212  15.820  0.00  0.00    +0.000 HD
ENDBRANCH   5  15
ENDBRANCH   1  12
BRANCH   2  18
ATOM     18  C   UNL     1       0.221  10.952  18.403  0.00  0.00    +0.000 A 
ATOM     19  C   UNL     1       0.329   9.623  18.018  0.00  0.00    +0.000 A 
ATOM     20  C   UNL     1       1.698   9.386  17.907  0.00  0.00    +0.000 A 
ATOM     21  F   UNL     1       2.211   8.256  17.507  0.00  0.00    +0.000 F 
ATOM     22  N   UNL     1       2.436  10.446  18.200  0.00  0.00    +0.000 NA
ATOM     23  N   UNL     1       1.535  11.417  18.524  0.00  0.00    +0.000 N 
BRANCH  23  24
ATOM     24  C   UNL     1       1.988  12.675  19.040  0.00  0.00    +0.000 A 
ATOM     25  N   UNL     1       2.759  13.439  18.208  0.00  0.00    +0.000 NA
ATOM     26  C   UNL     1       3.160  14.650  18.655  0.00  0.00    +0.000 A 
ATOM     27  C   UNL     1       2.801  15.172  19.882  0.00  0.00    +0.000 A 
ATOM     28  C   UNL     1       2.013  14.392  20.720  0.00  0.00    +0.000 A 
ATOM     29  C   UNL     1       1.603  13.117  20.313  0.00  0.00    +0.000 A 
ATOM     30 CL   UNL     1       0.788  12.167  21.506  0.00  0.00    +0.000 Cl
ENDBRANCH  23  24
ENDBRANCH   2  18
TORSDOF 4
ENDMDL
