MODEL 1
REMARK VINA RESULT:      -6.4      0.000      0.000
REMARK  Name = 
REMARK  5 active torsions:
REMARK  status: ('A' for Active; 'I' for Inactive)
REMARK    1  A    between atoms: C_1  and  C_2
REMARK    2  A    between atoms: C_8  and  N_9
REMARK    3  A    between atoms: C_10  and  S_11
REMARK    4  A    between atoms: N_15  and  C_16
REMARK    5  A    between atoms: C_16  and  C_17
REMARK                            x       y       z     vdW  Elec       q    Type
REMARK                         _______ _______ _______ _____ _____    ______ ____
ROOT
ATOM      1  N   UNL     1      -0.253  10.400  20.361  0.00  0.00    +0.000 NA
ATOM      2  C   UNL     1       0.827  10.473  19.632  0.00  0.00    +0.000 C 
ATOM      3  N   UNL     1       1.549   9.332  19.301  0.00  0.00    +0.000 N 
ATOM      4  C   UNL     1       1.823   9.033  17.878  0.00  0.00    +0.000 C 
ATOM      5  C   UNL     1       2.965   8.000  17.722  0.00  0.00    +0.000 C 
ATOM      6  N   UNL     1       2.803   6.757  18.513  0.00  0.00    +0.000 NA
ATOM      7  C   UNL     1       2.537   7.149  19.917  0.00  0.00    +0.000 C 
ATOM      8  C   UNL     1       1.346   8.114  20.108  0.00  0.00    +0.000 C 
ENDROOT
BRANCH   1  16
ATOM      9  C   UNL     1      -2.388  11.221  18.556  0.00  0.00    +0.000 C 
ATOM     10  C   UNL     1      -2.077  11.934  19.845  0.00  0.00    +0.000 A 
ATOM     11  C   UNL     1      -2.887  13.028  20.207  0.00  0.00    +0.000 A 
ATOM     12  C   UNL     1      -2.693  13.674  21.425  0.00  0.00    +0.000 A 
ATOM     13 CL   UNL     1      -3.640  15.052  21.826  0.00  0.00    +0.000 Cl
ATOM     14  C   UNL     1      -1.751  13.197  22.326  0.00  0.00    +0.000 A 
ATOM     15  C   UNL     1      -0.985  12.077  21.995  0.00  0.00    +0.000 A 
ATOM     16  C   UNL     1      -1.073  11.480  20.730  0.00  0.00    +0.000 A 
ENDBRANCH   1  16
BRANCH   2  17
ATOM     17  S   UNL     1       1.560  11.960  19.004  0.00  0.00    +0.000 S 
ATOM     18  H   UNL     1       1.009  11.960  17.790  0.00  0.00    +0.000 HD
ENDBRANCH   2  17
BRANCH   6  19
ATOM     19  C   UNL     1       1.740   5.917  17.932  0.00  0.00    +0.000 C 
BRANCH  19  20
ATOM     20  C   UNL     1       1.840   4.446  18.274  0.00  0.00    +0.000 A 
ATOM     21  C   UNL     1       2.561   3.575  17.445  0.00  0.00    +0.000 A 
ATOM     22  C   UNL     1       2.678   2.223  17.763  0.00  0.00    +0.000 A 
ATOM     23  C   UNL     1       2.078   1.723  18.915  0.00  0.00    +0.000 A 
ATOM     24  C   UNL     1       1.356   2.579  19.745  0.00  0.00    +0.000 A 
ATOM     25  C   UNL     1       1.236   3.935  19.431  0.00  0.00    +0.000 A 
ENDBRANCH  19  20
ENDBRANCH   6  19
TORSDOF 4
ENDMDL
MODEL 2
REMARK VINA RESULT:      -6.4      3.797      9.607
REMARK  Name = 
REMARK  5 active torsions:
REMARK  status: ('A' for Active; 'I' for Inactive)
REMARK    1  A    between atoms: C_1  and  C_2
REMARK    2  A    between atoms: C_8  and  N_9
REMARK    3  A    between atoms: C_10  and  S_11
REMARK    4  A    between atoms: N_15  and  C_16
REMARK    5  A    between atoms: C_16  and  C_17
REMARK                            x       y       z     vdW  Elec       q    Type
REMARK                         _______ _______ _______ _____ _____    ______ ____
ROOT
ATOM      1  N   UNL     1      -0.317  10.870  20.186  0.00  0.00    +0.000 NA
ATOM      2  C   UNL     1       0.032  12.080  20.525  0.00  0.00    +0.000 C 
ATOM      3  N   UNL     1      -0.888  12.967  21.074  0.00  0.00    +0.000 N 
ATOM      4  C   UNL     1      -0.597  13.601  22.378  0.00  0.00    +0.000 C 
ATOM      5  C   UNL     1      -1.491  14.842  22.620  0.00  0.00    +0.000 C 
ATOM      6  N   UNL     1      -2.944  14.615  22.443  0.00  0.00    +0.000 NA
ATOM      7  C   UNL     1      -3.143  13.984  21.117  0.00  0.00    +0.000 C 
ATOM      8  C   UNL     1      -2.325  12.695  20.882  0.00  0.00    +0.000 C 
ENDROOT
BRANCH   1  16
ATOM      9  C   UNL     1       0.653   8.755  21.940  0.00  0.00    +0.000 C 
ATOM     10  C   UNL     1       1.062   8.883  20.498  0.00  0.00    +0.000 A 
ATOM     11  C   UNL     1       1.928   7.907  19.967  0.00  0.00    +0.000 A 
ATOM     12  C   UNL     1       2.277   7.933  18.620  0.00  0.00    +0.000 A 
ATOM     13 CL   UNL     1       3.390   6.779  17.998  0.00  0.00    +0.000 Cl
ATOM     14  C   UNL     1       1.713   8.875  17.771  0.00  0.00    +0.000 A 
ATOM     15  C   UNL     1       0.808   9.810  18.281  0.00  0.00    +0.000 A 
ATOM     16  C   UNL     1       0.532   9.885  19.654  0.00  0.00    +0.000 A 
ENDBRANCH   1  16
BRANCH   2  17
ATOM     17  S   UNL     1       1.641  12.796  20.316  0.00  0.00    +0.000 S 
ATOM     18  H   UNL     1       1.667  12.850  18.985  0.00  0.00    +0.000 HD
ENDBRANCH   2  17
BRANCH   6  19
ATOM     19  C   UNL     1      -3.475  13.808  23.557  0.00  0.00    +0.000 C 
BRANCH  19  20
ATOM     20  C   UNL     1      -4.973  13.910  23.753  0.00  0.00    +0.000 A 
ATOM     21  C   UNL     1      -5.609  15.159  23.698  0.00  0.00    +0.000 A 
ATOM     22  C   UNL     1      -6.990  15.262  23.855  0.00  0.00    +0.000 A 
ATOM     23  C   UNL     1      -7.755  14.119  24.066  0.00  0.00    +0.000 A 
ATOM     24  C   UNL     1      -7.133  12.873  24.125  0.00  0.00    +0.000 A 
ATOM     25  C   UNL     1      -5.750  12.764  23.968  0.00  0.00    +0.000 A 
ENDBRANCH  19  20
ENDBRANCH   6  19
TORSDOF 4
ENDMDL
MODEL 3
REMARK VINA RESULT:      -6.3      0.523      1.419
REMARK  Name = 
REMARK  5 active torsions:
REMARK  status: ('A' for Active; 'I' for Inactive)
REMARK    1  A    between atoms: C_1  and  C_2
REMARK    2  A    between atoms: C_8  and  N_9
REMARK    3  A    between atoms: C_10  and  S_11
REMARK    4  A    between atoms: N_15  and  C_16
REMARK    5  A    between atoms: C_16  and  C_17
REMARK                            x       y       z     vdW  Elec       q    Type
REMARK                         _______ _______ _______ _____ _____    ______ ____
ROOT
ATOM      1  N   UNL     1      -0.367  10.190  20.342  0.00  0.00    +0.000 NA
ATOM      2  C   UNL     1       0.732  10.333  19.653  0.00  0.00    +0.000 C 
ATOM      3  N   UNL     1       1.511   9.236  19.306  0.00  0.00    +0.000 N 
ATOM      4  C   UNL     1       1.844   9.002  17.884  0.00  0.00    +0.000 C 
ATOM      5  C   UNL     1       3.033   8.022  17.731  0.00  0.00    +0.000 C 
ATOM      6  N   UNL     1       2.896   6.746  18.470  0.00  0.00    +0.000 NA
ATOM      7  C   UNL     1       2.568   7.074  19.878  0.00  0.00    +0.000 C 
ATOM      8  C   UNL     1       1.333   7.982  20.063  0.00  0.00    +0.000 C 
ENDROOT
BRANCH   1  16
ATOM      9  C   UNL     1      -0.767  10.721  23.179  0.00  0.00    +0.000 C 
ATOM     10  C   UNL     1      -1.500  11.459  22.090  0.00  0.00    +0.000 A 
ATOM     11  C   UNL     1      -2.392  12.481  22.468  0.00  0.00    +0.000 A 
ATOM     12  C   UNL     1      -3.036  13.247  21.501  0.00  0.00    +0.000 A 
ATOM     13 CL   UNL     1      -4.178  14.444  21.972  0.00  0.00    +0.000 Cl
ATOM     14  C   UNL     1      -2.745  13.061  20.156  0.00  0.00    +0.000 A 
ATOM     15  C   UNL     1      -1.816  12.088  19.779  0.00  0.00    +0.000 A 
ATOM     16  C   UNL     1      -1.244  11.221  20.721  0.00  0.00    +0.000 A 
ENDBRANCH   1  16
BRANCH   2  17
ATOM     17  S   UNL     1       1.422  11.872  19.104  0.00  0.00    +0.000 S 
ATOM     18  H   UNL     1       0.498  12.197  18.201  0.00  0.00    +0.000 HD
ENDBRANCH   2  17
BRANCH   6  19
ATOM     19  C   UNL     1       1.889   5.885  17.824  0.00  0.00    +0.000 C 
BRANCH  19  20
ATOM     20  C   UNL     1       1.984   4.419  18.188  0.00  0.00    +0.000 A 
ATOM     21  C   UNL     1       2.832   3.565  17.468  0.00  0.00    +0.000 A 
ATOM     22  C   UNL     1       2.944   2.219  17.809  0.00  0.00    +0.000 A 
ATOM     23  C   UNL     1       2.211   1.706  18.875  0.00  0.00    +0.000 A 
ATOM     24  C   UNL     1       1.362   2.545  19.596  0.00  0.00    +0.000 A 
ATOM     25  C   UNL     1       1.247   3.895  19.259  0.00  0.00    +0.000 A 
ENDBRANCH  19  20
ENDBRANCH   6  19
TORSDOF 4
ENDMDL
MODEL 4
REMARK VINA RESULT:      -6.3      0.920      1.881
REMARK  Name = 
REMARK  5 active torsions:
REMARK  status: ('A' for Active; 'I' for Inactive)
REMARK    1  A    between atoms: C_1  and  C_2
REMARK    2  A    between atoms: C_8  and  N_9
REMARK    3  A    between atoms: C_10  and  S_11
REMARK    4  A    between atoms: N_15  and  C_16
REMARK    5  A    between atoms: C_16  and  C_17
REMARK                            x       y       z     vdW  Elec       q    Type
REMARK                         _______ _______ _______ _____ _____    ______ ____
ROOT
ATOM      1  N   UNL     1      -0.034   9.838  20.569  0.00  0.00    +0.000 NA
ATOM      2  C   UNL     1       0.942  10.037  19.725  0.00  0.00    +0.000 C 
ATOM      3  N   UNL     1       1.716   8.981  19.259  0.00  0.00    +0.000 N 
ATOM      4  C   UNL     1       1.846   8.763  17.802  0.00  0.00    +0.000 C 
ATOM      5  C   UNL     1       3.048   7.847  17.467  0.00  0.00    +0.000 C 
ATOM      6  N   UNL     1       3.089   6.565  18.210  0.00  0.00    +0.000 NA
ATOM      7  C   UNL     1       2.957   6.878  19.653  0.00  0.00    +0.000 C 
ATOM      8  C   UNL     1       1.718   7.720  20.025  0.00  0.00    +0.000 C 
ENDROOT
BRANCH   1  16
ATOM      9  C   UNL     1      -0.394  10.026  23.454  0.00  0.00    +0.000 C 
ATOM     10  C   UNL     1      -1.133  10.895  22.471  0.00  0.00    +0.000 A 
ATOM     11  C   UNL     1      -2.012  11.870  22.982  0.00  0.00    +0.000 A 
ATOM     12  C   UNL     1      -2.661  12.752  22.122  0.00  0.00    +0.000 A 
ATOM     13 CL   UNL     1      -3.785  13.892  22.749  0.00  0.00    +0.000 Cl
ATOM     14  C   UNL     1      -2.388  12.728  20.761  0.00  0.00    +0.000 A 
ATOM     15  C   UNL     1      -1.472  11.800  20.258  0.00  0.00    +0.000 A 
ATOM     16  C   UNL     1      -0.896  10.822  21.080  0.00  0.00    +0.000 A 
ENDBRANCH   1  16
BRANCH   2  17
ATOM     17  S   UNL     1       1.463  11.609  19.090  0.00  0.00    +0.000 S 
ATOM     18  H   UNL     1       1.708  11.246  17.831  0.00  0.00    +0.000 HD
ENDBRANCH   2  17
BRANCH   6  19
ATOM     19  C   UNL     1       2.042   5.653  17.714  0.00  0.00    +0.000 C 
BRANCH  19  20
ATOM     20  C   UNL     1       2.248   4.199  18.079  0.00  0.00    +0.000 A 
ATOM     21  C   UNL     1       1.338   3.546  18.922  0.00  0.00    +0.000 A 
ATOM     22  C   UNL     1       1.506   2.201  19.247  0.00  0.00    +0.000 A 
ATOM     23  C   UNL     1       2.585   1.489  18.732  0.00  0.00    +0.000 A 
ATOM     24  C   UNL     1       3.498   2.128  17.894  0.00  0.00    +0.000 A 
ATOM     25  C   UNL     1       3.334   3.476  17.566  0.00  0.00    +0.000 A 
ENDBRANCH  19  20
ENDBRANCH   6  19
TORSDOF 4
ENDMDL
MODEL 5
REMARK VINA RESULT:      -6.1      0.597      1.083
REMARK  Name = 
REMARK  5 active torsions:
REMARK  status: ('A' for Active; 'I' for Inactive)
REMARK    1  A    between atoms: C_1  and  C_2
REMARK    2  A    between atoms: C_8  and  N_9
REMARK    3  A    between atoms: C_10  and  S_11
REMARK    4  A    between atoms: N_15  and  C_16
REMARK    5  A    between atoms: C_16  and  C_17
REMARK                            x       y       z     vdW  Elec       q    Type
REMARK                         _______ _______ _______ _____ _____    ______ ____
ROOT
ATOM      1  N   UNL     1      -0.291  10.058  20.012  0.00  0.00    +0.000 NA
ATOM      2  C   UNL     1       0.855  10.192  19.403  0.00  0.00    +0.000 C 
ATOM      3  N   UNL     1       1.668   9.093  19.150  0.00  0.00    +0.000 N 
ATOM      4  C   UNL     1       2.109   8.818  17.765  0.00  0.00    +0.000 C 
ATOM      5  C   UNL     1       3.315   7.848  17.733  0.00  0.00    +0.000 C 
ATOM      6  N   UNL     1       3.134   6.593  18.500  0.00  0.00    +0.000 NA
ATOM      7  C   UNL     1       2.698   6.961  19.868  0.00  0.00    +0.000 C 
ATOM      8  C   UNL     1       1.445   7.861  19.930  0.00  0.00    +0.000 C 
ENDROOT
BRANCH   1  16
ATOM      9  C   UNL     1      -2.454  10.569  18.127  0.00  0.00    +0.000 C 
ATOM     10  C   UNL     1      -2.224  11.396  19.364  0.00  0.00    +0.000 A 
ATOM     11  C   UNL     1      -3.126  12.443  19.636  0.00  0.00    +0.000 A 
ATOM     12  C   UNL     1      -3.007  13.189  20.805  0.00  0.00    +0.000 A 
ATOM     13 CL   UNL     1      -4.069  14.510  21.094  0.00  0.00    +0.000 Cl
ATOM     14  C   UNL     1      -2.045  12.857  21.749  0.00  0.00    +0.000 A 
ATOM     15  C   UNL     1      -1.185  11.783  21.510  0.00  0.00    +0.000 A 
ATOM     16  C   UNL     1      -1.202  11.091  20.291  0.00  0.00    +0.000 A 
ENDBRANCH   1  16
BRANCH   2  17
ATOM     17  S   UNL     1       1.572  11.720  18.859  0.00  0.00    +0.000 S 
ATOM     18  H   UNL     1       2.855  11.428  19.070  0.00  0.00    +0.000 HD
ENDBRANCH   2  17
BRANCH   6  19
ATOM     19  C   UNL     1       2.185   5.702  17.807  0.00  0.00    +0.000 C 
BRANCH  19  20
ATOM     20  C   UNL     1       2.172   4.277  18.316  0.00  0.00    +0.000 A 
ATOM     21  C   UNL     1       1.050   3.779  18.993  0.00  0.00    +0.000 A 
ATOM     22  C   UNL     1       1.018   2.461  19.447  0.00  0.00    +0.000 A 
ATOM     23  C   UNL     1       2.106   1.623  19.229  0.00  0.00    +0.000 A 
ATOM     24  C   UNL     1       3.228   2.107  18.559  0.00  0.00    +0.000 A 
ATOM     25  C   UNL     1       3.265   3.427  18.102  0.00  0.00    +0.000 A 
ENDBRANCH  19  20
ENDBRANCH   6  19
TORSDOF 4
ENDMDL
MODEL 6
REMARK VINA RESULT:      -6.0      3.941      9.658
REMARK  Name = 
REMARK  5 active torsions:
REMARK  status: ('A' for Active; 'I' for Inactive)
REMARK    1  A    between atoms: C_1  and  C_2
REMARK    2  A    between atoms: C_8  and  N_9
REMARK    3  A    between atoms: C_10  and  S_11
REMARK    4  A    between atoms: N_15  and  C_16
REMARK    5  A    between atoms: C_16  and  C_17
REMARK                            x       y       z     vdW  Elec       q    Type
REMARK                         _______ _______ _______ _____ _____    ______ ____
ROOT
ATOM      1  N   UNL     1      -0.652  11.250  20.459  0.00  0.00    +0.000 NA
ATOM      2  C   UNL     1      -0.306  12.490  20.671  0.00  0.00    +0.000 C 
ATOM      3  N   UNL     1      -1.207  13.409  21.195  0.00  0.00    +0.000 N 
ATOM      4  C   UNL     1      -0.852  14.159  22.420  0.00  0.00    +0.000 C 
ATOM      5  C   UNL     1      -1.752  15.404  22.608  0.00  0.00    +0.000 C 
ATOM      6  N   UNL     1      -3.209  15.145  22.537  0.00  0.00    +0.000 NA
ATOM      7  C   UNL     1      -3.473  14.398  21.284  0.00  0.00    +0.000 C 
ATOM      8  C   UNL     1      -2.648  13.105  21.113  0.00  0.00    +0.000 C 
ENDROOT
BRANCH   1  16
ATOM      9  C   UNL     1       0.123   9.080  22.241  0.00  0.00    +0.000 C 
ATOM     10  C   UNL     1       0.619   9.202  20.825  0.00  0.00    +0.000 A 
ATOM     11  C   UNL     1       1.470   8.193  20.333  0.00  0.00    +0.000 A 
ATOM     12  C   UNL     1       1.895   8.215  19.008  0.00  0.00    +0.000 A 
ATOM     13 CL   UNL     1       2.989   7.018  18.437  0.00  0.00    +0.000 Cl
ATOM     14  C   UNL     1       1.421   9.189  18.140  0.00  0.00    +0.000 A 
ATOM     15  C   UNL     1       0.532  10.158  18.609  0.00  0.00    +0.000 A 
ATOM     16  C   UNL     1       0.182  10.233  19.964  0.00  0.00    +0.000 A 
ENDBRANCH   1  16
BRANCH   2  17
ATOM     17  S   UNL     1       1.276  13.204  20.307  0.00  0.00    +0.000 S 
ATOM     18  H   UNL     1       1.430  13.930  21.415  0.00  0.00    +0.000 HD
ENDBRANCH   2  17
BRANCH   6  19
ATOM     19  C   UNL     1      -3.661  14.431  23.745  0.00  0.00    +0.000 C 
BRANCH  19  20
ATOM     20  C   UNL     1      -5.153  14.188  23.813  0.00  0.00    +0.000 A 
ATOM     21  C   UNL     1      -5.653  12.880  23.888  0.00  0.00    +0.000 A 
ATOM     22  C   UNL     1      -7.024  12.645  23.973  0.00  0.00    +0.000 A 
ATOM     23  C   UNL     1      -7.915  13.714  23.987  0.00  0.00    +0.000 A 
ATOM     24  C   UNL     1      -7.429  15.019  23.911  0.00  0.00    +0.000 A 
ATOM     25  C   UNL     1      -6.057  15.259  23.826  0.00  0.00    +0.000 A 
ENDBRANCH  19  20
ENDBRANCH   6  19
TORSDOF 4
ENDMDL
MODEL 7
REMARK VINA RESULT:      -6.0      1.317      2.158
REMARK  Name = 
REMARK  5 active torsions:
REMARK  status: ('A' for Active; 'I' for Inactive)
REMARK    1  A    between atoms: C_1  and  C_2
REMARK    2  A    between atoms: C_8  and  N_9
REMARK    3  A    between atoms: C_10  and  S_11
REMARK    4  A    between atoms: N_15  and  C_16
REMARK    5  A    between atoms: C_16  and  C_17
REMARK                            x       y       z     vdW  Elec       q    Type
REMARK                         _______ _______ _______ _____ _____    ______ ____
ROOT
ATOM      1  N   UNL     1       0.275   9.538  20.629  0.00  0.00    +0.000 NA
ATOM      2  C   UNL     1       1.082   9.712  19.618  0.00  0.00    +0.000 C 
ATOM      3  N   UNL     1       1.885   8.678  19.153  0.00  0.00    +0.000 N 
ATOM      4  C   UNL     1       1.812   8.286  17.728  0.00  0.00    +0.000 C 
ATOM      5  C   UNL     1       3.040   7.445  17.305  0.00  0.00    +0.000 C 
ATOM      6  N   UNL     1       3.334   6.279  18.171  0.00  0.00    +0.000 NA
ATOM      7  C   UNL     1       3.393   6.762  19.571  0.00  0.00    +0.000 C 
ATOM      8  C   UNL     1       2.142   7.532  20.045  0.00  0.00    +0.000 C 
ENDROOT
BRANCH   1  16
ATOM      9  C   UNL     1      -0.076   9.669  23.518  0.00  0.00    +0.000 C 
ATOM     10  C   UNL     1      -0.832  10.544  22.555  0.00  0.00    +0.000 A 
ATOM     11  C   UNL     1      -1.723  11.496  23.087  0.00  0.00    +0.000 A 
ATOM     12  C   UNL     1      -2.389  12.383  22.246  0.00  0.00    +0.000 A 
ATOM     13 CL   UNL     1      -3.528  13.494  22.897  0.00  0.00    +0.000 Cl
ATOM     14  C   UNL     1      -2.122  12.388  20.883  0.00  0.00    +0.000 A 
ATOM     15  C   UNL     1      -1.195  11.483  20.359  0.00  0.00    +0.000 A 
ATOM     16  C   UNL     1      -0.600  10.500  21.162  0.00  0.00    +0.000 A 
ENDBRANCH   1  16
BRANCH   2  17
ATOM     17  S   UNL     1       1.325  11.229  18.732  0.00  0.00    +0.000 S 
ATOM     18  H   UNL     1       0.220  11.207  17.987  0.00  0.00    +0.000 HD
ENDBRANCH   2  17
BRANCH   6  19
ATOM     19  C   UNL     1       2.329   5.221  17.962  0.00  0.00    +0.000 C 
BRANCH  19  20
ATOM     20  C   UNL     1       2.242   4.203  19.080  0.00  0.00    +0.000 A 
ATOM     21  C   UNL     1       1.039   4.019  19.776  0.00  0.00    +0.000 A 
ATOM     22  C   UNL     1       0.943   3.070  20.792  0.00  0.00    +0.000 A 
ATOM     23  C   UNL     1       2.046   2.290  21.125  0.00  0.00    +0.000 A 
ATOM     24  C   UNL     1       3.248   2.467  20.442  0.00  0.00    +0.000 A 
ATOM     25  C   UNL     1       3.350   3.416  19.423  0.00  0.00    +0.000 A 
ENDBRANCH  19  20
ENDBRANCH   6  19
TORSDOF 4
ENDMDL
MODEL 8
REMARK VINA RESULT:      -5.9      3.675      9.139
REMARK  Name = 
REMARK  5 active torsions:
REMARK  status: ('A' for Active; 'I' for Inactive)
REMARK    1  A    between atoms: C_1  and  C_2
REMARK    2  A    between atoms: C_8  and  N_9
REMARK    3  A    between atoms: C_10  and  S_11
REMARK    4  A    between atoms: N_15  and  C_16
REMARK    5  A    between atoms: C_16  and  C_17
REMARK                            x       y       z     vdW  Elec       q    Type
REMARK                         _______ _______ _______ _____ _____    ______ ____
ROOT
ATOM      1  N   UNL     1       0.174  10.670  19.901  0.00  0.00    +0.000 NA
ATOM      2  C   UNL     1       0.490  11.936  19.874  0.00  0.00    +0.000 C 
ATOM      3  N   UNL     1      -0.348  12.898  20.426  0.00  0.00    +0.000 N 
ATOM      4  C   UNL     1       0.183  13.823  21.450  0.00  0.00    +0.000 C 
ATOM      5  C   UNL     1      -0.730  15.060  21.630  0.00  0.00    +0.000 C 
ATOM      6  N   UNL     1      -2.161  14.757  21.867  0.00  0.00    +0.000 NA
ATOM      7  C   UNL     1      -2.608  13.833  20.798  0.00  0.00    +0.000 C 
ATOM      8  C   UNL     1      -1.763  12.549  20.654  0.00  0.00    +0.000 C 
ENDROOT
BRANCH   1  16
ATOM      9  C   UNL     1       0.864   8.473  21.685  0.00  0.00    +0.000 C 
ATOM     10  C   UNL     1       1.352   8.567  20.264  0.00  0.00    +0.000 A 
ATOM     11  C   UNL     1       2.152   7.518  19.769  0.00  0.00    +0.000 A 
ATOM     12  C   UNL     1       2.565   7.515  18.440  0.00  0.00    +0.000 A 
ATOM     13 CL   UNL     1       3.599   6.267  17.864  0.00  0.00    +0.000 Cl
ATOM     14  C   UNL     1       2.130   8.507  17.572  0.00  0.00    +0.000 A 
ATOM     15  C   UNL     1       1.290   9.518  18.045  0.00  0.00    +0.000 A 
ATOM     16  C   UNL     1       0.956   9.614  19.403  0.00  0.00    +0.000 A 
ENDBRANCH   1  16
BRANCH   2  17
ATOM     17  S   UNL     1       1.942  12.630  19.130  0.00  0.00    +0.000 S 
ATOM     18  H   UNL     1       2.620  12.919  20.240  0.00  0.00    +0.000 HD
ENDBRANCH   2  17
BRANCH   6  19
ATOM     19  C   UNL     1      -2.351  14.213  23.223  0.00  0.00    +0.000 C 
BRANCH  19  20
ATOM     20  C   UNL     1      -3.773  13.803  23.545  0.00  0.00    +0.000 A 
ATOM     21  C   UNL     1      -4.023  12.620  24.257  0.00  0.00    +0.000 A 
ATOM     22  C   UNL     1      -5.326  12.245  24.577  0.00  0.00    +0.000 A 
ATOM     23  C   UNL     1      -6.397  13.046  24.194  0.00  0.00    +0.000 A 
ATOM     24  C   UNL     1      -6.160  14.222  23.484  0.00  0.00    +0.000 A 
ATOM     25  C   UNL     1      -4.857  14.603  23.160  0.00  0.00    +0.000 A 
ENDBRANCH  19  20
ENDBRANCH   6  19
TORSDOF 4
ENDMDL
MODEL 9
REMARK VINA RESULT:      -5.8      2.556      3.527
REMARK  Name = 
REMARK  5 active torsions:
REMARK  status: ('A' for Active; 'I' for Inactive)
REMARK    1  A    between atoms: C_1  and  C_2
REMARK    2  A    between atoms: C_8  and  N_9
REMARK    3  A    between atoms: C_10  and  S_11
REMARK    4  A    between atoms: N_15  and  C_16
REMARK    5  A    between atoms: C_16  and  C_17
REMARK                            x       y       z     vdW  Elec       q    Type
REMARK                         _______ _______ _______ _____ _____    ______ ____
ROOT
ATOM      1  N   UNL     1       1.282   9.982  18.890  0.00  0.00    +0.000 NA
ATOM      2  C   UNL     1       1.047   9.015  19.734  0.00  0.00    +0.000 C 
ATOM      3  N   UNL     1       1.552   7.737  19.523  0.00  0.00    +0.000 N 
ATOM      4  C   UNL     1       2.374   7.098  20.574  0.00  0.00    +0.000 C 
ATOM      5  C   UNL     1       2.484   5.569  20.360  0.00  0.00    +0.000 C 
ATOM      6  N   UNL     1       2.920   5.152  19.007  0.00  0.00    +0.000 NA
ATOM      7  C   UNL     1       2.045   5.833  18.023  0.00  0.00    +0.000 C 
ATOM      8  C   UNL     1       1.984   7.370  18.161  0.00  0.00    +0.000 C 
ENDROOT
BRANCH   1  16
ATOM      9  C   UNL     1      -1.386  10.685  17.954  0.00  0.00    +0.000 C 
ATOM     10  C   UNL     1      -0.418  11.690  18.518  0.00  0.00    +0.000 A 
ATOM     11  C   UNL     1      -0.845  13.028  18.630  0.00  0.00    +0.000 A 
ATOM     12  C   UNL     1      -0.019  13.983  19.216  0.00  0.00    +0.000 A 
ATOM     13 CL   UNL     1      -0.520  15.627  19.284  0.00  0.00    +0.000 Cl
ATOM     14  C   UNL     1       1.200  13.609  19.765  0.00  0.00    +0.000 A 
ATOM     15  C   UNL     1       1.602  12.272  19.708  0.00  0.00    +0.000 A 
ATOM     16  C   UNL     1       0.848  11.312  19.018  0.00  0.00    +0.000 A 
ENDBRANCH   1  16
BRANCH   2  17
ATOM     17  S   UNL     1       0.055   9.132  21.199  0.00  0.00    +0.000 S 
ATOM     18  H   UNL     1       0.532   8.072  21.851  0.00  0.00    +0.000 HD
ENDBRANCH   2  17
BRANCH   6  19
ATOM     19  C   UNL     1       4.351   5.450  18.816  0.00  0.00    +0.000 C 
BRANCH  19  20
ATOM     20  C   UNL     1       4.862   5.218  17.410  0.00  0.00    +0.000 A 
ATOM     21  C   UNL     1       5.115   6.306  16.562  0.00  0.00    +0.000 A 
ATOM     22  C   UNL     1       5.606   6.105  15.273  0.00  0.00    +0.000 A 
ATOM     23  C   UNL     1       5.854   4.815  14.815  0.00  0.00    +0.000 A 
ATOM     24  C   UNL     1       5.604   3.726  15.648  0.00  0.00    +0.000 A 
ATOM     25  C   UNL     1       5.112   3.922  16.940  0.00  0.00    +0.000 A 
ENDBRANCH  19  20
ENDBRANCH   6  19
TORSDOF 4
ENDMDL
