MODEL 1
REMARK VINA RESULT:      -8.3      0.000      0.000
REMARK  Name = 
REMARK  13 active torsions:
REMARK  status: ('A' for Active; 'I' for Inactive)
REMARK    1  A    between atoms: C_1  and  O_2
REMARK    2  A    between atoms: O_2  and  C_3
REMARK    3  A    between atoms: C_5  and  N_6
REMARK    4  A    between atoms: N_6  and  C_7
REMARK    5  A    between atoms: C_12  and  S_13
REMARK    6  A    between atoms: S_13  and  N_16
REMARK    7  A    between atoms: N_16  and  C_17
REMARK    8  A    between atoms: C_20  and  C_21
REMARK    9  A    between atoms: C_22  and  C_23
REMARK   10  A    between atoms: C_26  and  O_27
REMARK   11  A    between atoms: O_27  and  C_28
REMARK   12  A    between atoms: C_29  and  O_30
REMARK   13  A    between atoms: O_30  and  C_31
REMARK                            x       y       z     vdW  Elec       q    Type
REMARK                         _______ _______ _______ _____ _____    ______ ____
ROOT
ATOM      1  C   UNL     1       2.141   4.802  19.850  0.00  0.00    +0.000 A 
ATOM      2  N   UNL     1       1.033   4.179  20.307  0.00  0.00    +0.000 NA
ATOM      3  C   UNL     1       0.621   3.026  19.742  0.00  0.00    +0.000 A 
ATOM      4  C   UNL     1       1.271   2.437  18.681  0.00  0.00    +0.000 A 
ATOM      5  C   UNL     1       2.414   3.063  18.194  0.00  0.00    +0.000 A 
ATOM      6  C   UNL     1       2.849   4.262  18.775  0.00  0.00    +0.000 A 
ENDROOT
BRANCH   6   7
ATOM      7  S   UNL     1       4.361   4.972  18.202  0.00  0.00    +0.000 S 
ATOM      8  O   UNL     1       4.043   5.929  17.160  0.00  0.00    +0.000 OA
ATOM      9  O   UNL     1       5.130   5.403  19.353  0.00  0.00    +0.000 OA
BRANCH   7  10
ATOM     10  N   UNL     1       5.218   3.714  17.445  0.00  0.00    +0.000 N 
ATOM     11  H   UNL     1       4.603   2.901  17.380  0.00  0.00    +0.000 HD
BRANCH  10  12
ATOM     12  C   UNL     1       5.894   4.031  16.228  0.00  0.00    +0.000 A 
ATOM     13  C   UNL     1       6.994   4.877  16.287  0.00  0.00    +0.000 A 
ATOM     14  C   UNL     1       7.625   5.276  15.110  0.00  0.00    +0.000 A 
ATOM     15  C   UNL     1       7.164   4.836  13.858  0.00  0.00    +0.000 A 
ATOM     16  C   UNL     1       7.871   5.318  12.620  0.00  0.00    +0.000 C 
ATOM     17  C   UNL     1       6.057   3.965  13.799  0.00  0.00    +0.000 A 
ATOM     18  C   UNL     1       5.513   3.418  12.505  0.00  0.00    +0.000 C 
ATOM     19  C   UNL     1       5.429   3.570  14.997  0.00  0.00    +0.000 A 
ENDBRANCH  10  12
ENDBRANCH   7  10
ENDBRANCH   6   7
BRANCH   1  20
ATOM     20  N   UNL     1       2.501   6.019  20.441  0.00  0.00    +0.000 N 
ATOM     21  H   UNL     1       3.066   5.887  21.281  0.00  0.00    +0.000 HD
BRANCH  20  24
ATOM     22  C   UNL     1       1.392   9.222  18.954  0.00  0.00    +0.000 A 
ATOM     23  C   UNL     1       2.138   8.067  19.234  0.00  0.00    +0.000 A 
ATOM     24  C   UNL     1       1.882   7.279  20.355  0.00  0.00    +0.000 A 
ATOM     25  C   UNL     1       0.948   7.754  21.276  0.00  0.00    +0.000 A 
ATOM     26  C   UNL     1       0.233   8.941  21.056  0.00  0.00    +0.000 A 
ATOM     27  C   UNL     1       0.430   9.683  19.875  0.00  0.00    +0.000 A 
BRANCH  22  29
ATOM     28  C   UNL     1       2.376  11.136  17.958  0.00  0.00    +0.000 C 
ATOM     29  O   UNL     1       1.630   9.927  17.801  0.00  0.00    +0.000 OA
ENDBRANCH  22  29
BRANCH  26  30
ATOM     30  O   UNL     1      -0.604   9.258  22.101  0.00  0.00    +0.000 OA
ATOM     31  C   UNL     1       0.016   9.640  23.321  0.00  0.00    +0.000 C 
ENDBRANCH  26  30
BRANCH  27  32
ATOM     32  O   UNL     1      -0.309  10.831  19.751  0.00  0.00    +0.000 OA
ATOM     33  C   UNL     1      -1.522  10.781  19.013  0.00  0.00    +0.000 C 
ENDBRANCH  27  32
ENDBRANCH  20  24
ENDBRANCH   1  20
TORSDOF 8
ENDMDL
MODEL 2
REMARK VINA RESULT:      -8.1      0.935      2.269
REMARK  Name = 
REMARK  13 active torsions:
REMARK  status: ('A' for Active; 'I' for Inactive)
REMARK    1  A    between atoms: C_1  and  O_2
REMARK    2  A    between atoms: O_2  and  C_3
REMARK    3  A    between atoms: C_5  and  N_6
REMARK    4  A    between atoms: N_6  and  C_7
REMARK    5  A    between atoms: C_12  and  S_13
REMARK    6  A    between atoms: S_13  and  N_16
REMARK    7  A    between atoms: N_16  and  C_17
REMARK    8  A    between atoms: C_20  and  C_21
REMARK    9  A    between atoms: C_22  and  C_23
REMARK   10  A    between atoms: C_26  and  O_27
REMARK   11  A    between atoms: O_27  and  C_28
REMARK   12  A    between atoms: C_29  and  O_30
REMARK   13  A    between atoms: O_30  and  C_31
REMARK                            x       y       z     vdW  Elec       q    Type
REMARK                         _______ _______ _______ _____ _____    ______ ____
ROOT
ATOM      1  C   UNL     1       2.363   5.347  19.950  0.00  0.00    +0.000 A 
ATOM      2  N   UNL     1       1.259   4.872  20.568  0.00  0.00    +0.000 NA
ATOM      3  C   UNL     1       0.872   3.595  20.378  0.00  0.00    +0.000 A 
ATOM      4  C   UNL     1       1.545   2.722  19.553  0.00  0.00    +0.000 A 
ATOM      5  C   UNL     1       2.684   3.191  18.907  0.00  0.00    +0.000 A 
ATOM      6  C   UNL     1       3.093   4.518  19.098  0.00  0.00    +0.000 A 
ENDROOT
BRANCH   6   7
ATOM      7  S   UNL     1       4.601   5.047  18.347  0.00  0.00    +0.000 S 
ATOM      8  O   UNL     1       4.288   6.103  17.402  0.00  0.00    +0.000 OA
ATOM      9  O   UNL     1       5.572   5.297  19.395  0.00  0.00    +0.000 OA
BRANCH   7  10
ATOM     10  N   UNL     1       5.157   3.734  17.423  0.00  0.00    +0.000 N 
ATOM     11  H   UNL     1       4.386   3.075  17.305  0.00  0.00    +0.000 HD
BRANCH  10  12
ATOM     12  C   UNL     1       5.851   4.039  16.214  0.00  0.00    +0.000 A 
ATOM     13  C   UNL     1       6.963   4.869  16.283  0.00  0.00    +0.000 A 
ATOM     14  C   UNL     1       7.613   5.257  15.113  0.00  0.00    +0.000 A 
ATOM     15  C   UNL     1       7.160   4.822  13.857  0.00  0.00    +0.000 A 
ATOM     16  C   UNL     1       7.887   5.293  12.626  0.00  0.00    +0.000 C 
ATOM     17  C   UNL     1       6.041   3.967  13.786  0.00  0.00    +0.000 A 
ATOM     18  C   UNL     1       5.503   3.427  12.487  0.00  0.00    +0.000 C 
ATOM     19  C   UNL     1       5.393   3.583  14.978  0.00  0.00    +0.000 A 
ENDBRANCH  10  12
ENDBRANCH   7  10
ENDBRANCH   6   7
BRANCH   1  20
ATOM     20  N   UNL     1       2.696   6.692  20.145  0.00  0.00    +0.000 N 
ATOM     21  H   UNL     1       3.593   6.803  20.621  0.00  0.00    +0.000 HD
BRANCH  20  24
ATOM     22  C   UNL     1       0.904   9.568  21.635  0.00  0.00    +0.000 A 
ATOM     23  C   UNL     1       1.528   8.322  21.473  0.00  0.00    +0.000 A 
ATOM     24  C   UNL     1       1.864   7.825  20.215  0.00  0.00    +0.000 A 
ATOM     25  C   UNL     1       1.430   8.544  19.102  0.00  0.00    +0.000 A 
ATOM     26  C   UNL     1       0.745   9.762  19.231  0.00  0.00    +0.000 A 
ATOM     27  C   UNL     1       0.491  10.304  20.506  0.00  0.00    +0.000 A 
BRANCH  22  29
ATOM     28  C   UNL     1      -0.681   9.882  23.372  0.00  0.00    +0.000 C 
ATOM     29  O   UNL     1       0.656  10.050  22.896  0.00  0.00    +0.000 OA
ENDBRANCH  22  29
BRANCH  26  30
ATOM     30  O   UNL     1       0.366  10.289  18.019  0.00  0.00    +0.000 OA
ATOM     31  C   UNL     1      -0.989  10.095  17.635  0.00  0.00    +0.000 C 
ENDBRANCH  26  30
BRANCH  27  32
ATOM     32  O   UNL     1      -0.189  11.494  20.534  0.00  0.00    +0.000 OA
ATOM     33  C   UNL     1       0.556  12.699  20.642  0.00  0.00    +0.000 C 
ENDBRANCH  27  32
ENDBRANCH  20  24
ENDBRANCH   1  20
TORSDOF 8
ENDMDL
MODEL 3
REMARK VINA RESULT:      -7.6      1.059      1.186
REMARK  Name = 
REMARK  13 active torsions:
REMARK  status: ('A' for Active; 'I' for Inactive)
REMARK    1  A    between atoms: C_1  and  O_2
REMARK    2  A    between atoms: O_2  and  C_3
REMARK    3  A    between atoms: C_5  and  N_6
REMARK    4  A    between atoms: N_6  and  C_7
REMARK    5  A    between atoms: C_12  and  S_13
REMARK    6  A    between atoms: S_13  and  N_16
REMARK    7  A    between atoms: N_16  and  C_17
REMARK    8  A    between atoms: C_20  and  C_21
REMARK    9  A    between atoms: C_22  and  C_23
REMARK   10  A    between atoms: C_26  and  O_27
REMARK   11  A    between atoms: O_27  and  C_28
REMARK   12  A    between atoms: C_29  and  O_30
REMARK   13  A    between atoms: O_30  and  C_31
REMARK                            x       y       z     vdW  Elec       q    Type
REMARK                         _______ _______ _______ _____ _____    ______ ____
ROOT
ATOM      1  C   UNL     1       2.586   4.879  20.210  0.00  0.00    +0.000 A 
ATOM      2  N   UNL     1       2.192   4.566  21.464  0.00  0.00    +0.000 NA
ATOM      3  C   UNL     1       1.821   3.305  21.764  0.00  0.00    +0.000 A 
ATOM      4  C   UNL     1       1.803   2.289  20.836  0.00  0.00    +0.000 A 
ATOM      5  C   UNL     1       2.204   2.590  19.538  0.00  0.00    +0.000 A 
ATOM      6  C   UNL     1       2.590   3.898  19.218  0.00  0.00    +0.000 A 
ENDROOT
BRANCH   6   7
ATOM      7  S   UNL     1       3.195   4.220  17.590  0.00  0.00    +0.000 S 
ATOM      8  O   UNL     1       2.405   3.442  16.654  0.00  0.00    +0.000 OA
ATOM      9  O   UNL     1       3.295   5.655  17.414  0.00  0.00    +0.000 OA
BRANCH   7  10
ATOM     10  N   UNL     1       4.766   3.576  17.533  0.00  0.00    +0.000 N 
ATOM     11  H   UNL     1       4.707   2.569  17.690  0.00  0.00    +0.000 HD
BRANCH  10  12
ATOM     12  C   UNL     1       5.578   3.943  16.417  0.00  0.00    +0.000 A 
ATOM     13  C   UNL     1       6.662   4.784  16.639  0.00  0.00    +0.000 A 
ATOM     14  C   UNL     1       7.424   5.231  15.561  0.00  0.00    +0.000 A 
ATOM     15  C   UNL     1       7.112   4.847  14.247  0.00  0.00    +0.000 A 
ATOM     16  C   UNL     1       7.955   5.381  13.121  0.00  0.00    +0.000 C 
ATOM     17  C   UNL     1       6.021   3.982  14.022  0.00  0.00    +0.000 A 
ATOM     18  C   UNL     1       5.631   3.494  12.652  0.00  0.00    +0.000 C 
ATOM     19  C   UNL     1       5.259   3.538  15.122  0.00  0.00    +0.000 A 
ENDBRANCH  10  12
ENDBRANCH   7  10
ENDBRANCH   6   7
BRANCH   1  20
ATOM     20  N   UNL     1       2.918   6.212  19.940  0.00  0.00    +0.000 N 
ATOM     21  H   UNL     1       3.922   6.380  20.002  0.00  0.00    +0.000 HD
BRANCH  20  24
ATOM     22  C   UNL     1       1.282   9.376  18.931  0.00  0.00    +0.000 A 
ATOM     23  C   UNL     1       2.194   8.313  19.020  0.00  0.00    +0.000 A 
ATOM     24  C   UNL     1       2.132   7.375  20.049  0.00  0.00    +0.000 A 
ATOM     25  C   UNL     1       1.218   7.605  21.076  0.00  0.00    +0.000 A 
ATOM     26  C   UNL     1       0.337   8.696  21.049  0.00  0.00    +0.000 A 
ATOM     27  C   UNL     1       0.342   9.589  19.959  0.00  0.00    +0.000 A 
BRANCH  22  29
ATOM     28  C   UNL     1       2.255  11.322  17.986  0.00  0.00    +0.000 C 
ATOM     29  O   UNL     1       1.335  10.235  17.862  0.00  0.00    +0.000 OA
ENDBRANCH  22  29
BRANCH  26  30
ATOM     30  O   UNL     1      -0.451   8.771  22.174  0.00  0.00    +0.000 OA
ATOM     31  C   UNL     1       0.099   9.452  23.294  0.00  0.00    +0.000 C 
ENDBRANCH  26  30
BRANCH  27  32
ATOM     32  O   UNL     1      -0.550  10.628  20.023  0.00  0.00    +0.000 OA
ATOM     33  C   UNL     1      -0.124  11.853  20.603  0.00  0.00    +0.000 C 
ENDBRANCH  27  32
ENDBRANCH  20  24
ENDBRANCH   1  20
TORSDOF 8
ENDMDL
MODEL 4
REMARK VINA RESULT:      -7.4      1.172      1.198
REMARK  Name = 
REMARK  13 active torsions:
REMARK  status: ('A' for Active; 'I' for Inactive)
REMARK    1  A    between atoms: C_1  and  O_2
REMARK    2  A    between atoms: O_2  and  C_3
REMARK    3  A    between atoms: C_5  and  N_6
REMARK    4  A    between atoms: N_6  and  C_7
REMARK    5  A    between atoms: C_12  and  S_13
REMARK    6  A    between atoms: S_13  and  N_16
REMARK    7  A    between atoms: N_16  and  C_17
REMARK    8  A    between atoms: C_20  and  C_21
REMARK    9  A    between atoms: C_22  and  C_23
REMARK   10  A    between atoms: C_26  and  O_27
REMARK   11  A    between atoms: O_27  and  C_28
REMARK   12  A    between atoms: C_29  and  O_30
REMARK   13  A    between atoms: O_30  and  C_31
REMARK                            x       y       z     vdW  Elec       q    Type
REMARK                         _______ _______ _______ _____ _____    ______ ____
ROOT
ATOM      1  C   UNL     1       2.214   5.328  19.775  0.00  0.00    +0.000 A 
ATOM      2  N   UNL     1       1.218   4.868  20.563  0.00  0.00    +0.000 NA
ATOM      3  C   UNL     1       1.325   3.663  21.158  0.00  0.00    +0.000 A 
ATOM      4  C   UNL     1       2.416   2.840  20.992  0.00  0.00    +0.000 A 
ATOM      5  C   UNL     1       3.454   3.294  20.184  0.00  0.00    +0.000 A 
ATOM      6  C   UNL     1       3.349   4.545  19.561  0.00  0.00    +0.000 A 
ENDROOT
BRANCH   6   7
ATOM      7  S   UNL     1       4.729   5.135  18.630  0.00  0.00    +0.000 S 
ATOM      8  O   UNL     1       4.238   6.090  17.653  0.00  0.00    +0.000 OA
ATOM      9  O   UNL     1       5.769   5.538  19.556  0.00  0.00    +0.000 OA
BRANCH   7  10
ATOM     10  N   UNL     1       5.306   3.806  17.743  0.00  0.00    +0.000 N 
ATOM     11  H   UNL     1       4.565   3.104  17.696  0.00  0.00    +0.000 HD
BRANCH  10  12
ATOM     12  C   UNL     1       5.924   4.082  16.486  0.00  0.00    +0.000 A 
ATOM     13  C   UNL     1       7.108   4.810  16.480  0.00  0.00    +0.000 A 
ATOM     14  C   UNL     1       7.692   5.172  15.267  0.00  0.00    +0.000 A 
ATOM     15  C   UNL     1       7.101   4.813  14.045  0.00  0.00    +0.000 A 
ATOM     16  C   UNL     1       7.764   5.252  12.768  0.00  0.00    +0.000 C 
ATOM     17  C   UNL     1       5.908   4.061  14.051  0.00  0.00    +0.000 A 
ATOM     18  C   UNL     1       5.220   3.606  12.791  0.00  0.00    +0.000 C 
ATOM     19  C   UNL     1       5.328   3.703  15.284  0.00  0.00    +0.000 A 
ENDBRANCH  10  12
ENDBRANCH   7  10
ENDBRANCH   6   7
BRANCH   1  20
ATOM     20  N   UNL     1       2.034   6.565  19.144  0.00  0.00    +0.000 N 
ATOM     21  H   UNL     1       2.439   6.583  18.207  0.00  0.00    +0.000 HD
BRANCH  20  24
ATOM     22  C   UNL     1       1.285  10.187  19.293  0.00  0.00    +0.000 A 
ATOM     23  C   UNL     1       1.723   8.931  18.846  0.00  0.00    +0.000 A 
ATOM     24  C   UNL     1       1.823   7.838  19.705  0.00  0.00    +0.000 A 
ATOM     25  C   UNL     1       1.609   8.066  21.064  0.00  0.00    +0.000 A 
ATOM     26  C   UNL     1       1.233   9.327  21.550  0.00  0.00    +0.000 A 
ATOM     27  C   UNL     1       1.044  10.405  20.664  0.00  0.00    +0.000 A 
BRANCH  22  29
ATOM     28  C   UNL     1       2.272  12.063  18.228  0.00  0.00    +0.000 C 
ATOM     29  O   UNL     1       1.133  11.216  18.397  0.00  0.00    +0.000 OA
ENDBRANCH  22  29
BRANCH  26  30
ATOM     30  O   UNL     1       1.116   9.355  22.921  0.00  0.00    +0.000 OA
ATOM     31  C   UNL     1      -0.204   9.372  23.447  0.00  0.00    +0.000 C 
ENDBRANCH  26  30
BRANCH  27  32
ATOM     32  O   UNL     1       0.684  11.600  21.231  0.00  0.00    +0.000 OA
ATOM     33  C   UNL     1      -0.665  12.030  21.109  0.00  0.00    +0.000 C 
ENDBRANCH  27  32
ENDBRANCH  20  24
ENDBRANCH   1  20
TORSDOF 8
ENDMDL
MODEL 5
REMARK VINA RESULT:      -7.2      2.165      3.498
REMARK  Name = 
REMARK  13 active torsions:
REMARK  status: ('A' for Active; 'I' for Inactive)
REMARK    1  A    between atoms: C_1  and  O_2
REMARK    2  A    between atoms: O_2  and  C_3
REMARK    3  A    between atoms: C_5  and  N_6
REMARK    4  A    between atoms: N_6  and  C_7
REMARK    5  A    between atoms: C_12  and  S_13
REMARK    6  A    between atoms: S_13  and  N_16
REMARK    7  A    between atoms: N_16  and  C_17
REMARK    8  A    between atoms: C_20  and  C_21
REMARK    9  A    between atoms: C_22  and  C_23
REMARK   10  A    between atoms: C_26  and  O_27
REMARK   11  A    between atoms: O_27  and  C_28
REMARK   12  A    between atoms: C_29  and  O_30
REMARK   13  A    between atoms: O_30  and  C_31
REMARK                            x       y       z     vdW  Elec       q    Type
REMARK                         _______ _______ _______ _____ _____    ______ ____
ROOT
ATOM      1  C   UNL     1       2.528   4.896  20.267  0.00  0.00    +0.000 A 
ATOM      2  N   UNL     1       2.365   4.624  21.581  0.00  0.00    +0.000 NA
ATOM      3  C   UNL     1       2.031   3.380  21.980  0.00  0.00    +0.000 A 
ATOM      4  C   UNL     1       1.823   2.342  21.102  0.00  0.00    +0.000 A 
ATOM      5  C   UNL     1       1.985   2.600  19.744  0.00  0.00    +0.000 A 
ATOM      6  C   UNL     1       2.330   3.890  19.320  0.00  0.00    +0.000 A 
ENDROOT
BRANCH   6   7
ATOM      7  S   UNL     1       2.631   4.155  17.600  0.00  0.00    +0.000 S 
ATOM      8  O   UNL     1       1.895   3.153  16.854  0.00  0.00    +0.000 OA
ATOM      9  O   UNL     1       2.416   5.559  17.309  0.00  0.00    +0.000 OA
BRANCH   7  10
ATOM     10  N   UNL     1       4.278   3.817  17.350  0.00  0.00    +0.000 N 
ATOM     11  H   UNL     1       4.375   3.337  16.454  0.00  0.00    +0.000 HD
BRANCH  10  12
ATOM     12  C   UNL     1       5.197   4.894  17.534  0.00  0.00    +0.000 A 
ATOM     13  C   UNL     1       5.146   5.962  16.646  0.00  0.00    +0.000 A 
ATOM     14  C   UNL     1       6.084   6.989  16.743  0.00  0.00    +0.000 A 
ATOM     15  C   UNL     1       7.085   6.961  17.727  0.00  0.00    +0.000 A 
ATOM     16  C   UNL     1       8.085   8.085  17.769  0.00  0.00    +0.000 C 
ATOM     17  C   UNL     1       7.128   5.885  18.637  0.00  0.00    +0.000 A 
ATOM     18  C   UNL     1       8.147   5.787  19.743  0.00  0.00    +0.000 C 
ATOM     19  C   UNL     1       6.174   4.854  18.527  0.00  0.00    +0.000 A 
ENDBRANCH  10  12
ENDBRANCH   7  10
ENDBRANCH   6   7
BRANCH   1  20
ATOM     20  N   UNL     1       2.830   6.212  19.902  0.00  0.00    +0.000 N 
ATOM     21  H   UNL     1       3.835   6.371  19.825  0.00  0.00    +0.000 HD
BRANCH  20  24
ATOM     22  C   UNL     1       1.261   9.096  21.613  0.00  0.00    +0.000 A 
ATOM     23  C   UNL     1       1.800   7.826  21.359  0.00  0.00    +0.000 A 
ATOM     24  C   UNL     1       2.073   7.388  20.064  0.00  0.00    +0.000 A 
ATOM     25  C   UNL     1       1.658   8.199  19.009  0.00  0.00    +0.000 A 
ATOM     26  C   UNL     1       1.055   9.447  19.231  0.00  0.00    +0.000 A 
ATOM     27  C   UNL     1       0.867   9.924  20.543  0.00  0.00    +0.000 A 
BRANCH  22  29
ATOM     28  C   UNL     1      -0.278   9.527  23.366  0.00  0.00    +0.000 C 
ATOM     29  O   UNL     1       1.075   9.513  22.907  0.00  0.00    +0.000 OA
ENDBRANCH  22  29
BRANCH  26  30
ATOM     30  O   UNL     1       0.679  10.070  18.064  0.00  0.00    +0.000 OA
ATOM     31  C   UNL     1      -0.695   9.989  17.711  0.00  0.00    +0.000 C 
ENDBRANCH  26  30
BRANCH  27  32
ATOM     32  O   UNL     1       0.265  11.150  20.661  0.00  0.00    +0.000 OA
ATOM     33  C   UNL     1       1.084  12.311  20.664  0.00  0.00    +0.000 C 
ENDBRANCH  27  32
ENDBRANCH  20  24
ENDBRANCH   1  20
TORSDOF 8
ENDMDL
MODEL 6
REMARK VINA RESULT:      -7.2      1.040      2.439
REMARK  Name = 
REMARK  13 active torsions:
REMARK  status: ('A' for Active; 'I' for Inactive)
REMARK    1  A    between atoms: C_1  and  O_2
REMARK    2  A    between atoms: O_2  and  C_3
REMARK    3  A    between atoms: C_5  and  N_6
REMARK    4  A    between atoms: N_6  and  C_7
REMARK    5  A    between atoms: C_12  and  S_13
REMARK    6  A    between atoms: S_13  and  N_16
REMARK    7  A    between atoms: N_16  and  C_17
REMARK    8  A    between atoms: C_20  and  C_21
REMARK    9  A    between atoms: C_22  and  C_23
REMARK   10  A    between atoms: C_26  and  O_27
REMARK   11  A    between atoms: O_27  and  C_28
REMARK   12  A    between atoms: C_29  and  O_30
REMARK   13  A    between atoms: O_30  and  C_31
REMARK                            x       y       z     vdW  Elec       q    Type
REMARK                         _______ _______ _______ _____ _____    ______ ____
ROOT
ATOM      1  C   UNL     1       2.552   5.005  20.240  0.00  0.00    +0.000 A 
ATOM      2  N   UNL     1       1.442   4.588  20.887  0.00  0.00    +0.000 NA
ATOM      3  C   UNL     1       1.128   3.277  20.921  0.00  0.00    +0.000 A 
ATOM      4  C   UNL     1       1.886   2.309  20.302  0.00  0.00    +0.000 A 
ATOM      5  C   UNL     1       3.033   2.717  19.629  0.00  0.00    +0.000 A 
ATOM      6  C   UNL     1       3.366   4.078  19.588  0.00  0.00    +0.000 A 
ENDROOT
BRANCH   6   7
ATOM      7  S   UNL     1       4.884   4.547  18.818  0.00  0.00    +0.000 S 
ATOM      8  O   UNL     1       5.502   5.578  19.630  0.00  0.00    +0.000 OA
ATOM      9  O   UNL     1       5.631   3.345  18.507  0.00  0.00    +0.000 OA
BRANCH   7  10
ATOM     10  N   UNL     1       4.460   5.292  17.350  0.00  0.00    +0.000 N 
ATOM     11  H   UNL     1       4.206   6.262  17.544  0.00  0.00    +0.000 HD
BRANCH  10  12
ATOM     12  C   UNL     1       5.366   5.136  16.258  0.00  0.00    +0.000 A 
ATOM     13  C   UNL     1       6.576   5.819  16.302  0.00  0.00    +0.000 A 
ATOM     14  C   UNL     1       7.445   5.759  15.215  0.00  0.00    +0.000 A 
ATOM     15  C   UNL     1       7.118   5.017  14.068  0.00  0.00    +0.000 A 
ATOM     16  C   UNL     1       8.086   5.008  12.916  0.00  0.00    +0.000 C 
ATOM     17  C   UNL     1       5.897   4.312  14.028  0.00  0.00    +0.000 A 
ATOM     18  C   UNL     1       5.477   3.468  12.854  0.00  0.00    +0.000 C 
ATOM     19  C   UNL     1       5.027   4.382  15.135  0.00  0.00    +0.000 A 
ENDBRANCH  10  12
ENDBRANCH   7  10
ENDBRANCH   6   7
BRANCH   1  20
ATOM     20  N   UNL     1       2.809   6.380  20.197  0.00  0.00    +0.000 N 
ATOM     21  H   UNL     1       3.706   6.619  20.621  0.00  0.00    +0.000 HD
BRANCH  20  24
ATOM     22  C   UNL     1       0.229   8.824  21.232  0.00  0.00    +0.000 A 
ATOM     23  C   UNL     1       0.994   7.653  21.131  0.00  0.00    +0.000 A 
ATOM     24  C   UNL     1       1.912   7.460  20.100  0.00  0.00    +0.000 A 
ATOM     25  C   UNL     1       1.946   8.412  19.081  0.00  0.00    +0.000 A 
ATOM     26  C   UNL     1       1.144   9.563  19.121  0.00  0.00    +0.000 A 
ATOM     27  C   UNL     1       0.286   9.797  20.213  0.00  0.00    +0.000 A 
BRANCH  22  29
ATOM     28  C   UNL     1      -0.013   9.573  23.469  0.00  0.00    +0.000 C 
ATOM     29  O   UNL     1      -0.611   9.002  22.303  0.00  0.00    +0.000 OA
ENDBRANCH  22  29
BRANCH  26  30
ATOM     30  O   UNL     1       1.291  10.352  18.003  0.00  0.00    +0.000 OA
ATOM     31  C   UNL     1       2.313  11.338  18.049  0.00  0.00    +0.000 C 
ENDBRANCH  26  30
BRANCH  27  32
ATOM     32  O   UNL     1      -0.463  10.944  20.161  0.00  0.00    +0.000 OA
ATOM     33  C   UNL     1       0.020  12.101  20.829  0.00  0.00    +0.000 C 
ENDBRANCH  27  32
ENDBRANCH  20  24
ENDBRANCH   1  20
TORSDOF 8
ENDMDL
MODEL 7
REMARK VINA RESULT:      -7.1      2.305      7.784
REMARK  Name = 
REMARK  13 active torsions:
REMARK  status: ('A' for Active; 'I' for Inactive)
REMARK    1  A    between atoms: C_1  and  O_2
REMARK    2  A    between atoms: O_2  and  C_3
REMARK    3  A    between atoms: C_5  and  N_6
REMARK    4  A    between atoms: N_6  and  C_7
REMARK    5  A    between atoms: C_12  and  S_13
REMARK    6  A    between atoms: S_13  and  N_16
REMARK    7  A    between atoms: N_16  and  C_17
REMARK    8  A    between atoms: C_20  and  C_21
REMARK    9  A    between atoms: C_22  and  C_23
REMARK   10  A    between atoms: C_26  and  O_27
REMARK   11  A    between atoms: O_27  and  C_28
REMARK   12  A    between atoms: C_29  and  O_30
REMARK   13  A    between atoms: O_30  and  C_31
REMARK                            x       y       z     vdW  Elec       q    Type
REMARK                         _______ _______ _______ _____ _____    ______ ____
ROOT
ATOM      1  C   UNL     1       3.839   3.288  18.619  0.00  0.00    +0.000 A 
ATOM      2  N   UNL     1       4.629   2.209  18.812  0.00  0.00    +0.000 NA
ATOM      3  C   UNL     1       4.605   1.553  19.990  0.00  0.00    +0.000 A 
ATOM      4  C   UNL     1       3.811   1.939  21.046  0.00  0.00    +0.000 A 
ATOM      5  C   UNL     1       2.990   3.048  20.868  0.00  0.00    +0.000 A 
ATOM      6  C   UNL     1       3.010   3.736  19.648  0.00  0.00    +0.000 A 
ENDROOT
BRANCH   6   7
ATOM      7  S   UNL     1       1.879   5.073  19.421  0.00  0.00    +0.000 S 
ATOM      8  O   UNL     1       1.450   5.070  18.034  0.00  0.00    +0.000 OA
ATOM      9  O   UNL     1       0.882   5.014  20.472  0.00  0.00    +0.000 OA
BRANCH   7  10
ATOM     10  N   UNL     1       2.779   6.498  19.635  0.00  0.00    +0.000 N 
ATOM     11  H   UNL     1       3.643   6.416  19.097  0.00  0.00    +0.000 HD
BRANCH  10  12
ATOM     12  C   UNL     1       2.092   7.735  19.445  0.00  0.00    +0.000 A 
ATOM     13  C   UNL     1       2.205   8.369  18.214  0.00  0.00    +0.000 A 
ATOM     14  C   UNL     1       1.620   9.619  18.022  0.00  0.00    +0.000 A 
ATOM     15  C   UNL     1       0.915  10.253  19.058  0.00  0.00    +0.000 A 
ATOM     16  C   UNL     1       0.324  11.613  18.800  0.00  0.00    +0.000 C 
ATOM     17  C   UNL     1       0.786   9.603  20.303  0.00  0.00    +0.000 A 
ATOM     18  C   UNL     1       0.023  10.192  21.460  0.00  0.00    +0.000 C 
ATOM     19  C   UNL     1       1.384   8.340  20.483  0.00  0.00    +0.000 A 
ENDBRANCH  10  12
ENDBRANCH   7  10
ENDBRANCH   6   7
BRANCH   1  20
ATOM     20  N   UNL     1       3.934   3.960  17.395  0.00  0.00    +0.000 N 
ATOM     21  H   UNL     1       3.065   3.917  16.861  0.00  0.00    +0.000 HD
BRANCH  20  24
ATOM     22  C   UNL     1       6.227   3.965  14.488  0.00  0.00    +0.000 A 
ATOM     23  C   UNL     1       5.262   3.570  15.427  0.00  0.00    +0.000 A 
ATOM     24  C   UNL     1       5.070   4.264  16.621  0.00  0.00    +0.000 A 
ATOM     25  C   UNL     1       5.969   5.286  16.924  0.00  0.00    +0.000 A 
ATOM     26  C   UNL     1       6.987   5.661  16.033  0.00  0.00    +0.000 A 
ATOM     27  C   UNL     1       7.116   5.016  14.787  0.00  0.00    +0.000 A 
BRANCH  22  29
ATOM     28  C   UNL     1       5.190   3.370  12.439  0.00  0.00    +0.000 C 
ATOM     29  O   UNL     1       6.333   3.296  13.294  0.00  0.00    +0.000 OA
ENDBRANCH  22  29
BRANCH  26  30
ATOM     30  O   UNL     1       7.792   6.656  16.536  0.00  0.00    +0.000 OA
ATOM     31  C   UNL     1       7.386   7.247  17.762  0.00  0.00    +0.000 C 
ENDBRANCH  26  30
BRANCH  27  32
ATOM     32  O   UNL     1       8.143   5.446  13.987  0.00  0.00    +0.000 OA
ATOM     33  C   UNL     1       7.879   5.679  12.611  0.00  0.00    +0.000 C 
ENDBRANCH  27  32
ENDBRANCH  20  24
ENDBRANCH   1  20
TORSDOF 8
ENDMDL
MODEL 8
REMARK VINA RESULT:      -7.1      1.193      2.535
REMARK  Name = 
REMARK  13 active torsions:
REMARK  status: ('A' for Active; 'I' for Inactive)
REMARK    1  A    between atoms: C_1  and  O_2
REMARK    2  A    between atoms: O_2  and  C_3
REMARK    3  A    between atoms: C_5  and  N_6
REMARK    4  A    between atoms: N_6  and  C_7
REMARK    5  A    between atoms: C_12  and  S_13
REMARK    6  A    between atoms: S_13  and  N_16
REMARK    7  A    between atoms: N_16  and  C_17
REMARK    8  A    between atoms: C_20  and  C_21
REMARK    9  A    between atoms: C_22  and  C_23
REMARK   10  A    between atoms: C_26  and  O_27
REMARK   11  A    between atoms: O_27  and  C_28
REMARK   12  A    between atoms: C_29  and  O_30
REMARK   13  A    between atoms: O_30  and  C_31
REMARK                            x       y       z     vdW  Elec       q    Type
REMARK                         _______ _______ _______ _____ _____    ______ ____
ROOT
ATOM      1  C   UNL     1       2.556   4.902  20.197  0.00  0.00    +0.000 A 
ATOM      2  N   UNL     1       2.157   4.598  21.452  0.00  0.00    +0.000 NA
ATOM      3  C   UNL     1       1.760   3.346  21.753  0.00  0.00    +0.000 A 
ATOM      4  C   UNL     1       1.720   2.329  20.826  0.00  0.00    +0.000 A 
ATOM      5  C   UNL     1       2.126   2.620  19.527  0.00  0.00    +0.000 A 
ATOM      6  C   UNL     1       2.538   3.920  19.206  0.00  0.00    +0.000 A 
ENDROOT
BRANCH   6   7
ATOM      7  S   UNL     1       3.148   4.227  17.577  0.00  0.00    +0.000 S 
ATOM      8  O   UNL     1       2.342   3.465  16.643  0.00  0.00    +0.000 OA
ATOM      9  O   UNL     1       3.277   5.660  17.399  0.00  0.00    +0.000 OA
BRANCH   7  10
ATOM     10  N   UNL     1       4.706   3.552  17.519  0.00  0.00    +0.000 N 
ATOM     11  H   UNL     1       4.624   2.542  17.645  0.00  0.00    +0.000 HD
BRANCH  10  12
ATOM     12  C   UNL     1       5.539   3.935  16.424  0.00  0.00    +0.000 A 
ATOM     13  C   UNL     1       6.596   4.802  16.672  0.00  0.00    +0.000 A 
ATOM     14  C   UNL     1       7.376   5.264  15.614  0.00  0.00    +0.000 A 
ATOM     15  C   UNL     1       7.110   4.867  14.293  0.00  0.00    +0.000 A 
ATOM     16  C   UNL     1       7.971   5.417  13.188  0.00  0.00    +0.000 C 
ATOM     17  C   UNL     1       6.047   3.975  14.043  0.00  0.00    +0.000 A 
ATOM     18  C   UNL     1       5.707   3.472  12.664  0.00  0.00    +0.000 C 
ATOM     19  C   UNL     1       5.266   3.517  15.123  0.00  0.00    +0.000 A 
ENDBRANCH  10  12
ENDBRANCH   7  10
ENDBRANCH   6   7
BRANCH   1  20
ATOM     20  N   UNL     1       2.916   6.227  19.925  0.00  0.00    +0.000 N 
ATOM     21  H   UNL     1       3.925   6.370  19.969  0.00  0.00    +0.000 HD
BRANCH  20  24
ATOM     22  C   UNL     1       1.157   9.037  21.573  0.00  0.00    +0.000 A 
ATOM     23  C   UNL     1       1.709   7.772  21.319  0.00  0.00    +0.000 A 
ATOM     24  C   UNL     1       2.161   7.408  20.052  0.00  0.00    +0.000 A 
ATOM     25  C   UNL     1       1.917   8.293  19.002  0.00  0.00    +0.000 A 
ATOM     26  C   UNL     1       1.307   9.539  19.214  0.00  0.00    +0.000 A 
ATOM     27  C   UNL     1       0.937   9.939  20.513  0.00  0.00    +0.000 A 
BRANCH  22  29
ATOM     28  C   UNL     1      -0.616   9.426  23.101  0.00  0.00    +0.000 C 
ATOM     29  O   UNL     1       0.791   9.378  22.852  0.00  0.00    +0.000 OA
ENDBRANCH  22  29
BRANCH  26  30
ATOM     30  O   UNL     1       1.116  10.243  18.048  0.00  0.00    +0.000 OA
ATOM     31  C   UNL     1       2.162  11.119  17.653  0.00  0.00    +0.000 C 
ENDBRANCH  26  30
BRANCH  27  32
ATOM     32  O   UNL     1       0.342  11.169  20.622  0.00  0.00    +0.000 OA
ATOM     33  C   UNL     1       1.162  12.298  20.894  0.00  0.00    +0.000 C 
ENDBRANCH  27  32
ENDBRANCH  20  24
ENDBRANCH   1  20
TORSDOF 8
ENDMDL
MODEL 9
REMARK VINA RESULT:      -7.1      2.054      8.201
REMARK  Name = 
REMARK  13 active torsions:
REMARK  status: ('A' for Active; 'I' for Inactive)
REMARK    1  A    between atoms: C_1  and  O_2
REMARK    2  A    between atoms: O_2  and  C_3
REMARK    3  A    between atoms: C_5  and  N_6
REMARK    4  A    between atoms: N_6  and  C_7
REMARK    5  A    between atoms: C_12  and  S_13
REMARK    6  A    between atoms: S_13  and  N_16
REMARK    7  A    between atoms: N_16  and  C_17
REMARK    8  A    between atoms: C_20  and  C_21
REMARK    9  A    between atoms: C_22  and  C_23
REMARK   10  A    between atoms: C_26  and  O_27
REMARK   11  A    between atoms: O_27  and  C_28
REMARK   12  A    between atoms: C_29  and  O_30
REMARK   13  A    between atoms: O_30  and  C_31
REMARK                            x       y       z     vdW  Elec       q    Type
REMARK                         _______ _______ _______ _____ _____    ______ ____
ROOT
ATOM      1  C   UNL     1       3.585   3.503  17.931  0.00  0.00    +0.000 A 
ATOM      2  N   UNL     1       3.806   2.196  18.189  0.00  0.00    +0.000 NA
ATOM      3  C   UNL     1       3.646   1.713  19.437  0.00  0.00    +0.000 A 
ATOM      4  C   UNL     1       3.275   2.501  20.503  0.00  0.00    +0.000 A 
ATOM      5  C   UNL     1       3.043   3.852  20.261  0.00  0.00    +0.000 A 
ATOM      6  C   UNL     1       3.208   4.361  18.966  0.00  0.00    +0.000 A 
ENDROOT
BRANCH   6   7
ATOM      7  S   UNL     1       2.802   6.055  18.673  0.00  0.00    +0.000 S 
ATOM      8  O   UNL     1       3.972   6.710  18.119  0.00  0.00    +0.000 OA
ATOM      9  O   UNL     1       1.548   6.106  17.947  0.00  0.00    +0.000 OA
BRANCH   7  10
ATOM     10  N   UNL     1       2.548   6.752  20.202  0.00  0.00    +0.000 N 
ATOM     11  H   UNL     1       3.457   6.894  20.645  0.00  0.00    +0.000 HD
BRANCH  10  12
ATOM     12  C   UNL     1       1.689   7.891  20.261  0.00  0.00    +0.000 A 
ATOM     13  C   UNL     1       1.645   8.741  19.162  0.00  0.00    +0.000 A 
ATOM     14  C   UNL     1       0.884   9.907  19.219  0.00  0.00    +0.000 A 
ATOM     15  C   UNL     1       0.160  10.242  20.374  0.00  0.00    +0.000 A 
ATOM     16  C   UNL     1      -0.625  11.526  20.386  0.00  0.00    +0.000 C 
ATOM     17  C   UNL     1       0.192   9.372  21.484  0.00  0.00    +0.000 A 
ATOM     18  C   UNL     1      -0.576   9.634  22.753  0.00  0.00    +0.000 C 
ATOM     19  C   UNL     1       0.966   8.197  21.413  0.00  0.00    +0.000 A 
ENDBRANCH  10  12
ENDBRANCH   7  10
ENDBRANCH   6   7
BRANCH   1  20
ATOM     20  N   UNL     1       3.808   3.963  16.628  0.00  0.00    +0.000 N 
ATOM     21  H   UNL     1       3.047   3.715  15.995  0.00  0.00    +0.000 HD
BRANCH  20  24
ATOM     22  C   UNL     1       6.325   4.136  13.919  0.00  0.00    +0.000 A 
ATOM     23  C   UNL     1       5.267   3.704  14.734  0.00  0.00    +0.000 A 
ATOM     24  C   UNL     1       5.017   4.277  15.980  0.00  0.00    +0.000 A 
ATOM     25  C   UNL     1       5.942   5.203  16.460  0.00  0.00    +0.000 A 
ATOM     26  C   UNL     1       7.046   5.607  15.695  0.00  0.00    +0.000 A 
ATOM     27  C   UNL     1       7.242   5.093  14.399  0.00  0.00    +0.000 A 
BRANCH  22  29
ATOM     28  C   UNL     1       5.349   2.928  12.127  0.00  0.00    +0.000 C 
ATOM     29  O   UNL     1       6.491   3.593  12.669  0.00  0.00    +0.000 OA
ENDBRANCH  22  29
BRANCH  26  30
ATOM     30  O   UNL     1       7.861   6.492  16.364  0.00  0.00    +0.000 OA
ATOM     31  C   UNL     1       7.393   6.964  17.620  0.00  0.00    +0.000 C 
ENDBRANCH  26  30
BRANCH  27  32
ATOM     32  O   UNL     1       8.351   5.541  13.730  0.00  0.00    +0.000 OA
ATOM     33  C   UNL     1       8.226   5.875  12.354  0.00  0.00    +0.000 C 
ENDBRANCH  27  32
ENDBRANCH  20  24
ENDBRANCH   1  20
TORSDOF 8
ENDMDL
