MODEL 1
REMARK VINA RESULT:      -7.1      0.000      0.000
REMARK  Name = 
REMARK  5 active torsions:
REMARK  status: ('A' for Active; 'I' for Inactive)
REMARK    1  A    between atoms: N_1  and  C_2
REMARK    2  A    between atoms: C_10  and  C_11
REMARK    3  A    between atoms: C_17  and  S_18
REMARK    4  A    between atoms: S_18  and  N_19
REMARK    5  A    between atoms: C_24  and  C_25
REMARK                            x       y       z     vdW  Elec       q    Type
REMARK                         _______ _______ _______ _____ _____    ______ ____
ROOT
ATOM      1  C   UNL     1      -4.619  11.258  17.593  0.00  0.00    +0.000 C 
ATOM      2  N   UNL     1      -4.596  10.552  16.348  0.00  0.00    +0.000 N 
ATOM      3  C   UNL     1      -3.575  10.706  15.463  0.00  0.00    +0.000 C 
ATOM      4  S   UNL     1      -3.701  10.175  13.898  0.00  0.00    +0.000 S 
ATOM      5  N   UNL     1      -2.430  11.286  15.930  0.00  0.00    +0.000 N 
ATOM      6  N   UNL     1      -2.222  11.676  17.213  0.00  0.00    +0.000 NA
ATOM      7  C   UNL     1      -3.205  11.640  18.055  0.00  0.00    +0.000 C 
ATOM      8  N   UNL     1      -3.005  12.109  19.406  0.00  0.00    +0.000 N 
ATOM      9  C   UNL     1      -1.792  12.024  20.186  0.00  0.00    +0.000 A 
ATOM     10  C   UNL     1      -2.065  12.647  21.416  0.00  0.00    +0.000 A 
ATOM     11  C   UNL     1      -3.414  13.100  21.429  0.00  0.00    +0.000 A 
ATOM     12  C   UNL     1      -4.218  13.775  22.397  0.00  0.00    +0.000 A 
ATOM     13  C   UNL     1      -5.524  14.198  22.112  0.00  0.00    +0.000 A 
ATOM     14  C   UNL     1      -6.043  13.925  20.857  0.00  0.00    +0.000 A 
ATOM     15  C   UNL     1      -5.282  13.257  19.894  0.00  0.00    +0.000 A 
ATOM     16  C   UNL     1      -3.971  12.801  20.184  0.00  0.00    +0.000 A 
ATOM     17  H   UNL     1      -5.458  10.227  15.938  0.00  0.00    +0.000 HD
ATOM     18  H   UNL     1      -1.626  11.306  15.321  0.00  0.00    +0.000 HD
ENDROOT
BRANCH   9  19
ATOM     19  C   UNL     1      -0.544  11.278  19.783  0.00  0.00    +0.000 A 
ATOM     20  C   UNL     1       0.529  11.881  19.119  0.00  0.00    +0.000 A 
ATOM     21  C   UNL     1       1.582  11.136  18.567  0.00  0.00    +0.000 A 
ATOM     22  C   UNL     1       1.700   9.786  18.852  0.00  0.00    +0.000 A 
ATOM     23  C   UNL     1       0.754   9.190  19.672  0.00  0.00    +0.000 A 
ATOM     24  C   UNL     1      -0.376   9.916  20.079  0.00  0.00    +0.000 A 
ENDBRANCH   9  19
BRANCH  13  25
ATOM     25  C   UNL     1      -6.345  14.976  23.113  0.00  0.00    +0.000 C 
ATOM     26  F   UNL     1      -6.904  16.109  22.609  0.00  0.00    +0.000 F 
ATOM     27  F   UNL     1      -7.374  14.241  23.621  0.00  0.00    +0.000 F 
ATOM     28  F   UNL     1      -5.606  15.369  24.188  0.00  0.00    +0.000 F 
ENDBRANCH  13  25
BRANCH   1  29
ATOM     29  N   UNL     1      -5.269  10.301  18.463  0.00  0.00    +0.000 NA
ATOM     30  H   UNL     1      -6.250  10.549  18.549  0.00  0.00    +0.000 HD
ATOM     31  H   UNL     1      -4.879  10.330  19.403  0.00  0.00    +0.000 HD
ENDBRANCH   1  29
BRANCH  10  32
ATOM     32  S   UNL     1      -1.003  12.875  22.795  0.00  0.00    +0.000 S 
ATOM     33  O   UNL     1      -1.670  13.780  23.692  0.00  0.00    +0.000 OA
ATOM     34  O   UNL     1      -0.600  11.555  23.204  0.00  0.00    +0.000 OA
BRANCH  32  35
ATOM     35  N   UNL     1       0.379  13.641  22.225  0.00  0.00    +0.000 NA
ATOM     36  H   UNL     1       0.219  14.360  21.525  0.00  0.00    +0.000 HD
ATOM     37  H   UNL     1       1.162  13.013  22.060  0.00  0.00    +0.000 HD
ENDBRANCH  32  35
ENDBRANCH  10  32
TORSDOF 5
ENDMDL
MODEL 2
REMARK VINA RESULT:      -7.0      4.504      7.814
REMARK  Name = 
REMARK  5 active torsions:
REMARK  status: ('A' for Active; 'I' for Inactive)
REMARK    1  A    between atoms: N_1  and  C_2
REMARK    2  A    between atoms: C_10  and  C_11
REMARK    3  A    between atoms: C_17  and  S_18
REMARK    4  A    between atoms: S_18  and  N_19
REMARK    5  A    between atoms: C_24  and  C_25
REMARK                            x       y       z     vdW  Elec       q    Type
REMARK                         _______ _______ _______ _____ _____    ______ ____
ROOT
ATOM      1  C   UNL     1      -1.420  13.545  22.067  0.00  0.00    +0.000 C 
ATOM      2  N   UNL     1      -0.840  14.214  23.192  0.00  0.00    +0.000 N 
ATOM      3  C   UNL     1      -1.325  15.405  23.636  0.00  0.00    +0.000 C 
ATOM      4  S   UNL     1      -0.465  16.346  24.696  0.00  0.00    +0.000 S 
ATOM      5  N   UNL     1      -2.564  15.775  23.196  0.00  0.00    +0.000 N 
ATOM      6  N   UNL     1      -3.359  15.027  22.390  0.00  0.00    +0.000 NA
ATOM      7  C   UNL     1      -2.890  13.941  21.867  0.00  0.00    +0.000 C 
ATOM      8  N   UNL     1      -3.713  13.172  20.962  0.00  0.00    +0.000 N 
ATOM      9  C   UNL     1      -5.149  13.021  21.007  0.00  0.00    +0.000 A 
ATOM     10  C   UNL     1      -5.499  12.222  19.905  0.00  0.00    +0.000 A 
ATOM     11  C   UNL     1      -4.323  11.858  19.189  0.00  0.00    +0.000 A 
ATOM     12  C   UNL     1      -4.083  11.069  18.024  0.00  0.00    +0.000 A 
ATOM     13  C   UNL     1      -2.804  10.945  17.462  0.00  0.00    +0.000 A 
ATOM     14  C   UNL     1      -1.750  11.595  18.082  0.00  0.00    +0.000 A 
ATOM     15  C   UNL     1      -1.954  12.365  19.229  0.00  0.00    +0.000 A 
ATOM     16  C   UNL     1      -3.240  12.473  19.819  0.00  0.00    +0.000 A 
ATOM     17  H   UNL     1       0.119  14.033  23.446  0.00  0.00    +0.000 HD
ATOM     18  H   UNL     1      -2.984  16.598  23.601  0.00  0.00    +0.000 HD
ENDROOT
BRANCH   9  19
ATOM     19  C   UNL     1      -6.045  13.516  22.113  0.00  0.00    +0.000 A 
ATOM     20  C   UNL     1      -6.146  12.886  23.358  0.00  0.00    +0.000 A 
ATOM     21  C   UNL     1      -7.133  13.230  24.294  0.00  0.00    +0.000 A 
ATOM     22  C   UNL     1      -7.911  14.360  24.099  0.00  0.00    +0.000 A 
ATOM     23  C   UNL     1      -7.705  15.123  22.960  0.00  0.00    +0.000 A 
ATOM     24  C   UNL     1      -6.827  14.672  21.962  0.00  0.00    +0.000 A 
ENDBRANCH   9  19
BRANCH  13  25
ATOM     25  C   UNL     1      -2.566  10.169  16.188  0.00  0.00    +0.000 C 
ATOM     26  F   UNL     1      -1.425   9.429  16.196  0.00  0.00    +0.000 F 
ATOM     27  F   UNL     1      -3.579   9.300  15.915  0.00  0.00    +0.000 F 
ATOM     28  F   UNL     1      -2.476  10.985  15.100  0.00  0.00    +0.000 F 
ENDBRANCH  13  25
BRANCH   1  29
ATOM     29  N   UNL     1      -1.243  12.155  22.428  0.00  0.00    +0.000 NA
ATOM     30  H   UNL     1      -2.044  11.625  22.099  0.00  0.00    +0.000 HD
ATOM     31  H   UNL     1      -1.212  12.036  23.439  0.00  0.00    +0.000 HD
ENDBRANCH   1  29
BRANCH  10  32
ATOM     32  S   UNL     1      -7.090  11.678  19.400  0.00  0.00    +0.000 S 
ATOM     33  O   UNL     1      -7.909  11.626  20.582  0.00  0.00    +0.000 OA
ATOM     34  O   UNL     1      -7.442  12.491  18.265  0.00  0.00    +0.000 OA
BRANCH  32  35
ATOM     35  N   UNL     1      -6.912  10.110  18.828  0.00  0.00    +0.000 NA
ATOM     36  H   UNL     1      -7.429   9.897  17.979  0.00  0.00    +0.000 HD
ATOM     37  H   UNL     1      -6.924   9.400  19.555  0.00  0.00    +0.000 HD
ENDBRANCH  32  35
ENDBRANCH  10  32
TORSDOF 5
ENDMDL
MODEL 3
REMARK VINA RESULT:      -6.9      0.216      1.029
REMARK  Name = 
REMARK  5 active torsions:
REMARK  status: ('A' for Active; 'I' for Inactive)
REMARK    1  A    between atoms: N_1  and  C_2
REMARK    2  A    between atoms: C_10  and  C_11
REMARK    3  A    between atoms: C_17  and  S_18
REMARK    4  A    between atoms: S_18  and  N_19
REMARK    5  A    between atoms: C_24  and  C_25
REMARK                            x       y       z     vdW  Elec       q    Type
REMARK                         _______ _______ _______ _____ _____    ______ ____
ROOT
ATOM      1  C   UNL     1      -4.690  11.299  17.622  0.00  0.00    +0.000 C 
ATOM      2  N   UNL     1      -4.696  10.587  16.380  0.00  0.00    +0.000 N 
ATOM      3  C   UNL     1      -3.683  10.718  15.483  0.00  0.00    +0.000 C 
ATOM      4  S   UNL     1      -3.839  10.185  13.921  0.00  0.00    +0.000 S 
ATOM      5  N   UNL     1      -2.521  11.277  15.933  0.00  0.00    +0.000 N 
ATOM      6  N   UNL     1      -2.291  11.668  17.212  0.00  0.00    +0.000 NA
ATOM      7  C   UNL     1      -3.264  11.655  18.066  0.00  0.00    +0.000 C 
ATOM      8  N   UNL     1      -3.038  12.125  19.413  0.00  0.00    +0.000 N 
ATOM      9  C   UNL     1      -1.817  12.019  20.178  0.00  0.00    +0.000 A 
ATOM     10  C   UNL     1      -2.063  12.651  21.409  0.00  0.00    +0.000 A 
ATOM     11  C   UNL     1      -3.403  13.131  21.437  0.00  0.00    +0.000 A 
ATOM     12  C   UNL     1      -4.181  13.825  22.411  0.00  0.00    +0.000 A 
ATOM     13  C   UNL     1      -5.483  14.272  22.140  0.00  0.00    +0.000 A 
ATOM     14  C   UNL     1      -6.022  14.005  20.893  0.00  0.00    +0.000 A 
ATOM     15  C   UNL     1      -5.286  13.318  19.924  0.00  0.00    +0.000 A 
ATOM     16  C   UNL     1      -3.981  12.838  20.200  0.00  0.00    +0.000 A 
ATOM     17  H   UNL     1      -5.569  10.278  15.982  0.00  0.00    +0.000 HD
ATOM     18  H   UNL     1      -1.725  11.279  15.314  0.00  0.00    +0.000 HD
ENDROOT
BRANCH   9  19
ATOM     19  C   UNL     1      -0.590  11.247  19.763  0.00  0.00    +0.000 A 
ATOM     20  C   UNL     1      -0.391   9.897  20.073  0.00  0.00    +0.000 A 
ATOM     21  C   UNL     1       0.839   9.254  19.866  0.00  0.00    +0.000 A 
ATOM     22  C   UNL     1       1.839   9.885  19.145  0.00  0.00    +0.000 A 
ATOM     23  C   UNL     1       1.605  11.160  18.654  0.00  0.00    +0.000 A 
ATOM     24  C   UNL     1       0.433  11.845  19.009  0.00  0.00    +0.000 A 
ENDBRANCH   9  19
BRANCH  13  25
ATOM     25  C   UNL     1      -6.277  15.070  23.149  0.00  0.00    +0.000 C 
ATOM     26  F   UNL     1      -5.530  15.953  23.866  0.00  0.00    +0.000 F 
ATOM     27  F   UNL     1      -7.268  15.799  22.565  0.00  0.00    +0.000 F 
ATOM     28  F   UNL     1      -6.894  14.271  24.064  0.00  0.00    +0.000 F 
ENDBRANCH  13  25
BRANCH   1  29
ATOM     29  N   UNL     1      -5.348  10.358  18.504  0.00  0.00    +0.000 NA
ATOM     30  H   UNL     1      -5.222   9.419  18.135  0.00  0.00    +0.000 HD
ATOM     31  H   UNL     1      -6.352  10.523  18.539  0.00  0.00    +0.000 HD
ENDBRANCH   1  29
BRANCH  10  32
ATOM     32  S   UNL     1      -0.980  12.864  22.774  0.00  0.00    +0.000 S 
ATOM     33  O   UNL     1      -1.617  13.787  23.675  0.00  0.00    +0.000 OA
ATOM     34  O   UNL     1      -0.600  11.537  23.185  0.00  0.00    +0.000 OA
BRANCH  32  35
ATOM     35  N   UNL     1       0.411  13.598  22.184  0.00  0.00    +0.000 NA
ATOM     36  H   UNL     1       0.352  13.932  21.227  0.00  0.00    +0.000 HD
ATOM     37  H   UNL     1       1.272  13.124  22.447  0.00  0.00    +0.000 HD
ENDBRANCH  32  35
ENDBRANCH  10  32
TORSDOF 5
ENDMDL
MODEL 4
REMARK VINA RESULT:      -6.8      4.504      7.876
REMARK  Name = 
REMARK  5 active torsions:
REMARK  status: ('A' for Active; 'I' for Inactive)
REMARK    1  A    between atoms: N_1  and  C_2
REMARK    2  A    between atoms: C_10  and  C_11
REMARK    3  A    between atoms: C_17  and  S_18
REMARK    4  A    between atoms: S_18  and  N_19
REMARK    5  A    between atoms: C_24  and  C_25
REMARK                            x       y       z     vdW  Elec       q    Type
REMARK                         _______ _______ _______ _____ _____    ______ ____
ROOT
ATOM      1  C   UNL     1      -1.421  13.501  22.996  0.00  0.00    +0.000 C 
ATOM      2  N   UNL     1      -1.681  14.318  24.142  0.00  0.00    +0.000 N 
ATOM      3  C   UNL     1      -2.374  15.483  24.039  0.00  0.00    +0.000 C 
ATOM      4  S   UNL     1      -2.384  16.593  25.270  0.00  0.00    +0.000 S 
ATOM      5  N   UNL     1      -3.088  15.684  22.892  0.00  0.00    +0.000 N 
ATOM      6  N   UNL     1      -3.191  14.792  21.874  0.00  0.00    +0.000 NA
ATOM      7  C   UNL     1      -2.465  13.721  21.892  0.00  0.00    +0.000 C 
ATOM      8  N   UNL     1      -2.527  12.798  20.782  0.00  0.00    +0.000 N 
ATOM      9  C   UNL     1      -3.679  12.501  19.962  0.00  0.00    +0.000 A 
ATOM     10  C   UNL     1      -3.248  11.581  18.991  0.00  0.00    +0.000 A 
ATOM     11  C   UNL     1      -1.871  11.285  19.195  0.00  0.00    +0.000 A 
ATOM     12  C   UNL     1      -0.937  10.433  18.532  0.00  0.00    +0.000 A 
ATOM     13  C   UNL     1       0.419  10.398  18.888  0.00  0.00    +0.000 A 
ATOM     14  C   UNL     1       0.844  11.205  19.931  0.00  0.00    +0.000 A 
ATOM     15  C   UNL     1      -0.050  12.041  20.604  0.00  0.00    +0.000 A 
ATOM     16  C   UNL     1      -1.428  12.061  20.268  0.00  0.00    +0.000 A 
ATOM     17  H   UNL     1      -1.079  14.260  24.949  0.00  0.00    +0.000 HD
ATOM     18  H   UNL     1      -3.695  16.488  22.846  0.00  0.00    +0.000 HD
ENDROOT
BRANCH   9  19
ATOM     19  C   UNL     1      -5.083  12.988  20.217  0.00  0.00    +0.000 A 
ATOM     20  C   UNL     1      -5.902  12.473  21.227  0.00  0.00    +0.000 A 
ATOM     21  C   UNL     1      -7.267  12.785  21.316  0.00  0.00    +0.000 A 
ATOM     22  C   UNL     1      -7.803  13.789  20.526  0.00  0.00    +0.000 A 
ATOM     23  C   UNL     1      -6.971  14.459  19.642  0.00  0.00    +0.000 A 
ATOM     24  C   UNL     1      -5.650  14.023  19.455  0.00  0.00    +0.000 A 
ENDBRANCH   9  19
BRANCH  13  25
ATOM     25  C   UNL     1       1.418   9.549  18.137  0.00  0.00    +0.000 C 
ATOM     26  F   UNL     1       2.371  10.266  17.483  0.00  0.00    +0.000 F 
ATOM     27  F   UNL     1       2.087   8.691  18.957  0.00  0.00    +0.000 F 
ATOM     28  F   UNL     1       0.822   8.770  17.193  0.00  0.00    +0.000 F 
ENDBRANCH  13  25
BRANCH   1  29
ATOM     29  N   UNL     1      -1.460  12.171  23.567  0.00  0.00    +0.000 NA
ATOM     30  H   UNL     1      -1.745  11.513  22.848  0.00  0.00    +0.000 HD
ATOM     31  H   UNL     1      -2.154  12.108  24.310  0.00  0.00    +0.000 HD
ENDBRANCH   1  29
BRANCH  10  32
ATOM     32  S   UNL     1      -4.169  10.834  17.697  0.00  0.00    +0.000 S 
ATOM     33  O   UNL     1      -3.427   9.678  17.267  0.00  0.00    +0.000 OA
ATOM     34  O   UNL     1      -5.521  10.734  18.182  0.00  0.00    +0.000 OA
BRANCH  32  35
ATOM     35  N   UNL     1      -4.200  11.928  16.423  0.00  0.00    +0.000 NA
ATOM     36  H   UNL     1      -4.060  11.525  15.501  0.00  0.00    +0.000 HD
ATOM     37  H   UNL     1      -3.712  12.800  16.615  0.00  0.00    +0.000 HD
ENDBRANCH  32  35
ENDBRANCH  10  32
TORSDOF 5
ENDMDL
MODEL 5
REMARK VINA RESULT:      -6.8      4.564      7.792
REMARK  Name = 
REMARK  5 active torsions:
REMARK  status: ('A' for Active; 'I' for Inactive)
REMARK    1  A    between atoms: N_1  and  C_2
REMARK    2  A    between atoms: C_10  and  C_11
REMARK    3  A    between atoms: C_17  and  S_18
REMARK    4  A    between atoms: S_18  and  N_19
REMARK    5  A    between atoms: C_24  and  C_25
REMARK                            x       y       z     vdW  Elec       q    Type
REMARK                         _______ _______ _______ _____ _____    ______ ____
ROOT
ATOM      1  C   UNL     1      -1.935  13.249  22.882  0.00  0.00    +0.000 C 
ATOM      2  N   UNL     1      -2.349  14.009  24.022  0.00  0.00    +0.000 N 
ATOM      3  C   UNL     1      -3.046  15.169  23.886  0.00  0.00    +0.000 C 
ATOM      4  S   UNL     1      -3.226  16.222  25.154  0.00  0.00    +0.000 S 
ATOM      5  N   UNL     1      -3.617  15.413  22.670  0.00  0.00    +0.000 N 
ATOM      6  N   UNL     1      -3.578  14.567  21.609  0.00  0.00    +0.000 NA
ATOM      7  C   UNL     1      -2.840  13.506  21.669  0.00  0.00    +0.000 C 
ATOM      8  N   UNL     1      -2.750  12.634  20.521  0.00  0.00    +0.000 N 
ATOM      9  C   UNL     1      -3.786  12.360  19.553  0.00  0.00    +0.000 A 
ATOM     10  C   UNL     1      -3.223  11.491  18.603  0.00  0.00    +0.000 A 
ATOM     11  C   UNL     1      -1.876  11.204  18.962  0.00  0.00    +0.000 A 
ATOM     12  C   UNL     1      -0.853  10.394  18.382  0.00  0.00    +0.000 A 
ATOM     13  C   UNL     1       0.450  10.360  18.902  0.00  0.00    +0.000 A 
ATOM     14  C   UNL     1       0.729  11.123  20.023  0.00  0.00    +0.000 A 
ATOM     15  C   UNL     1      -0.256  11.917  20.616  0.00  0.00    +0.000 A 
ATOM     16  C   UNL     1      -1.582  11.935  20.114  0.00  0.00    +0.000 A 
ATOM     17  H   UNL     1      -1.850  13.922  24.894  0.00  0.00    +0.000 HD
ATOM     18  H   UNL     1      -4.228  16.210  22.584  0.00  0.00    +0.000 HD
ENDROOT
BRANCH   9  19
ATOM     19  C   UNL     1      -5.219  12.818  19.653  0.00  0.00    +0.000 A 
ATOM     20  C   UNL     1      -5.709  13.953  19.000  0.00  0.00    +0.000 A 
ATOM     21  C   UNL     1      -6.981  14.482  19.269  0.00  0.00    +0.000 A 
ATOM     22  C   UNL     1      -7.881  13.766  20.041  0.00  0.00    +0.000 A 
ATOM     23  C   UNL     1      -7.493  12.537  20.551  0.00  0.00    +0.000 A 
ATOM     24  C   UNL     1      -6.166  12.103  20.404  0.00  0.00    +0.000 A 
ENDBRANCH   9  19
BRANCH  13  25
ATOM     25  C   UNL     1       1.549   9.559  18.243  0.00  0.00    +0.000 C 
ATOM     26  F   UNL     1       1.125   8.786  17.207  0.00  0.00    +0.000 F 
ATOM     27  F   UNL     1       2.538  10.352  17.743  0.00  0.00    +0.000 F 
ATOM     28  F   UNL     1       2.160   8.711  19.117  0.00  0.00    +0.000 F 
ENDBRANCH  13  25
BRANCH   1  29
ATOM     29  N   UNL     1      -2.021  11.894  23.386  0.00  0.00    +0.000 NA
ATOM     30  H   UNL     1      -1.703  11.254  22.663  0.00  0.00    +0.000 HD
ATOM     31  H   UNL     1      -2.983  11.637  23.597  0.00  0.00    +0.000 HD
ENDBRANCH   1  29
BRANCH  10  32
ATOM     32  S   UNL     1      -3.965  10.792  17.173  0.00  0.00    +0.000 S 
ATOM     33  O   UNL     1      -3.671   9.384  17.195  0.00  0.00    +0.000 OA
ATOM     34  O   UNL     1      -5.316  11.288  17.148  0.00  0.00    +0.000 OA
BRANCH  32  35
ATOM     35  N   UNL     1      -3.187  11.460  15.843  0.00  0.00    +0.000 NA
ATOM     36  H   UNL     1      -2.917  10.797  15.121  0.00  0.00    +0.000 HD
ATOM     37  H   UNL     1      -2.504  12.175  16.078  0.00  0.00    +0.000 HD
ENDBRANCH  32  35
ENDBRANCH  10  32
TORSDOF 5
ENDMDL
MODEL 6
REMARK VINA RESULT:      -6.8      3.002      4.865
REMARK  Name = 
REMARK  5 active torsions:
REMARK  status: ('A' for Active; 'I' for Inactive)
REMARK    1  A    between atoms: N_1  and  C_2
REMARK    2  A    between atoms: C_10  and  C_11
REMARK    3  A    between atoms: C_17  and  S_18
REMARK    4  A    between atoms: S_18  and  N_19
REMARK    5  A    between atoms: C_24  and  C_25
REMARK                            x       y       z     vdW  Elec       q    Type
REMARK                         _______ _______ _______ _____ _____    ______ ____
ROOT
ATOM      1  C   UNL     1      -0.926  14.082  19.994  0.00  0.00    +0.000 C 
ATOM      2  N   UNL     1       0.399  14.148  19.456  0.00  0.00    +0.000 N 
ATOM      3  C   UNL     1       1.076  13.024  19.099  0.00  0.00    +0.000 C 
ATOM      4  S   UNL     1       2.707  13.055  18.807  0.00  0.00    +0.000 S 
ATOM      5  N   UNL     1       0.347  11.877  18.959  0.00  0.00    +0.000 N 
ATOM      6  N   UNL     1      -0.999  11.788  19.105  0.00  0.00    +0.000 NA
ATOM      7  C   UNL     1      -1.659  12.810  19.545  0.00  0.00    +0.000 C 
ATOM      8  N   UNL     1      -3.084  12.702  19.759  0.00  0.00    +0.000 N 
ATOM      9  C   UNL     1      -4.018  11.902  19.001  0.00  0.00    +0.000 A 
ATOM     10  C   UNL     1      -5.276  12.085  19.601  0.00  0.00    +0.000 A 
ATOM     11  C   UNL     1      -5.153  12.986  20.697  0.00  0.00    +0.000 A 
ATOM     12  C   UNL     1      -6.080  13.528  21.636  0.00  0.00    +0.000 A 
ATOM     13  C   UNL     1      -5.668  14.343  22.701  0.00  0.00    +0.000 A 
ATOM     14  C   UNL     1      -4.320  14.639  22.816  0.00  0.00    +0.000 A 
ATOM     15  C   UNL     1      -3.391  14.131  21.904  0.00  0.00    +0.000 A 
ATOM     16  C   UNL     1      -3.804  13.330  20.810  0.00  0.00    +0.000 A 
ATOM     17  H   UNL     1       0.986  14.942  19.659  0.00  0.00    +0.000 HD
ATOM     18  H   UNL     1       0.812  11.063  18.587  0.00  0.00    +0.000 HD
ENDROOT
BRANCH   9  19
ATOM     19  C   UNL     1      -3.699  11.150  17.734  0.00  0.00    +0.000 A 
ATOM     20  C   UNL     1      -3.084   9.893  17.723  0.00  0.00    +0.000 A 
ATOM     21  C   UNL     1      -2.605   9.304  16.543  0.00  0.00    +0.000 A 
ATOM     22  C   UNL     1      -2.920   9.858  15.313  0.00  0.00    +0.000 A 
ATOM     23  C   UNL     1      -3.696  11.006  15.277  0.00  0.00    +0.000 A 
ATOM     24  C   UNL     1      -4.027  11.666  16.471  0.00  0.00    +0.000 A 
ENDBRANCH   9  19
BRANCH  13  25
ATOM     25  C   UNL     1      -6.643  14.855  23.736  0.00  0.00    +0.000 C 
ATOM     26  F   UNL     1      -7.143  13.887  24.550  0.00  0.00    +0.000 F 
ATOM     27  F   UNL     1      -6.084  15.788  24.556  0.00  0.00    +0.000 F 
ATOM     28  F   UNL     1      -7.723  15.461  23.168  0.00  0.00    +0.000 F 
ENDBRANCH  13  25
BRANCH   1  29
ATOM     29  N   UNL     1      -1.515  15.299  19.475  0.00  0.00    +0.000 NA
ATOM     30  H   UNL     1      -0.771  15.947  19.233  0.00  0.00    +0.000 HD
ATOM     31  H   UNL     1      -2.086  15.764  20.179  0.00  0.00    +0.000 HD
ENDBRANCH   1  29
BRANCH  10  32
ATOM     32  S   UNL     1      -6.822  11.385  19.154  0.00  0.00    +0.000 S 
ATOM     33  O   UNL     1      -7.699  11.551  20.283  0.00  0.00    +0.000 OA
ATOM     34  O   UNL     1      -7.138  11.924  17.857  0.00  0.00    +0.000 OA
BRANCH  32  35
ATOM     35  N   UNL     1      -6.568   9.738  18.938  0.00  0.00    +0.000 NA
ATOM     36  H   UNL     1      -5.628   9.478  18.657  0.00  0.00    +0.000 HD
ATOM     37  H   UNL     1      -7.331   9.261  18.465  0.00  0.00    +0.000 HD
ENDBRANCH  32  35
ENDBRANCH  10  32
TORSDOF 5
ENDMDL
MODEL 7
REMARK VINA RESULT:      -6.8      0.698      1.394
REMARK  Name = 
REMARK  5 active torsions:
REMARK  status: ('A' for Active; 'I' for Inactive)
REMARK    1  A    between atoms: N_1  and  C_2
REMARK    2  A    between atoms: C_10  and  C_11
REMARK    3  A    between atoms: C_17  and  S_18
REMARK    4  A    between atoms: S_18  and  N_19
REMARK    5  A    between atoms: C_24  and  C_25
REMARK                            x       y       z     vdW  Elec       q    Type
REMARK                         _______ _______ _______ _____ _____    ______ ____
ROOT
ATOM      1  C   UNL     1      -4.672  11.169  17.484  0.00  0.00    +0.000 C 
ATOM      2  N   UNL     1      -4.679  10.475  16.232  0.00  0.00    +0.000 N 
ATOM      3  C   UNL     1      -3.688  10.652  15.318  0.00  0.00    +0.000 C 
ATOM      4  S   UNL     1      -3.857  10.135  13.751  0.00  0.00    +0.000 S 
ATOM      5  N   UNL     1      -2.537  11.242  15.754  0.00  0.00    +0.000 N 
ATOM      6  N   UNL     1      -2.294  11.622  17.034  0.00  0.00    +0.000 NA
ATOM      7  C   UNL     1      -3.249  11.565  17.905  0.00  0.00    +0.000 C 
ATOM      8  N   UNL     1      -3.013  12.024  19.255  0.00  0.00    +0.000 N 
ATOM      9  C   UNL     1      -1.775  11.947  19.995  0.00  0.00    +0.000 A 
ATOM     10  C   UNL     1      -2.017  12.554  21.239  0.00  0.00    +0.000 A 
ATOM     11  C   UNL     1      -3.371  12.988  21.300  0.00  0.00    +0.000 A 
ATOM     12  C   UNL     1      -4.152  13.643  22.299  0.00  0.00    +0.000 A 
ATOM     13  C   UNL     1      -5.473  14.051  22.060  0.00  0.00    +0.000 A 
ATOM     14  C   UNL     1      -6.027  13.784  20.819  0.00  0.00    +0.000 A 
ATOM     15  C   UNL     1      -5.289  13.136  19.826  0.00  0.00    +0.000 A 
ATOM     16  C   UNL     1      -3.963  12.695  20.070  0.00  0.00    +0.000 A 
ATOM     17  H   UNL     1      -5.549  10.143  15.846  0.00  0.00    +0.000 HD
ATOM     18  H   UNL     1      -1.753  11.279  15.120  0.00  0.00    +0.000 HD
ENDROOT
BRANCH   9  19
ATOM     19  C   UNL     1      -0.531  11.222  19.546  0.00  0.00    +0.000 A 
ATOM     20  C   UNL     1      -0.321   9.855  19.759  0.00  0.00    +0.000 A 
ATOM     21  C   UNL     1       0.920   9.243  19.527  0.00  0.00    +0.000 A 
ATOM     22  C   UNL     1       1.924   9.936  18.871  0.00  0.00    +0.000 A 
ATOM     23  C   UNL     1       1.683  11.242  18.470  0.00  0.00    +0.000 A 
ATOM     24  C   UNL     1       0.496  11.884  18.855  0.00  0.00    +0.000 A 
ENDBRANCH   9  19
BRANCH  13  25
ATOM     25  C   UNL     1      -6.272  14.808  23.094  0.00  0.00    +0.000 C 
ATOM     26  F   UNL     1      -6.886  14.012  24.010  0.00  0.00    +0.000 F 
ATOM     27  F   UNL     1      -5.503  15.679  23.806  0.00  0.00    +0.000 F 
ATOM     28  F   UNL     1      -7.258  15.561  22.531  0.00  0.00    +0.000 F 
ENDBRANCH  13  25
BRANCH   1  29
ATOM     29  N   UNL     1      -5.281  10.195  18.364  0.00  0.00    +0.000 NA
ATOM     30  H   UNL     1      -5.983  10.660  18.934  0.00  0.00    +0.000 HD
ATOM     31  H   UNL     1      -4.599   9.800  19.009  0.00  0.00    +0.000 HD
ENDBRANCH   1  29
BRANCH  10  32
ATOM     32  S   UNL     1      -0.915  12.782  22.587  0.00  0.00    +0.000 S 
ATOM     33  O   UNL     1       0.295  13.343  22.047  0.00  0.00    +0.000 OA
ATOM     34  O   UNL     1      -1.676  13.452  23.609  0.00  0.00    +0.000 OA
BRANCH  32  35
ATOM     35  N   UNL     1      -0.552  11.255  23.185  0.00  0.00    +0.000 NA
ATOM     36  H   UNL     1      -0.100  10.628  22.526  0.00  0.00    +0.000 HD
ATOM     37  H   UNL     1      -1.284  10.854  23.765  0.00  0.00    +0.000 HD
ENDBRANCH  32  35
ENDBRANCH  10  32
TORSDOF 5
ENDMDL
MODEL 8
REMARK VINA RESULT:      -6.7      3.117      4.792
REMARK  Name = 
REMARK  5 active torsions:
REMARK  status: ('A' for Active; 'I' for Inactive)
REMARK    1  A    between atoms: N_1  and  C_2
REMARK    2  A    between atoms: C_10  and  C_11
REMARK    3  A    between atoms: C_17  and  S_18
REMARK    4  A    between atoms: S_18  and  N_19
REMARK    5  A    between atoms: C_24  and  C_25
REMARK                            x       y       z     vdW  Elec       q    Type
REMARK                         _______ _______ _______ _____ _____    ______ ____
ROOT
ATOM      1  C   UNL     1      -0.932  14.061  20.022  0.00  0.00    +0.000 C 
ATOM      2  N   UNL     1       0.392  14.221  19.502  0.00  0.00    +0.000 N 
ATOM      3  C   UNL     1       1.127  13.152  19.093  0.00  0.00    +0.000 C 
ATOM      4  S   UNL     1       2.757  13.279  18.821  0.00  0.00    +0.000 S 
ATOM      5  N   UNL     1       0.458  11.980  18.884  0.00  0.00    +0.000 N 
ATOM      6  N   UNL     1      -0.883  11.817  19.011  0.00  0.00    +0.000 NA
ATOM      7  C   UNL     1      -1.597  12.780  19.497  0.00  0.00    +0.000 C 
ATOM      8  N   UNL     1      -3.017  12.590  19.689  0.00  0.00    +0.000 N 
ATOM      9  C   UNL     1      -3.904  11.788  18.880  0.00  0.00    +0.000 A 
ATOM     10  C   UNL     1      -5.174  11.876  19.476  0.00  0.00    +0.000 A 
ATOM     11  C   UNL     1      -5.105  12.722  20.619  0.00  0.00    +0.000 A 
ATOM     12  C   UNL     1      -6.066  13.165  21.576  0.00  0.00    +0.000 A 
ATOM     13  C   UNL     1      -5.704  13.941  22.687  0.00  0.00    +0.000 A 
ATOM     14  C   UNL     1      -4.373  14.296  22.832  0.00  0.00    +0.000 A 
ATOM     15  C   UNL     1      -3.413  13.885  21.905  0.00  0.00    +0.000 A 
ATOM     16  C   UNL     1      -3.776  13.124  20.765  0.00  0.00    +0.000 A 
ATOM     17  H   UNL     1       0.937  15.031  19.755  0.00  0.00    +0.000 HD
ATOM     18  H   UNL     1       0.965  11.211  18.475  0.00  0.00    +0.000 HD
ENDROOT
BRANCH   9  19
ATOM     19  C   UNL     1      -3.537  11.121  17.578  0.00  0.00    +0.000 A 
ATOM     20  C   UNL     1      -3.915  11.621  16.327  0.00  0.00    +0.000 A 
ATOM     21  C   UNL     1      -3.749  10.884  15.145  0.00  0.00    +0.000 A 
ATOM     22  C   UNL     1      -3.004   9.716  15.154  0.00  0.00    +0.000 A 
ATOM     23  C   UNL     1      -2.448   9.288  16.350  0.00  0.00    +0.000 A 
ATOM     24  C   UNL     1      -2.761   9.952  17.546  0.00  0.00    +0.000 A 
ENDBRANCH   9  19
BRANCH  13  25
ATOM     25  C   UNL     1      -6.711  14.347  23.737  0.00  0.00    +0.000 C 
ATOM     26  F   UNL     1      -7.916  14.724  23.230  0.00  0.00    +0.000 F 
ATOM     27  F   UNL     1      -6.970  13.344  24.621  0.00  0.00    +0.000 F 
ATOM     28  F   UNL     1      -6.276  15.398  24.487  0.00  0.00    +0.000 F 
ENDBRANCH  13  25
BRANCH   1  29
ATOM     29  N   UNL     1      -1.577  15.273  19.563  0.00  0.00    +0.000 NA
ATOM     30  H   UNL     1      -1.049  16.074  19.899  0.00  0.00    +0.000 HD
ATOM     31  H   UNL     1      -2.515  15.362  19.948  0.00  0.00    +0.000 HD
ENDBRANCH   1  29
BRANCH  10  32
ATOM     32  S   UNL     1      -6.680  11.125  18.975  0.00  0.00    +0.000 S 
ATOM     33  O   UNL     1      -7.191  11.903  17.877  0.00  0.00    +0.000 OA
ATOM     34  O   UNL     1      -6.396   9.720  18.846  0.00  0.00    +0.000 OA
BRANCH  32  35
ATOM     35  N   UNL     1      -7.753  11.280  20.257  0.00  0.00    +0.000 NA
ATOM     36  H   UNL     1      -8.372  12.084  20.210  0.00  0.00    +0.000 HD
ATOM     37  H   UNL     1      -7.345  11.074  21.165  0.00  0.00    +0.000 HD
ENDBRANCH  32  35
ENDBRANCH  10  32
TORSDOF 5
ENDMDL
MODEL 9
REMARK VINA RESULT:      -6.7      3.038      4.817
REMARK  Name = 
REMARK  5 active torsions:
REMARK  status: ('A' for Active; 'I' for Inactive)
REMARK    1  A    between atoms: N_1  and  C_2
REMARK    2  A    between atoms: C_10  and  C_11
REMARK    3  A    between atoms: C_17  and  S_18
REMARK    4  A    between atoms: S_18  and  N_19
REMARK    5  A    between atoms: C_24  and  C_25
REMARK                            x       y       z     vdW  Elec       q    Type
REMARK                         _______ _______ _______ _____ _____    ______ ____
ROOT
ATOM      1  C   UNL     1      -0.939  14.253  20.052  0.00  0.00    +0.000 C 
ATOM      2  N   UNL     1       0.390  14.402  19.540  0.00  0.00    +0.000 N 
ATOM      3  C   UNL     1       1.134  13.323  19.179  0.00  0.00    +0.000 C 
ATOM      4  S   UNL     1       2.767  13.449  18.918  0.00  0.00    +0.000 S 
ATOM      5  N   UNL     1       0.474  12.140  19.007  0.00  0.00    +0.000 N 
ATOM      6  N   UNL     1      -0.868  11.974  19.126  0.00  0.00    +0.000 NA
ATOM      7  C   UNL     1      -1.592  12.951  19.569  0.00  0.00    +0.000 C 
ATOM      8  N   UNL     1      -3.012  12.760  19.754  0.00  0.00    +0.000 N 
ATOM      9  C   UNL     1      -3.887  11.923  18.966  0.00  0.00    +0.000 A 
ATOM     10  C   UNL     1      -5.163  12.026  19.545  0.00  0.00    +0.000 A 
ATOM     11  C   UNL     1      -5.110  12.914  20.657  0.00  0.00    +0.000 A 
ATOM     12  C   UNL     1      -6.084  13.387  21.587  0.00  0.00    +0.000 A 
ATOM     13  C   UNL     1      -5.737  14.206  22.672  0.00  0.00    +0.000 A 
ATOM     14  C   UNL     1      -4.409  14.574  22.817  0.00  0.00    +0.000 A 
ATOM     15  C   UNL     1      -3.437  14.134  21.916  0.00  0.00    +0.000 A 
ATOM     16  C   UNL     1      -3.785  13.329  20.801  0.00  0.00    +0.000 A 
ATOM     17  H   UNL     1       0.928  15.223  19.768  0.00  0.00    +0.000 HD
ATOM     18  H   UNL     1       0.989  11.359  18.631  0.00  0.00    +0.000 HD
ENDROOT
BRANCH   9  19
ATOM     19  C   UNL     1      -3.503  11.211  17.694  0.00  0.00    +0.000 A 
ATOM     20  C   UNL     1      -3.803  11.703  16.419  0.00  0.00    +0.000 A 
ATOM     21  C   UNL     1      -3.628  10.933  15.259  0.00  0.00    +0.000 A 
ATOM     22  C   UNL     1      -2.948   9.728  15.322  0.00  0.00    +0.000 A 
ATOM     23  C   UNL     1      -2.464   9.297  16.547  0.00  0.00    +0.000 A 
ATOM     24  C   UNL     1      -2.790  10.002  17.716  0.00  0.00    +0.000 A 
ENDBRANCH   9  19
BRANCH  13  25
ATOM     25  C   UNL     1      -6.757  14.646  23.696  0.00  0.00    +0.000 C 
ATOM     26  F   UNL     1      -6.336  15.664  24.494  0.00  0.00    +0.000 F 
ATOM     27  F   UNL     1      -7.917  15.070  23.121  0.00  0.00    +0.000 F 
ATOM     28  F   UNL     1      -7.110  13.633  24.536  0.00  0.00    +0.000 F 
ENDBRANCH  13  25
BRANCH   1  29
ATOM     29  N   UNL     1      -1.585  15.444  19.542  0.00  0.00    +0.000 NA
ATOM     30  H   UNL     1      -2.033  15.222  18.657  0.00  0.00    +0.000 HD
ATOM     31  H   UNL     1      -0.907  16.179  19.347  0.00  0.00    +0.000 HD
ENDBRANCH   1  29
BRANCH  10  32
ATOM     32  S   UNL     1      -6.660  11.249  19.058  0.00  0.00    +0.000 S 
ATOM     33  O   UNL     1      -6.371   9.849  18.894  0.00  0.00    +0.000 OA
ATOM     34  O   UNL     1      -7.664  11.717  19.976  0.00  0.00    +0.000 OA
BRANCH  32  35
ATOM     35  N   UNL     1      -7.065  11.870  17.551  0.00  0.00    +0.000 NA
ATOM     36  H   UNL     1      -7.740  11.324  17.024  0.00  0.00    +0.000 HD
ATOM     37  H   UNL     1      -6.274  12.238  17.029  0.00  0.00    +0.000 HD
ENDBRANCH  32  35
ENDBRANCH  10  32
TORSDOF 5
ENDMDL
