MODEL 1
REMARK VINA RESULT:      -7.6      0.000      0.000
REMARK  Name = 
REMARK  12 active torsions:
REMARK  status: ('A' for Active; 'I' for Inactive)
REMARK    1  A    between atoms: C_1  and  C_2
REMARK    2  A    between atoms: C_2  and  C_3
REMARK    3  A    between atoms: C_2  and  C_4
REMARK    4  A    between atoms: C_4  and  O_5
REMARK    5  A    between atoms: O_5  and  P_6
REMARK    6  A    between atoms: P_6  and  C_8
REMARK    7  A    between atoms: P_6  and  C_17
REMARK    8  A    between atoms: C_11  and  N_12
REMARK    9  A    between atoms: N_12  and  C_13
REMARK   10  A    between atoms: N_12  and  C_14
REMARK   11  A    between atoms: C_17  and  O_18
REMARK   12  A    between atoms: C_17  and  C_19
REMARK                            x       y       z     vdW  Elec       q    Type
REMARK                         _______ _______ _______ _____ _____    ______ ____
ROOT
ATOM      1  P   UNL     1       2.542   5.827  18.826  0.00  0.00    +0.000 P 
ATOM      2  O   UNL     1       1.809   5.066  17.751  0.00  0.00    +0.000 OA
ENDROOT
BRANCH   1   3
ATOM      3  C   UNL     1       2.203   7.556  18.945  0.00  0.00    +0.000 A 
ATOM      4  C   UNL     1       2.331   8.449  17.880  0.00  0.00    +0.000 A 
ATOM      5  C   UNL     1       1.745   9.724  17.951  0.00  0.00    +0.000 A 
ATOM      6  C   UNL     1       1.011  10.142  19.074  0.00  0.00    +0.000 A 
ATOM      7  C   UNL     1       1.067   9.292  20.191  0.00  0.00    +0.000 A 
ATOM      8  C   UNL     1       1.633   8.021  20.130  0.00  0.00    +0.000 A 
BRANCH   6   9
ATOM      9  N   UNL     1       0.279  11.338  19.136  0.00  0.00    +0.000 N 
ATOM     10  C   UNL     1      -1.055  11.299  18.512  0.00  0.00    +0.000 C 
ATOM     11  C   UNL     1       0.963  12.613  18.902  0.00  0.00    +0.000 C 
ENDBRANCH   6   9
ENDBRANCH   1   3
BRANCH   1  12
ATOM     12  O   UNL     1       2.276   5.145  20.294  0.00  0.00    +0.000 OA
BRANCH  12  13
ATOM     13  C   UNL     1       1.072   4.385  20.401  0.00  0.00    +0.000 C 
BRANCH  13  15
ATOM     14  C   UNL     1       1.494   2.097  19.391  0.00  0.00    +0.000 C 
ATOM     15  C   UNL     1       1.327   2.898  20.682  0.00  0.00    +0.000 C 
ATOM     16  C   UNL     1       2.530   2.684  21.597  0.00  0.00    +0.000 C 
ENDBRANCH  13  15
ENDBRANCH  12  13
ENDBRANCH   1  12
BRANCH   1  17
ATOM     17  C   UNL     1       4.387   5.678  18.672  0.00  0.00    +0.000 C 
BRANCH  17  18
ATOM     18  C   UNL     1       4.903   5.267  17.309  0.00  0.00    +0.000 A 
ATOM     19  C   UNL     1       5.073   6.197  16.270  0.00  0.00    +0.000 A 
ATOM     20  C   UNL     1       5.503   5.778  15.005  0.00  0.00    +0.000 A 
ATOM     21  C   UNL     1       5.765   4.431  14.766  0.00  0.00    +0.000 A 
ATOM     22 BR   UNL     1       6.301   3.857  13.047  0.00  0.00    +0.000 Br
ATOM     23  C   UNL     1       5.625   3.498  15.788  0.00  0.00    +0.000 A 
ATOM     24  C   UNL     1       5.206   3.919  17.054  0.00  0.00    +0.000 A 
ENDBRANCH  17  18
BRANCH  17  25
ATOM     25  O   UNL     1       4.850   4.729  19.648  0.00  0.00    +0.000 OA
ATOM     26  H   UNL     1       5.114   3.933  19.148  0.00  0.00    +0.000 HD
ENDBRANCH  17  25
ENDBRANCH   1  17
TORSDOF 8
ENDMDL
MODEL 2
REMARK VINA RESULT:      -7.5      0.426      1.193
REMARK  Name = 
REMARK  12 active torsions:
REMARK  status: ('A' for Active; 'I' for Inactive)
REMARK    1  A    between atoms: C_1  and  C_2
REMARK    2  A    between atoms: C_2  and  C_3
REMARK    3  A    between atoms: C_2  and  C_4
REMARK    4  A    between atoms: C_4  and  O_5
REMARK    5  A    between atoms: O_5  and  P_6
REMARK    6  A    between atoms: P_6  and  C_8
REMARK    7  A    between atoms: P_6  and  C_17
REMARK    8  A    between atoms: C_11  and  N_12
REMARK    9  A    between atoms: N_12  and  C_13
REMARK   10  A    between atoms: N_12  and  C_14
REMARK   11  A    between atoms: C_17  and  O_18
REMARK   12  A    between atoms: C_17  and  C_19
REMARK                            x       y       z     vdW  Elec       q    Type
REMARK                         _______ _______ _______ _____ _____    ______ ____
ROOT
ATOM      1  P   UNL     1       2.558   5.855  18.813  0.00  0.00    +0.000 P 
ATOM      2  O   UNL     1       1.795   5.102  17.753  0.00  0.00    +0.000 OA
ENDROOT
BRANCH   1   3
ATOM      3  C   UNL     1       2.193   7.575  18.981  0.00  0.00    +0.000 A 
ATOM      4  C   UNL     1       2.255   8.490  17.928  0.00  0.00    +0.000 A 
ATOM      5  C   UNL     1       1.649   9.752  18.051  0.00  0.00    +0.000 A 
ATOM      6  C   UNL     1       0.961  10.135  19.215  0.00  0.00    +0.000 A 
ATOM      7  C   UNL     1       1.084   9.266  20.311  0.00  0.00    +0.000 A 
ATOM      8  C   UNL     1       1.671   8.007  20.200  0.00  0.00    +0.000 A 
BRANCH   6   9
ATOM      9  N   UNL     1       0.211  11.315  19.333  0.00  0.00    +0.000 N 
ATOM     10  C   UNL     1       0.909  12.552  18.938  0.00  0.00    +0.000 C 
ATOM     11  C   UNL     1      -0.640  11.513  20.510  0.00  0.00    +0.000 C 
ENDBRANCH   6   9
ENDBRANCH   1   3
BRANCH   1  12
ATOM     12  O   UNL     1       2.364   5.140  20.277  0.00  0.00    +0.000 OA
BRANCH  12  13
ATOM     13  C   UNL     1       1.123   4.457  20.459  0.00  0.00    +0.000 C 
BRANCH  13  15
ATOM     14  C   UNL     1       1.443   2.158  19.439  0.00  0.00    +0.000 C 
ATOM     15  C   UNL     1       1.300   2.958  20.734  0.00  0.00    +0.000 C 
ATOM     16  C   UNL     1       2.480   2.679  21.661  0.00  0.00    +0.000 C 
ENDBRANCH  13  15
ENDBRANCH  12  13
ENDBRANCH   1  12
BRANCH   1  17
ATOM     17  C   UNL     1       4.397   5.744  18.583  0.00  0.00    +0.000 C 
BRANCH  17  18
ATOM     18  C   UNL     1       4.863   5.270  17.221  0.00  0.00    +0.000 A 
ATOM     19  C   UNL     1       5.113   3.914  16.955  0.00  0.00    +0.000 A 
ATOM     20  C   UNL     1       5.592   3.513  15.701  0.00  0.00    +0.000 A 
ATOM     21  C   UNL     1       5.826   4.460  14.707  0.00  0.00    +0.000 A 
ATOM     22 BR   UNL     1       6.517   3.926  13.031  0.00  0.00    +0.000 Br
ATOM     23  C   UNL     1       5.563   5.805  14.943  0.00  0.00    +0.000 A 
ATOM     24  C   UNL     1       5.075   6.202  16.192  0.00  0.00    +0.000 A 
ENDBRANCH  17  18
BRANCH  17  25
ATOM     25  O   UNL     1       4.930   4.862  19.586  0.00  0.00    +0.000 OA
ATOM     26  H   UNL     1       5.735   4.467  19.200  0.00  0.00    +0.000 HD
ENDBRANCH  17  25
ENDBRANCH   1  17
TORSDOF 8
ENDMDL
MODEL 3
REMARK VINA RESULT:      -7.3      0.458      1.029
REMARK  Name = 
REMARK  12 active torsions:
REMARK  status: ('A' for Active; 'I' for Inactive)
REMARK    1  A    between atoms: C_1  and  C_2
REMARK    2  A    between atoms: C_2  and  C_3
REMARK    3  A    between atoms: C_2  and  C_4
REMARK    4  A    between atoms: C_4  and  O_5
REMARK    5  A    between atoms: O_5  and  P_6
REMARK    6  A    between atoms: P_6  and  C_8
REMARK    7  A    between atoms: P_6  and  C_17
REMARK    8  A    between atoms: C_11  and  N_12
REMARK    9  A    between atoms: N_12  and  C_13
REMARK   10  A    between atoms: N_12  and  C_14
REMARK   11  A    between atoms: C_17  and  O_18
REMARK   12  A    between atoms: C_17  and  C_19
REMARK                            x       y       z     vdW  Elec       q    Type
REMARK                         _______ _______ _______ _____ _____    ______ ____
ROOT
ATOM      1  P   UNL     1       2.573   6.126  18.854  0.00  0.00    +0.000 P 
ATOM      2  O   UNL     1       1.835   5.308  17.824  0.00  0.00    +0.000 OA
ENDROOT
BRANCH   1   3
ATOM      3  C   UNL     1       2.182   7.846  18.927  0.00  0.00    +0.000 A 
ATOM      4  C   UNL     1       2.354   8.729  17.860  0.00  0.00    +0.000 A 
ATOM      5  C   UNL     1       1.731   9.989  17.876  0.00  0.00    +0.000 A 
ATOM      6  C   UNL     1       0.918  10.401  18.946  0.00  0.00    +0.000 A 
ATOM      7  C   UNL     1       0.926   9.567  20.075  0.00  0.00    +0.000 A 
ATOM      8  C   UNL     1       1.528   8.310  20.068  0.00  0.00    +0.000 A 
BRANCH   6   9
ATOM      9  N   UNL     1       0.154  11.578  18.946  0.00  0.00    +0.000 N 
ATOM     10  C   UNL     1       0.250  12.397  20.167  0.00  0.00    +0.000 C 
ATOM     11  C   UNL     1      -1.207  11.553  18.402  0.00  0.00    +0.000 C 
ENDBRANCH   6   9
ENDBRANCH   1   3
BRANCH   1  12
ATOM     12  O   UNL     1       2.368   5.484  20.349  0.00  0.00    +0.000 OA
BRANCH  12  13
ATOM     13  C   UNL     1       1.338   4.501  20.452  0.00  0.00    +0.000 C 
BRANCH  13  15
ATOM     14  C   UNL     1       1.613   2.407  21.857  0.00  0.00    +0.000 C 
ATOM     15  C   UNL     1       1.883   3.067  20.505  0.00  0.00    +0.000 C 
ATOM     16  C   UNL     1       1.332   2.201  19.375  0.00  0.00    +0.000 C 
ENDBRANCH  13  15
ENDBRANCH  12  13
ENDBRANCH   1  12
BRANCH   1  17
ATOM     17  C   UNL     1       4.417   6.029  18.654  0.00  0.00    +0.000 C 
BRANCH  17  18
ATOM     18  C   UNL     1       4.908   5.518  17.315  0.00  0.00    +0.000 A 
ATOM     19  C   UNL     1       5.047   6.366  16.204  0.00  0.00    +0.000 A 
ATOM     20  C   UNL     1       5.454   5.854  14.966  0.00  0.00    +0.000 A 
ATOM     21  C   UNL     1       5.724   4.494  14.826  0.00  0.00    +0.000 A 
ATOM     22 BR   UNL     1       6.229   3.794  13.145  0.00  0.00    +0.000 Br
ATOM     23  C   UNL     1       5.615   3.642  15.920  0.00  0.00    +0.000 A 
ATOM     24  C   UNL     1       5.218   4.157  17.158  0.00  0.00    +0.000 A 
ENDBRANCH  17  18
BRANCH  17  25
ATOM     25  O   UNL     1       4.944   5.186  19.693  0.00  0.00    +0.000 OA
ATOM     26  H   UNL     1       4.252   5.135  20.379  0.00  0.00    +0.000 HD
ENDBRANCH  17  25
ENDBRANCH   1  17
TORSDOF 8
ENDMDL
MODEL 4
REMARK VINA RESULT:      -7.3      0.975      1.249
REMARK  Name = 
REMARK  12 active torsions:
REMARK  status: ('A' for Active; 'I' for Inactive)
REMARK    1  A    between atoms: C_1  and  C_2
REMARK    2  A    between atoms: C_2  and  C_3
REMARK    3  A    between atoms: C_2  and  C_4
REMARK    4  A    between atoms: C_4  and  O_5
REMARK    5  A    between atoms: O_5  and  P_6
REMARK    6  A    between atoms: P_6  and  C_8
REMARK    7  A    between atoms: P_6  and  C_17
REMARK    8  A    between atoms: C_11  and  N_12
REMARK    9  A    between atoms: N_12  and  C_13
REMARK   10  A    between atoms: N_12  and  C_14
REMARK   11  A    between atoms: C_17  and  O_18
REMARK   12  A    between atoms: C_17  and  C_19
REMARK                            x       y       z     vdW  Elec       q    Type
REMARK                         _______ _______ _______ _____ _____    ______ ____
ROOT
ATOM      1  P   UNL     1       2.983   5.711  18.660  0.00  0.00    +0.000 P 
ATOM      2  O   UNL     1       2.208   5.002  17.578  0.00  0.00    +0.000 OA
ENDROOT
BRANCH   1   3
ATOM      3  C   UNL     1       2.368   7.284  19.176  0.00  0.00    +0.000 A 
ATOM      4  C   UNL     1       2.195   8.371  18.317  0.00  0.00    +0.000 A 
ATOM      5  C   UNL     1       1.411   9.468  18.713  0.00  0.00    +0.000 A 
ATOM      6  C   UNL     1       0.774   9.511  19.965  0.00  0.00    +0.000 A 
ATOM      7  C   UNL     1       1.126   8.492  20.865  0.00  0.00    +0.000 A 
ATOM      8  C   UNL     1       1.891   7.393  20.481  0.00  0.00    +0.000 A 
BRANCH   6   9
ATOM      9  N   UNL     1      -0.139  10.505  20.350  0.00  0.00    +0.000 N 
ATOM     10  C   UNL     1      -1.147  10.867  19.337  0.00  0.00    +0.000 C 
ATOM     11  C   UNL     1       0.339  11.672  21.096  0.00  0.00    +0.000 C 
ENDBRANCH   6   9
ENDBRANCH   1   3
BRANCH   1  12
ATOM     12  O   UNL     1       3.128   4.753  19.983  0.00  0.00    +0.000 OA
BRANCH  12  13
ATOM     13  C   UNL     1       3.186   3.352  19.715  0.00  0.00    +0.000 C 
BRANCH  13  15
ATOM     14  C   UNL     1       1.727   3.050  21.767  0.00  0.00    +0.000 C 
ATOM     15  C   UNL     1       2.024   2.573  20.346  0.00  0.00    +0.000 C 
ATOM     16  C   UNL     1       0.760   2.636  19.492  0.00  0.00    +0.000 C 
ENDBRANCH  13  15
ENDBRANCH  12  13
ENDBRANCH   1  12
BRANCH   1  17
ATOM     17  C   UNL     1       4.761   5.985  18.199  0.00  0.00    +0.000 C 
BRANCH  17  18
ATOM     18  C   UNL     1       5.188   5.426  16.856  0.00  0.00    +0.000 A 
ATOM     19  C   UNL     1       5.261   6.232  15.708  0.00  0.00    +0.000 A 
ATOM     20  C   UNL     1       5.608   5.676  14.471  0.00  0.00    +0.000 A 
ATOM     21  C   UNL     1       5.883   4.313  14.369  0.00  0.00    +0.000 A 
ATOM     22 BR   UNL     1       6.306   3.552  12.692  0.00  0.00    +0.000 Br
ATOM     23  C   UNL     1       5.838   3.503  15.499  0.00  0.00    +0.000 A 
ATOM     24  C   UNL     1       5.501   4.062  16.736  0.00  0.00    +0.000 A 
ENDBRANCH  17  18
BRANCH  17  25
ATOM     25  O   UNL     1       5.592   5.410  19.223  0.00  0.00    +0.000 OA
ATOM     26  H   UNL     1       5.105   5.523  20.062  0.00  0.00    +0.000 HD
ENDBRANCH  17  25
ENDBRANCH   1  17
TORSDOF 8
ENDMDL
MODEL 5
REMARK VINA RESULT:      -7.2      1.075      1.252
REMARK  Name = 
REMARK  12 active torsions:
REMARK  status: ('A' for Active; 'I' for Inactive)
REMARK    1  A    between atoms: C_1  and  C_2
REMARK    2  A    between atoms: C_2  and  C_3
REMARK    3  A    between atoms: C_2  and  C_4
REMARK    4  A    between atoms: C_4  and  O_5
REMARK    5  A    between atoms: O_5  and  P_6
REMARK    6  A    between atoms: P_6  and  C_8
REMARK    7  A    between atoms: P_6  and  C_17
REMARK    8  A    between atoms: C_11  and  N_12
REMARK    9  A    between atoms: N_12  and  C_13
REMARK   10  A    between atoms: N_12  and  C_14
REMARK   11  A    between atoms: C_17  and  O_18
REMARK   12  A    between atoms: C_17  and  C_19
REMARK                            x       y       z     vdW  Elec       q    Type
REMARK                         _______ _______ _______ _____ _____    ______ ____
ROOT
ATOM      1  P   UNL     1       3.323   5.767  18.547  0.00  0.00    +0.000 P 
ATOM      2  O   UNL     1       2.570   4.813  17.654  0.00  0.00    +0.000 OA
ENDROOT
BRANCH   1   3
ATOM      3  C   UNL     1       2.599   7.359  18.795  0.00  0.00    +0.000 A 
ATOM      4  C   UNL     1       2.427   8.302  17.781  0.00  0.00    +0.000 A 
ATOM      5  C   UNL     1       1.565   9.396  17.971  0.00  0.00    +0.000 A 
ATOM      6  C   UNL     1       0.849   9.578  19.166  0.00  0.00    +0.000 A 
ATOM      7  C   UNL     1       1.194   8.718  20.221  0.00  0.00    +0.000 A 
ATOM      8  C   UNL     1       2.036   7.622  20.043  0.00  0.00    +0.000 A 
BRANCH   6   9
ATOM      9  N   UNL     1      -0.135  10.562  19.352  0.00  0.00    +0.000 N 
ATOM     10  C   UNL     1      -0.526  10.811  20.751  0.00  0.00    +0.000 C 
ATOM     11  C   UNL     1      -1.280  10.617  18.440  0.00  0.00    +0.000 C 
ENDBRANCH   6   9
ENDBRANCH   1   3
BRANCH   1  12
ATOM     12  O   UNL     1       3.593   5.086  20.014  0.00  0.00    +0.000 OA
BRANCH  12  13
ATOM     13  C   UNL     1       3.095   3.758  20.169  0.00  0.00    +0.000 C 
BRANCH  13  15
ATOM     14  C   UNL     1       0.561   3.859  20.225  0.00  0.00    +0.000 C 
ATOM     15  C   UNL     1       1.839   3.688  21.047  0.00  0.00    +0.000 C 
ATOM     16  C   UNL     1       1.776   2.396  21.858  0.00  0.00    +0.000 C 
ENDBRANCH  13  15
ENDBRANCH  12  13
ENDBRANCH   1  12
BRANCH   1  17
ATOM     17  C   UNL     1       5.054   6.081  17.954  0.00  0.00    +0.000 C 
BRANCH  17  18
ATOM     18  C   UNL     1       5.414   5.471  16.615  0.00  0.00    +0.000 A 
ATOM     19  C   UNL     1       5.296   6.194  15.416  0.00  0.00    +0.000 A 
ATOM     20  C   UNL     1       5.586   5.585  14.189  0.00  0.00    +0.000 A 
ATOM     21  C   UNL     1       5.993   4.254  14.147  0.00  0.00    +0.000 A 
ATOM     22 BR   UNL     1       6.341   3.418  12.488  0.00  0.00    +0.000 Br
ATOM     23  C   UNL     1       6.138   3.528  15.325  0.00  0.00    +0.000 A 
ATOM     24  C   UNL     1       5.858   4.140  16.551  0.00  0.00    +0.000 A 
ENDBRANCH  17  18
BRANCH  17  25
ATOM     25  O   UNL     1       5.972   5.590  18.947  0.00  0.00    +0.000 OA
ATOM     26  H   UNL     1       6.489   4.885  18.513  0.00  0.00    +0.000 HD
ENDBRANCH  17  25
ENDBRANCH   1  17
TORSDOF 8
ENDMDL
MODEL 6
REMARK VINA RESULT:      -7.2      1.111      1.839
REMARK  Name = 
REMARK  12 active torsions:
REMARK  status: ('A' for Active; 'I' for Inactive)
REMARK    1  A    between atoms: C_1  and  C_2
REMARK    2  A    between atoms: C_2  and  C_3
REMARK    3  A    between atoms: C_2  and  C_4
REMARK    4  A    between atoms: C_4  and  O_5
REMARK    5  A    between atoms: O_5  and  P_6
REMARK    6  A    between atoms: P_6  and  C_8
REMARK    7  A    between atoms: P_6  and  C_17
REMARK    8  A    between atoms: C_11  and  N_12
REMARK    9  A    between atoms: N_12  and  C_13
REMARK   10  A    between atoms: N_12  and  C_14
REMARK   11  A    between atoms: C_17  and  O_18
REMARK   12  A    between atoms: C_17  and  C_19
REMARK                            x       y       z     vdW  Elec       q    Type
REMARK                         _______ _______ _______ _____ _____    ______ ____
ROOT
ATOM      1  P   UNL     1       2.867   5.627  18.798  0.00  0.00    +0.000 P 
ATOM      2  O   UNL     1       2.053   4.990  17.700  0.00  0.00    +0.000 OA
ENDROOT
BRANCH   1   3
ATOM      3  C   UNL     1       2.258   7.148  19.456  0.00  0.00    +0.000 A 
ATOM      4  C   UNL     1       2.089   8.310  18.700  0.00  0.00    +0.000 A 
ATOM      5  C   UNL     1       1.309   9.369  19.195  0.00  0.00    +0.000 A 
ATOM      6  C   UNL     1       0.671   9.299  20.446  0.00  0.00    +0.000 A 
ATOM      7  C   UNL     1       1.019   8.201  21.249  0.00  0.00    +0.000 A 
ATOM      8  C   UNL     1       1.781   7.138  20.766  0.00  0.00    +0.000 A 
BRANCH   6   9
ATOM      9  N   UNL     1      -0.238  10.257  20.920  0.00  0.00    +0.000 N 
ATOM     10  C   UNL     1      -0.211  11.556  20.225  0.00  0.00    +0.000 C 
ATOM     11  C   UNL     1      -0.439  10.407  22.364  0.00  0.00    +0.000 C 
ENDBRANCH   6   9
ENDBRANCH   1   3
BRANCH   1  12
ATOM     12  O   UNL     1       3.080   4.575  20.038  0.00  0.00    +0.000 OA
BRANCH  12  13
ATOM     13  C   UNL     1       3.069   3.195  19.673  0.00  0.00    +0.000 C 
BRANCH  13  15
ATOM     14  C   UNL     1       1.317   3.069  21.502  0.00  0.00    +0.000 C 
ATOM     15  C   UNL     1       1.845   2.443  20.211  0.00  0.00    +0.000 C 
ATOM     16  C   UNL     1       0.727   2.347  19.175  0.00  0.00    +0.000 C 
ENDBRANCH  13  15
ENDBRANCH  12  13
ENDBRANCH   1  12
BRANCH   1  17
ATOM     17  C   UNL     1       4.621   5.960  18.284  0.00  0.00    +0.000 C 
BRANCH  17  18
ATOM     18  C   UNL     1       5.033   5.389  16.942  0.00  0.00    +0.000 A 
ATOM     19  C   UNL     1       5.302   4.021  16.770  0.00  0.00    +0.000 A 
ATOM     20  C   UNL     1       5.731   3.531  15.531  0.00  0.00    +0.000 A 
ATOM     21  C   UNL     1       5.898   4.401  14.455  0.00  0.00    +0.000 A 
ATOM     22 BR   UNL     1       6.521   3.750  12.794  0.00  0.00    +0.000 Br
ATOM     23  C   UNL     1       5.614   5.755  14.599  0.00  0.00    +0.000 A 
ATOM     24  C   UNL     1       5.176   6.241  15.835  0.00  0.00    +0.000 A 
ENDBRANCH  17  18
BRANCH  17  25
ATOM     25  O   UNL     1       5.499   5.440  19.297  0.00  0.00    +0.000 OA
ATOM     26  H   UNL     1       5.100   5.685  20.154  0.00  0.00    +0.000 HD
ENDBRANCH  17  25
ENDBRANCH   1  17
TORSDOF 8
ENDMDL
MODEL 7
REMARK VINA RESULT:      -7.1      1.352      1.852
REMARK  Name = 
REMARK  12 active torsions:
REMARK  status: ('A' for Active; 'I' for Inactive)
REMARK    1  A    between atoms: C_1  and  C_2
REMARK    2  A    between atoms: C_2  and  C_3
REMARK    3  A    between atoms: C_2  and  C_4
REMARK    4  A    between atoms: C_4  and  O_5
REMARK    5  A    between atoms: O_5  and  P_6
REMARK    6  A    between atoms: P_6  and  C_8
REMARK    7  A    between atoms: P_6  and  C_17
REMARK    8  A    between atoms: C_11  and  N_12
REMARK    9  A    between atoms: N_12  and  C_13
REMARK   10  A    between atoms: N_12  and  C_14
REMARK   11  A    between atoms: C_17  and  O_18
REMARK   12  A    between atoms: C_17  and  C_19
REMARK                            x       y       z     vdW  Elec       q    Type
REMARK                         _______ _______ _______ _____ _____    ______ ____
ROOT
ATOM      1  P   UNL     1       3.752   4.800  18.342  0.00  0.00    +0.000 P 
ATOM      2  O   UNL     1       2.977   3.970  17.350  0.00  0.00    +0.000 OA
ENDROOT
BRANCH   1   3
ATOM      3  C   UNL     1       3.181   6.448  18.616  0.00  0.00    +0.000 A 
ATOM      4  C   UNL     1       3.231   7.459  17.654  0.00  0.00    +0.000 A 
ATOM      5  C   UNL     1       2.477   8.633  17.821  0.00  0.00    +0.000 A 
ATOM      6  C   UNL     1       1.651   8.831  18.941  0.00  0.00    +0.000 A 
ATOM      7  C   UNL     1       1.775   7.881  19.968  0.00  0.00    +0.000 A 
ATOM      8  C   UNL     1       2.508   6.707  19.810  0.00  0.00    +0.000 A 
BRANCH   6   9
ATOM      9  N   UNL     1       0.764   9.910  19.084  0.00  0.00    +0.000 N 
ATOM     10  C   UNL     1       1.329  11.238  18.786  0.00  0.00    +0.000 C 
ATOM     11  C   UNL     1      -0.153   9.942  20.226  0.00  0.00    +0.000 C 
ENDBRANCH   6   9
ENDBRANCH   1   3
BRANCH   1  12
ATOM     12  O   UNL     1       3.834   4.033  19.790  0.00  0.00    +0.000 OA
BRANCH  12  13
ATOM     13  C   UNL     1       3.042   2.850  19.896  0.00  0.00    +0.000 C 
BRANCH  13  15
ATOM     14  C   UNL     1       0.581   2.578  19.346  0.00  0.00    +0.000 C 
ATOM     15  C   UNL     1       1.601   3.133  20.341  0.00  0.00    +0.000 C 
ATOM     16  C   UNL     1       1.317   2.599  21.743  0.00  0.00    +0.000 C 
ENDBRANCH  13  15
ENDBRANCH  12  13
ENDBRANCH   1  12
BRANCH   1  17
ATOM     17  C   UNL     1       5.549   4.950  17.896  0.00  0.00    +0.000 C 
BRANCH  17  18
ATOM     18  C   UNL     1       5.881   4.763  16.429  0.00  0.00    +0.000 A 
ATOM     19  C   UNL     1       5.067   3.997  15.578  0.00  0.00    +0.000 A 
ATOM     20  C   UNL     1       5.428   3.799  14.239  0.00  0.00    +0.000 A 
ATOM     21  C   UNL     1       6.601   4.361  13.741  0.00  0.00    +0.000 A 
ATOM     22 BR   UNL     1       7.114   4.058  11.947  0.00  0.00    +0.000 Br
ATOM     23  C   UNL     1       7.408   5.142  14.562  0.00  0.00    +0.000 A 
ATOM     24  C   UNL     1       7.041   5.347  15.896  0.00  0.00    +0.000 A 
ENDBRANCH  17  18
BRANCH  17  25
ATOM     25  O   UNL     1       6.291   3.988  18.664  0.00  0.00    +0.000 OA
ATOM     26  H   UNL     1       6.991   3.650  18.074  0.00  0.00    +0.000 HD
ENDBRANCH  17  25
ENDBRANCH   1  17
TORSDOF 8
ENDMDL
MODEL 8
REMARK VINA RESULT:      -7.0      0.583      1.146
REMARK  Name = 
REMARK  12 active torsions:
REMARK  status: ('A' for Active; 'I' for Inactive)
REMARK    1  A    between atoms: C_1  and  C_2
REMARK    2  A    between atoms: C_2  and  C_3
REMARK    3  A    between atoms: C_2  and  C_4
REMARK    4  A    between atoms: C_4  and  O_5
REMARK    5  A    between atoms: O_5  and  P_6
REMARK    6  A    between atoms: P_6  and  C_8
REMARK    7  A    between atoms: P_6  and  C_17
REMARK    8  A    between atoms: C_11  and  N_12
REMARK    9  A    between atoms: N_12  and  C_13
REMARK   10  A    between atoms: N_12  and  C_14
REMARK   11  A    between atoms: C_17  and  O_18
REMARK   12  A    between atoms: C_17  and  C_19
REMARK                            x       y       z     vdW  Elec       q    Type
REMARK                         _______ _______ _______ _____ _____    ______ ____
ROOT
ATOM      1  P   UNL     1       2.498   5.911  18.806  0.00  0.00    +0.000 P 
ATOM      2  O   UNL     1       1.873   5.024  17.759  0.00  0.00    +0.000 OA
ENDROOT
BRANCH   1   3
ATOM      3  C   UNL     1       1.891   7.566  18.909  0.00  0.00    +0.000 A 
ATOM      4  C   UNL     1       1.402   8.144  20.082  0.00  0.00    +0.000 A 
ATOM      5  C   UNL     1       1.243   9.538  20.171  0.00  0.00    +0.000 A 
ATOM      6  C   UNL     1       1.573  10.392  19.105  0.00  0.00    +0.000 A 
ATOM      7  C   UNL     1       1.879   9.760  17.889  0.00  0.00    +0.000 A 
ATOM      8  C   UNL     1       2.052   8.381  17.789  0.00  0.00    +0.000 A 
BRANCH   6   9
ATOM      9  N   UNL     1       1.580  11.793  19.192  0.00  0.00    +0.000 N 
ATOM     10  C   UNL     1       0.270  12.418  19.447  0.00  0.00    +0.000 C 
ATOM     11  C   UNL     1       2.389  12.569  18.250  0.00  0.00    +0.000 C 
ENDBRANCH   6   9
ENDBRANCH   1   3
BRANCH   1  12
ATOM     12  O   UNL     1       2.374   5.221  20.289  0.00  0.00    +0.000 OA
BRANCH  12  13
ATOM     13  C   UNL     1       1.140   4.551  20.546  0.00  0.00    +0.000 C 
BRANCH  13  15
ATOM     14  C   UNL     1       1.342   2.250  19.499  0.00  0.00    +0.000 C 
ATOM     15  C   UNL     1       1.317   3.048  20.802  0.00  0.00    +0.000 C 
ATOM     16  C   UNL     1       2.566   2.750  21.629  0.00  0.00    +0.000 C 
ENDBRANCH  13  15
ENDBRANCH  12  13
ENDBRANCH   1  12
BRANCH   1  17
ATOM     17  C   UNL     1       4.339   6.053  18.612  0.00  0.00    +0.000 C 
BRANCH  17  18
ATOM     18  C   UNL     1       4.903   5.561  17.295  0.00  0.00    +0.000 A 
ATOM     19  C   UNL     1       5.022   6.406  16.179  0.00  0.00    +0.000 A 
ATOM     20  C   UNL     1       5.499   5.909  14.959  0.00  0.00    +0.000 A 
ATOM     21  C   UNL     1       5.858   4.568  14.843  0.00  0.00    +0.000 A 
ATOM     22 BR   UNL     1       6.457   3.885  13.187  0.00  0.00    +0.000 Br
ATOM     23  C   UNL     1       5.769   3.721  15.943  0.00  0.00    +0.000 A 
ATOM     24  C   UNL     1       5.303   4.221  17.163  0.00  0.00    +0.000 A 
ENDBRANCH  17  18
BRANCH  17  25
ATOM     25  O   UNL     1       4.968   5.328  19.684  0.00  0.00    +0.000 OA
ATOM     26  H   UNL     1       5.929   5.381  19.520  0.00  0.00    +0.000 HD
ENDBRANCH  17  25
ENDBRANCH   1  17
TORSDOF 8
ENDMDL
MODEL 9
REMARK VINA RESULT:      -6.9      1.185      1.483
REMARK  Name = 
REMARK  12 active torsions:
REMARK  status: ('A' for Active; 'I' for Inactive)
REMARK    1  A    between atoms: C_1  and  C_2
REMARK    2  A    between atoms: C_2  and  C_3
REMARK    3  A    between atoms: C_2  and  C_4
REMARK    4  A    between atoms: C_4  and  O_5
REMARK    5  A    between atoms: O_5  and  P_6
REMARK    6  A    between atoms: P_6  and  C_8
REMARK    7  A    between atoms: P_6  and  C_17
REMARK    8  A    between atoms: C_11  and  N_12
REMARK    9  A    between atoms: N_12  and  C_13
REMARK   10  A    between atoms: N_12  and  C_14
REMARK   11  A    between atoms: C_17  and  O_18
REMARK   12  A    between atoms: C_17  and  C_19
REMARK                            x       y       z     vdW  Elec       q    Type
REMARK                         _______ _______ _______ _____ _____    ______ ____
ROOT
ATOM      1  P   UNL     1       3.579   5.139  18.461  0.00  0.00    +0.000 P 
ATOM      2  O   UNL     1       2.842   4.308  17.441  0.00  0.00    +0.000 OA
ENDROOT
BRANCH   1   3
ATOM      3  C   UNL     1       2.951   6.761  18.765  0.00  0.00    +0.000 A 
ATOM      4  C   UNL     1       2.931   7.780  17.811  0.00  0.00    +0.000 A 
ATOM      5  C   UNL     1       2.136   8.921  18.010  0.00  0.00    +0.000 A 
ATOM      6  C   UNL     1       1.337   9.078  19.156  0.00  0.00    +0.000 A 
ATOM      7  C   UNL     1       1.531   8.127  20.170  0.00  0.00    +0.000 A 
ATOM      8  C   UNL     1       2.305   6.984  19.981  0.00  0.00    +0.000 A 
BRANCH   6   9
ATOM      9  N   UNL     1       0.413  10.119  19.334  0.00  0.00    +0.000 N 
ATOM     10  C   UNL     1       0.845  11.441  18.848  0.00  0.00    +0.000 C 
ATOM     11  C   UNL     1      -0.337  10.210  20.590  0.00  0.00    +0.000 C 
ENDBRANCH   6   9
ENDBRANCH   1   3
BRANCH   1  12
ATOM     12  O   UNL     1       3.671   4.343  19.892  0.00  0.00    +0.000 OA
BRANCH  12  13
ATOM     13  C   UNL     1       3.014   3.076  19.925  0.00  0.00    +0.000 C 
BRANCH  13  15
ATOM     14  C   UNL     1       0.615   2.468  19.369  0.00  0.00    +0.000 C 
ATOM     15  C   UNL     1       1.545   3.174  20.356  0.00  0.00    +0.000 C 
ATOM     16  C   UNL     1       1.323   2.636  21.768  0.00  0.00    +0.000 C 
ENDBRANCH  13  15
ENDBRANCH  12  13
ENDBRANCH   1  12
BRANCH   1  17
ATOM     17  C   UNL     1       5.374   5.358  18.038  0.00  0.00    +0.000 C 
BRANCH  17  18
ATOM     18  C   UNL     1       5.777   4.942  16.638  0.00  0.00    +0.000 A 
ATOM     19  C   UNL     1       6.932   5.446  16.019  0.00  0.00    +0.000 A 
ATOM     20  C   UNL     1       7.250   5.082  14.704  0.00  0.00    +0.000 A 
ATOM     21  C   UNL     1       6.419   4.215  13.999  0.00  0.00    +0.000 A 
ATOM     22 BR   UNL     1       6.822   3.759  12.210  0.00  0.00    +0.000 Br
ATOM     23  C   UNL     1       5.283   3.686  14.603  0.00  0.00    +0.000 A 
ATOM     24  C   UNL     1       4.972   4.043  15.918  0.00  0.00    +0.000 A 
ENDBRANCH  17  18
BRANCH  17  25
ATOM     25  O   UNL     1       6.160   4.614  18.986  0.00  0.00    +0.000 OA
ATOM     26  H   UNL     1       7.007   4.419  18.542  0.00  0.00    +0.000 HD
ENDBRANCH  17  25
ENDBRANCH   1  17
TORSDOF 8
ENDMDL
