MODEL 1
REMARK VINA RESULT:      -8.2      0.000      0.000
REMARK  Name = 
REMARK  9 active torsions:
REMARK  status: ('A' for Active; 'I' for Inactive)
REMARK    1  A    between atoms: C_1  and  O_2
REMARK    2  A    between atoms: O_2  and  C_3
REMARK    3  A    between atoms: C_6  and  C_7
REMARK    4  A    between atoms: C_10  and  C_11
REMARK    5  A    between atoms: C_11  and  O_12
REMARK    6  A    between atoms: O_12  and  C_13
REMARK    7  A    between atoms: C_17  and  C_18
REMARK    8  A    between atoms: C_26  and  O_27
REMARK    9  A    between atoms: O_27  and  C_28
REMARK                            x       y       z     vdW  Elec       q    Type
REMARK                         _______ _______ _______ _____ _____    ______ ____
ROOT
ATOM      1  C   UNL     1      -0.481  11.668  20.271  0.00  0.00    +0.000 C 
ATOM      2  N   UNL     1       0.566  12.403  20.090  0.00  0.00    +0.000 NA
ATOM      3  O   UNL     1       1.378  11.767  19.125  0.00  0.00    +0.000 OA
ATOM      4  C   UNL     1       0.604  10.731  18.493  0.00  0.00    +0.000 C 
ATOM      5  C   UNL     1      -0.514  10.421  19.464  0.00  0.00    +0.000 C 
ENDROOT
BRANCH   1   9
ATOM      6  C   UNL     1      -3.677  12.607  22.983  0.00  0.00    +0.000 A 
ATOM      7  C   UNL     1      -3.764  12.937  21.632  0.00  0.00    +0.000 A 
ATOM      8  C   UNL     1      -2.713  12.633  20.759  0.00  0.00    +0.000 A 
ATOM      9  C   UNL     1      -1.562  11.985  21.232  0.00  0.00    +0.000 A 
ATOM     10  C   UNL     1      -1.473  11.642  22.598  0.00  0.00    +0.000 A 
ATOM     11  C   UNL     1      -2.532  11.960  23.452  0.00  0.00    +0.000 A 
BRANCH   6  13
ATOM     12  C   UNL     1      -6.010  13.058  23.050  0.00  0.00    +0.000 C 
ATOM     13  O   UNL     1      -4.764  12.963  23.733  0.00  0.00    +0.000 OA
ENDBRANCH   6  13
BRANCH  10  14
ATOM     14  O   UNL     1      -0.317  11.034  23.021  0.00  0.00    +0.000 OA
ATOM     15  C   UNL     1      -0.346   9.629  23.240  0.00  0.00    +0.000 C 
ENDBRANCH  10  14
ENDBRANCH   1   9
BRANCH   4  16
ATOM     16  C   UNL     1       1.505   9.531  18.237  0.00  0.00    +0.000 C 
BRANCH  16  17
ATOM     17  O   UNL     1       1.789   8.868  19.476  0.00  0.00    +0.000 OA
BRANCH  17  18
ATOM     18  C   UNL     1       2.045   7.527  19.409  0.00  0.00    +0.000 A 
ATOM     19  C   UNL     1       2.599   7.077  18.208  0.00  0.00    +0.000 A 
ATOM     20  C   UNL     1       2.919   5.723  18.020  0.00  0.00    +0.000 A 
ATOM     21  C   UNL     1       2.710   4.791  19.041  0.00  0.00    +0.000 A 
ATOM     22  C   UNL     1       3.156   3.390  19.000  0.00  0.00    +0.000 A 
ATOM     23  C   UNL     1       3.737   2.753  17.773  0.00  0.00    +0.000 C 
ATOM     24  C   UNL     1       3.048   2.662  20.123  0.00  0.00    +0.000 A 
ATOM     25  C   UNL     1       2.261   3.094  21.285  0.00  0.00    +0.000 A 
ATOM     26  O   UNL     1       1.964   2.299  22.167  0.00  0.00    +0.000 OA
ATOM     27  O   UNL     1       1.845   4.410  21.302  0.00  0.00    +0.000 OA
ATOM     28  C   UNL     1       2.125   5.263  20.219  0.00  0.00    +0.000 A 
ATOM     29  C   UNL     1       1.793   6.606  20.417  0.00  0.00    +0.000 A 
ENDBRANCH  17  18
ENDBRANCH  16  17
ENDBRANCH   4  16
TORSDOF 6
ENDMDL
MODEL 2
REMARK VINA RESULT:      -7.9      6.358     10.485
REMARK  Name = 
REMARK  9 active torsions:
REMARK  status: ('A' for Active; 'I' for Inactive)
REMARK    1  A    between atoms: C_1  and  O_2
REMARK    2  A    between atoms: O_2  and  C_3
REMARK    3  A    between atoms: C_6  and  C_7
REMARK    4  A    between atoms: C_10  and  C_11
REMARK    5  A    between atoms: C_11  and  O_12
REMARK    6  A    between atoms: O_12  and  C_13
REMARK    7  A    between atoms: C_17  and  C_18
REMARK    8  A    between atoms: C_26  and  O_27
REMARK    9  A    between atoms: O_27  and  C_28
REMARK                            x       y       z     vdW  Elec       q    Type
REMARK                         _______ _______ _______ _____ _____    ______ ____
ROOT
ATOM      1  C   UNL     1       5.572   6.274  17.428  0.00  0.00    +0.000 C 
ATOM      2  N   UNL     1       5.883   6.968  16.384  0.00  0.00    +0.000 NA
ATOM      3  O   UNL     1       7.121   7.598  16.639  0.00  0.00    +0.000 OA
ATOM      4  C   UNL     1       7.706   6.994  17.807  0.00  0.00    +0.000 C 
ATOM      5  C   UNL     1       6.550   6.352  18.543  0.00  0.00    +0.000 C 
ENDROOT
BRANCH   1   9
ATOM      6  C   UNL     1       2.006   3.906  17.796  0.00  0.00    +0.000 A 
ATOM      7  C   UNL     1       3.185   3.353  17.300  0.00  0.00    +0.000 A 
ATOM      8  C   UNL     1       4.339   4.137  17.177  0.00  0.00    +0.000 A 
ATOM      9  C   UNL     1       4.325   5.486  17.560  0.00  0.00    +0.000 A 
ATOM     10  C   UNL     1       3.136   6.048  18.071  0.00  0.00    +0.000 A 
ATOM     11  C   UNL     1       1.995   5.248  18.179  0.00  0.00    +0.000 A 
BRANCH   6  13
ATOM     12  C   UNL     1       0.729   2.390  19.107  0.00  0.00    +0.000 C 
ATOM     13  O   UNL     1       0.949   3.042  17.860  0.00  0.00    +0.000 OA
ENDBRANCH   6  13
BRANCH  10  14
ATOM     14  O   UNL     1       3.161   7.379  18.407  0.00  0.00    +0.000 OA
ATOM     15  C   UNL     1       2.184   8.232  17.824  0.00  0.00    +0.000 C 
ENDBRANCH  10  14
ENDBRANCH   1   9
BRANCH   4  16
ATOM     16  C   UNL     1       8.392   8.077  18.629  0.00  0.00    +0.000 C 
BRANCH  16  17
ATOM     17  O   UNL     1       8.773   9.163  17.776  0.00  0.00    +0.000 OA
BRANCH  17  18
ATOM     18  C   UNL     1       8.908  10.388  18.366  0.00  0.00    +0.000 A 
ATOM     19  C   UNL     1       9.354  10.375  19.690  0.00  0.00    +0.000 A 
ATOM     20  C   UNL     1       9.544  11.570  20.402  0.00  0.00    +0.000 A 
ATOM     21  C   UNL     1       9.310  12.808  19.796  0.00  0.00    +0.000 A 
ATOM     22  C   UNL     1       9.629  14.110  20.401  0.00  0.00    +0.000 A 
ATOM     23  C   UNL     1      10.086  14.262  21.821  0.00  0.00    +0.000 C 
ATOM     24  C   UNL     1       9.519  15.206  19.632  0.00  0.00    +0.000 A 
ATOM     25  C   UNL     1       8.837  15.206  18.332  0.00  0.00    +0.000 A 
ATOM     26  O   UNL     1       8.520  16.259  17.794  0.00  0.00    +0.000 OA
ATOM     27  O   UNL     1       8.538  13.975  17.783  0.00  0.00    +0.000 OA
ATOM     28  C   UNL     1       8.833  12.790  18.482  0.00  0.00    +0.000 A 
ATOM     29  C   UNL     1       8.631  11.609  17.764  0.00  0.00    +0.000 A 
ENDBRANCH  17  18
ENDBRANCH  16  17
ENDBRANCH   4  16
TORSDOF 6
ENDMDL
MODEL 3
REMARK VINA RESULT:      -7.8      3.789     10.107
REMARK  Name = 
REMARK  9 active torsions:
REMARK  status: ('A' for Active; 'I' for Inactive)
REMARK    1  A    between atoms: C_1  and  O_2
REMARK    2  A    between atoms: O_2  and  C_3
REMARK    3  A    between atoms: C_6  and  C_7
REMARK    4  A    between atoms: C_10  and  C_11
REMARK    5  A    between atoms: C_11  and  O_12
REMARK    6  A    between atoms: O_12  and  C_13
REMARK    7  A    between atoms: C_17  and  C_18
REMARK    8  A    between atoms: C_26  and  O_27
REMARK    9  A    between atoms: O_27  and  C_28
REMARK                            x       y       z     vdW  Elec       q    Type
REMARK                         _______ _______ _______ _____ _____    ______ ____
ROOT
ATOM      1  C   UNL     1       4.208   4.221  17.766  0.00  0.00    +0.000 C 
ATOM      2  N   UNL     1       4.241   3.270  18.639  0.00  0.00    +0.000 NA
ATOM      3  O   UNL     1       3.197   3.495  19.562  0.00  0.00    +0.000 OA
ATOM      4  C   UNL     1       2.317   4.496  19.017  0.00  0.00    +0.000 C 
ATOM      5  C   UNL     1       3.145   5.235  17.989  0.00  0.00    +0.000 C 
ENDROOT
BRANCH   1   9
ATOM      6  C   UNL     1       6.911   4.616  14.450  0.00  0.00    +0.000 A 
ATOM      7  C   UNL     1       5.545   4.428  14.243  0.00  0.00    +0.000 A 
ATOM      8  C   UNL     1       4.676   4.293  15.332  0.00  0.00    +0.000 A 
ATOM      9  C   UNL     1       5.166   4.353  16.645  0.00  0.00    +0.000 A 
ATOM     10  C   UNL     1       6.546   4.552  16.859  0.00  0.00    +0.000 A 
ATOM     11  C   UNL     1       7.397   4.679  15.757  0.00  0.00    +0.000 A 
BRANCH   6  13
ATOM     12  C   UNL     1       7.111   4.142  12.130  0.00  0.00    +0.000 C 
ATOM     13  O   UNL     1       7.656   4.727  13.309  0.00  0.00    +0.000 OA
ENDBRANCH   6  13
BRANCH  10  14
ATOM     14  O   UNL     1       6.985   4.577  18.160  0.00  0.00    +0.000 OA
ATOM     15  C   UNL     1       7.382   5.830  18.704  0.00  0.00    +0.000 C 
ENDBRANCH  10  14
ENDBRANCH   1   9
BRANCH   4  16
ATOM     16  C   UNL     1       1.843   5.402  20.145  0.00  0.00    +0.000 C 
BRANCH  16  17
ATOM     17  O   UNL     1       2.602   6.618  20.139  0.00  0.00    +0.000 OA
BRANCH  17  18
ATOM     18  C   UNL     1       1.889   7.784  20.152  0.00  0.00    +0.000 A 
ATOM     19  C   UNL     1       1.725   8.406  18.912  0.00  0.00    +0.000 A 
ATOM     20  C   UNL     1       1.001   9.603  18.792  0.00  0.00    +0.000 A 
ATOM     21  C   UNL     1       0.409  10.195  19.911  0.00  0.00    +0.000 A 
ATOM     22  C   UNL     1      -0.496  11.354  19.865  0.00  0.00    +0.000 A 
ATOM     23  C   UNL     1      -0.747  12.146  18.617  0.00  0.00    +0.000 C 
ATOM     24  C   UNL     1      -1.133  11.701  20.996  0.00  0.00    +0.000 A 
ATOM     25  C   UNL     1      -0.765  11.173  22.316  0.00  0.00    +0.000 A 
ATOM     26  O   UNL     1      -1.177  11.709  23.337  0.00  0.00    +0.000 OA
ATOM     27  O   UNL     1       0.090  10.091  22.340  0.00  0.00    +0.000 OA
ATOM     28  C   UNL     1       0.617   9.569  21.143  0.00  0.00    +0.000 A 
ATOM     29  C   UNL     1       1.342   8.382  21.279  0.00  0.00    +0.000 A 
ENDBRANCH  17  18
ENDBRANCH  16  17
ENDBRANCH   4  16
TORSDOF 6
ENDMDL
MODEL 4
REMARK VINA RESULT:      -7.8      6.850     10.893
REMARK  Name = 
REMARK  9 active torsions:
REMARK  status: ('A' for Active; 'I' for Inactive)
REMARK    1  A    between atoms: C_1  and  O_2
REMARK    2  A    between atoms: O_2  and  C_3
REMARK    3  A    between atoms: C_6  and  C_7
REMARK    4  A    between atoms: C_10  and  C_11
REMARK    5  A    between atoms: C_11  and  O_12
REMARK    6  A    between atoms: O_12  and  C_13
REMARK    7  A    between atoms: C_17  and  C_18
REMARK    8  A    between atoms: C_26  and  O_27
REMARK    9  A    between atoms: O_27  and  C_28
REMARK                            x       y       z     vdW  Elec       q    Type
REMARK                         _______ _______ _______ _____ _____    ______ ____
ROOT
ATOM      1  C   UNL     1       5.785   6.326  17.410  0.00  0.00    +0.000 C 
ATOM      2  N   UNL     1       6.122   7.025  16.378  0.00  0.00    +0.000 NA
ATOM      3  O   UNL     1       7.327   7.695  16.686  0.00  0.00    +0.000 OA
ATOM      4  C   UNL     1       7.875   7.115  17.884  0.00  0.00    +0.000 C 
ATOM      5  C   UNL     1       6.708   6.440  18.570  0.00  0.00    +0.000 C 
ENDROOT
BRANCH   1   9
ATOM      6  C   UNL     1       2.174   4.012  17.664  0.00  0.00    +0.000 A 
ATOM      7  C   UNL     1       2.223   5.318  18.147  0.00  0.00    +0.000 A 
ATOM      8  C   UNL     1       3.408   6.059  18.066  0.00  0.00    +0.000 A 
ATOM      9  C   UNL     1       4.558   5.500  17.489  0.00  0.00    +0.000 A 
ATOM     10  C   UNL     1       4.511   4.181  16.992  0.00  0.00    +0.000 A 
ATOM     11  C   UNL     1       3.319   3.457  17.088  0.00  0.00    +0.000 A 
BRANCH   6  13
ATOM     12  C   UNL     1       0.882   2.370  18.797  0.00  0.00    +0.000 C 
ATOM     13  O   UNL     1       0.965   3.391  17.808  0.00  0.00    +0.000 OA
ENDBRANCH   6  13
BRANCH  10  14
ATOM     14  O   UNL     1       5.668   3.665  16.461  0.00  0.00    +0.000 OA
ATOM     15  C   UNL     1       5.833   3.717  15.050  0.00  0.00    +0.000 C 
ENDBRANCH  10  14
ENDBRANCH   1   9
BRANCH   4  16
ATOM     16  C   UNL     1       8.489   8.222  18.730  0.00  0.00    +0.000 C 
BRANCH  16  17
ATOM     17  O   UNL     1       8.866   9.320  17.890  0.00  0.00    +0.000 OA
BRANCH  17  18
ATOM     18  C   UNL     1       8.987  10.540  18.494  0.00  0.00    +0.000 A 
ATOM     19  C   UNL     1       9.301  10.512  19.854  0.00  0.00    +0.000 A 
ATOM     20  C   UNL     1       9.465  11.700  20.585  0.00  0.00    +0.000 A 
ATOM     21  C   UNL     1       9.336  12.945  19.962  0.00  0.00    +0.000 A 
ATOM     22  C   UNL     1       9.642  14.236  20.598  0.00  0.00    +0.000 A 
ATOM     23  C   UNL     1       9.963  14.372  22.056  0.00  0.00    +0.000 C 
ATOM     24  C   UNL     1       9.647  15.333  19.825  0.00  0.00    +0.000 A 
ATOM     25  C   UNL     1       9.096  15.357  18.464  0.00  0.00    +0.000 A 
ATOM     26  O   UNL     1       8.871  16.421  17.901  0.00  0.00    +0.000 OA
ATOM     27  O   UNL     1       8.807  14.137  17.886  0.00  0.00    +0.000 OA
ATOM     28  C   UNL     1       8.989  12.943  18.608  0.00  0.00    +0.000 A 
ATOM     29  C   UNL     1       8.815  11.769  17.871  0.00  0.00    +0.000 A 
ENDBRANCH  17  18
ENDBRANCH  16  17
ENDBRANCH   4  16
TORSDOF 6
ENDMDL
MODEL 5
REMARK VINA RESULT:      -7.8      3.882     10.354
REMARK  Name = 
REMARK  9 active torsions:
REMARK  status: ('A' for Active; 'I' for Inactive)
REMARK    1  A    between atoms: C_1  and  O_2
REMARK    2  A    between atoms: O_2  and  C_3
REMARK    3  A    between atoms: C_6  and  C_7
REMARK    4  A    between atoms: C_10  and  C_11
REMARK    5  A    between atoms: C_11  and  O_12
REMARK    6  A    between atoms: O_12  and  C_13
REMARK    7  A    between atoms: C_17  and  C_18
REMARK    8  A    between atoms: C_26  and  O_27
REMARK    9  A    between atoms: O_27  and  C_28
REMARK                            x       y       z     vdW  Elec       q    Type
REMARK                         _______ _______ _______ _____ _____    ______ ____
ROOT
ATOM      1  C   UNL     1       4.381   4.481  17.664  0.00  0.00    +0.000 C 
ATOM      2  N   UNL     1       4.505   3.598  18.599  0.00  0.00    +0.000 NA
ATOM      3  O   UNL     1       3.504   3.849  19.563  0.00  0.00    +0.000 OA
ATOM      4  C   UNL     1       2.552   4.771  19.002  0.00  0.00    +0.000 C 
ATOM      5  C   UNL     1       3.288   5.466  17.876  0.00  0.00    +0.000 C 
ENDROOT
BRANCH   1   9
ATOM      6  C   UNL     1       6.876   4.721  14.175  0.00  0.00    +0.000 A 
ATOM      7  C   UNL     1       5.570   4.242  14.090  0.00  0.00    +0.000 A 
ATOM      8  C   UNL     1       4.770   4.161  15.236  0.00  0.00    +0.000 A 
ATOM      9  C   UNL     1       5.268   4.569  16.482  0.00  0.00    +0.000 A 
ATOM     10  C   UNL     1       6.587   5.063  16.571  0.00  0.00    +0.000 A 
ATOM     11  C   UNL     1       7.370   5.129  15.415  0.00  0.00    +0.000 A 
BRANCH   6  13
ATOM     12  C   UNL     1       7.057   3.915  11.946  0.00  0.00    +0.000 C 
ATOM     13  O   UNL     1       7.558   4.744  12.991  0.00  0.00    +0.000 OA
ENDBRANCH   6  13
BRANCH  10  14
ATOM     14  O   UNL     1       7.042   5.425  17.815  0.00  0.00    +0.000 OA
ATOM     15  C   UNL     1       7.482   6.764  17.999  0.00  0.00    +0.000 C 
ENDBRANCH  10  14
ENDBRANCH   1   9
BRANCH   4  16
ATOM     16  C   UNL     1       2.103   5.738  20.089  0.00  0.00    +0.000 C 
BRANCH  16  17
ATOM     17  O   UNL     1       2.585   7.055  19.794  0.00  0.00    +0.000 OA
BRANCH  17  18
ATOM     18  C   UNL     1       1.745   8.094  20.083  0.00  0.00    +0.000 A 
ATOM     19  C   UNL     1       1.221   8.104  21.377  0.00  0.00    +0.000 A 
ATOM     20  C   UNL     1       0.356   9.127  21.801  0.00  0.00    +0.000 A 
ATOM     21  C   UNL     1       0.012  10.173  20.940  0.00  0.00    +0.000 A 
ATOM     22  C   UNL     1      -0.754  11.365  21.336  0.00  0.00    +0.000 A 
ATOM     23  C   UNL     1      -1.406  11.509  22.678  0.00  0.00    +0.000 C 
ATOM     24  C   UNL     1      -0.853  12.371  20.452  0.00  0.00    +0.000 A 
ATOM     25  C   UNL     1      -0.488  12.233  19.036  0.00  0.00    +0.000 A 
ATOM     26  O   UNL     1      -0.843  13.070  18.216  0.00  0.00    +0.000 OA
ATOM     27  O   UNL     1       0.223  11.104  18.682  0.00  0.00    +0.000 OA
ATOM     28  C   UNL     1       0.525  10.119  19.641  0.00  0.00    +0.000 A 
ATOM     29  C   UNL     1       1.379   9.104  19.203  0.00  0.00    +0.000 A 
ENDBRANCH  17  18
ENDBRANCH  16  17
ENDBRANCH   4  16
TORSDOF 6
ENDMDL
MODEL 6
REMARK VINA RESULT:      -7.7      2.414      9.864
REMARK  Name = 
REMARK  9 active torsions:
REMARK  status: ('A' for Active; 'I' for Inactive)
REMARK    1  A    between atoms: C_1  and  O_2
REMARK    2  A    between atoms: O_2  and  C_3
REMARK    3  A    between atoms: C_6  and  C_7
REMARK    4  A    between atoms: C_10  and  C_11
REMARK    5  A    between atoms: C_11  and  O_12
REMARK    6  A    between atoms: O_12  and  C_13
REMARK    7  A    between atoms: C_17  and  C_18
REMARK    8  A    between atoms: C_26  and  O_27
REMARK    9  A    between atoms: O_27  and  C_28
REMARK                            x       y       z     vdW  Elec       q    Type
REMARK                         _______ _______ _______ _____ _____    ______ ____
ROOT
ATOM      1  C   UNL     1       2.469   7.519  18.629  0.00  0.00    +0.000 C 
ATOM      2  N   UNL     1       2.186   7.470  19.888  0.00  0.00    +0.000 NA
ATOM      3  O   UNL     1       1.419   8.614  20.202  0.00  0.00    +0.000 OA
ATOM      4  C   UNL     1       0.986   9.222  18.971  0.00  0.00    +0.000 C 
ATOM      5  C   UNL     1       1.946   8.714  17.917  0.00  0.00    +0.000 C 
ENDROOT
BRANCH   1   9
ATOM      6  C   UNL     1       4.919   4.649  16.576  0.00  0.00    +0.000 A 
ATOM      7  C   UNL     1       5.309   5.983  16.674  0.00  0.00    +0.000 A 
ATOM      8  C   UNL     1       4.498   6.910  17.339  0.00  0.00    +0.000 A 
ATOM      9  C   UNL     1       3.287   6.507  17.922  0.00  0.00    +0.000 A 
ATOM     10  C   UNL     1       2.893   5.155  17.832  0.00  0.00    +0.000 A 
ATOM     11  C   UNL     1       3.716   4.248  17.159  0.00  0.00    +0.000 A 
BRANCH   6  13
ATOM     12  C   UNL     1       6.748   4.493  15.066  0.00  0.00    +0.000 C 
ATOM     13  O   UNL     1       5.792   3.844  15.897  0.00  0.00    +0.000 OA
ENDBRANCH   6  13
BRANCH  10  14
ATOM     14  O   UNL     1       1.688   4.812  18.394  0.00  0.00    +0.000 OA
ATOM     15  C   UNL     1       1.693   3.852  19.443  0.00  0.00    +0.000 C 
ENDBRANCH  10  14
ENDBRANCH   1   9
BRANCH   4  16
ATOM     16  C   UNL     1       1.036  10.735  19.125  0.00  0.00    +0.000 C 
BRANCH  16  17
ATOM     17  O   UNL     1       1.030  11.080  20.516  0.00  0.00    +0.000 OA
BRANCH  17  18
ATOM     18  C   UNL     1      -0.170  11.461  21.048  0.00  0.00    +0.000 A 
ATOM     19  C   UNL     1      -0.371  11.122  22.388  0.00  0.00    +0.000 A 
ATOM     20  C   UNL     1      -1.559  11.470  23.053  0.00  0.00    +0.000 A 
ATOM     21  C   UNL     1      -2.564  12.182  22.393  0.00  0.00    +0.000 A 
ATOM     22  C   UNL     1      -3.767  12.728  23.041  0.00  0.00    +0.000 A 
ATOM     23  C   UNL     1      -4.137  12.426  24.462  0.00  0.00    +0.000 C 
ATOM     24  C   UNL     1      -4.554  13.545  22.322  0.00  0.00    +0.000 A 
ATOM     25  C   UNL     1      -4.436  13.694  20.866  0.00  0.00    +0.000 A 
ATOM     26  O   UNL     1      -5.329  14.225  20.219  0.00  0.00    +0.000 OA
ATOM     27  O   UNL     1      -3.304  13.169  20.274  0.00  0.00    +0.000 OA
ATOM     28  C   UNL     1      -2.349  12.479  21.044  0.00  0.00    +0.000 A 
ATOM     29  C   UNL     1      -1.177  12.133  20.368  0.00  0.00    +0.000 A 
ENDBRANCH  17  18
ENDBRANCH  16  17
ENDBRANCH   4  16
TORSDOF 6
ENDMDL
MODEL 7
REMARK VINA RESULT:      -7.7      2.201      2.820
REMARK  Name = 
REMARK  9 active torsions:
REMARK  status: ('A' for Active; 'I' for Inactive)
REMARK    1  A    between atoms: C_1  and  O_2
REMARK    2  A    between atoms: O_2  and  C_3
REMARK    3  A    between atoms: C_6  and  C_7
REMARK    4  A    between atoms: C_10  and  C_11
REMARK    5  A    between atoms: C_11  and  O_12
REMARK    6  A    between atoms: O_12  and  C_13
REMARK    7  A    between atoms: C_17  and  C_18
REMARK    8  A    between atoms: C_26  and  O_27
REMARK    9  A    between atoms: O_27  and  C_28
REMARK                            x       y       z     vdW  Elec       q    Type
REMARK                         _______ _______ _______ _____ _____    ______ ____
ROOT
ATOM      1  C   UNL     1      -0.617  11.201  22.545  0.00  0.00    +0.000 C 
ATOM      2  N   UNL     1      -0.238  10.282  23.370  0.00  0.00    +0.000 NA
ATOM      3  O   UNL     1       0.558   9.361  22.654  0.00  0.00    +0.000 OA
ATOM      4  C   UNL     1       0.899   9.947  21.385  0.00  0.00    +0.000 C 
ATOM      5  C   UNL     1      -0.142  11.019  21.149  0.00  0.00    +0.000 C 
ENDROOT
BRANCH   1   9
ATOM      6  C   UNL     1      -3.229  14.431  23.641  0.00  0.00    +0.000 A 
ATOM      7  C   UNL     1      -3.690  13.116  23.609  0.00  0.00    +0.000 A 
ATOM      8  C   UNL     1      -2.831  12.073  23.243  0.00  0.00    +0.000 A 
ATOM      9  C   UNL     1      -1.494  12.336  22.912  0.00  0.00    +0.000 A 
ATOM     10  C   UNL     1      -1.020  13.665  22.951  0.00  0.00    +0.000 A 
ATOM     11  C   UNL     1      -1.897  14.691  23.315  0.00  0.00    +0.000 A 
BRANCH   6  13
ATOM     12  C   UNL     1      -3.798  16.262  25.045  0.00  0.00    +0.000 C 
ATOM     13  O   UNL     1      -4.164  15.359  24.007  0.00  0.00    +0.000 OA
ENDBRANCH   6  13
BRANCH  10  14
ATOM     14  O   UNL     1       0.288  13.879  22.593  0.00  0.00    +0.000 OA
ATOM     15  C   UNL     1       0.552  14.840  21.579  0.00  0.00    +0.000 C 
ENDBRANCH  10  14
ENDBRANCH   1   9
BRANCH   4  16
ATOM     16  C   UNL     1       0.871   8.861  20.318  0.00  0.00    +0.000 C 
BRANCH  16  17
ATOM     17  O   UNL     1       1.492   7.672  20.823  0.00  0.00    +0.000 OA
BRANCH  17  18
ATOM     18  C   UNL     1       2.119   6.873  19.908  0.00  0.00    +0.000 A 
ATOM     19  C   UNL     1       2.738   7.539  18.848  0.00  0.00    +0.000 A 
ATOM     20  C   UNL     1       3.427   6.830  17.850  0.00  0.00    +0.000 A 
ATOM     21  C   UNL     1       3.526   5.437  17.903  0.00  0.00    +0.000 A 
ATOM     22  C   UNL     1       4.352   4.621  17.000  0.00  0.00    +0.000 A 
ATOM     23  C   UNL     1       5.052   5.186  15.800  0.00  0.00    +0.000 C 
ATOM     24  C   UNL     1       4.493   3.316  17.282  0.00  0.00    +0.000 A 
ATOM     25  C   UNL     1       3.654   2.613  18.260  0.00  0.00    +0.000 A 
ATOM     26  O   UNL     1       3.625   1.390  18.292  0.00  0.00    +0.000 OA
ATOM     27  O   UNL     1       2.879   3.394  19.094  0.00  0.00    +0.000 OA
ATOM     28  C   UNL     1       2.869   4.795  18.956  0.00  0.00    +0.000 A 
ATOM     29  C   UNL     1       2.173   5.486  19.951  0.00  0.00    +0.000 A 
ENDBRANCH  17  18
ENDBRANCH  16  17
ENDBRANCH   4  16
TORSDOF 6
ENDMDL
MODEL 8
REMARK VINA RESULT:      -7.6      2.409      3.355
REMARK  Name = 
REMARK  9 active torsions:
REMARK  status: ('A' for Active; 'I' for Inactive)
REMARK    1  A    between atoms: C_1  and  O_2
REMARK    2  A    between atoms: O_2  and  C_3
REMARK    3  A    between atoms: C_6  and  C_7
REMARK    4  A    between atoms: C_10  and  C_11
REMARK    5  A    between atoms: C_11  and  O_12
REMARK    6  A    between atoms: O_12  and  C_13
REMARK    7  A    between atoms: C_17  and  C_18
REMARK    8  A    between atoms: C_26  and  O_27
REMARK    9  A    between atoms: O_27  and  C_28
REMARK                            x       y       z     vdW  Elec       q    Type
REMARK                         _______ _______ _______ _____ _____    ______ ____
ROOT
ATOM      1  C   UNL     1      -0.574  11.229  22.583  0.00  0.00    +0.000 C 
ATOM      2  N   UNL     1      -0.141  10.366  23.441  0.00  0.00    +0.000 NA
ATOM      3  O   UNL     1       0.648   9.424  22.745  0.00  0.00    +0.000 OA
ATOM      4  C   UNL     1       0.925   9.945  21.432  0.00  0.00    +0.000 C 
ATOM      5  C   UNL     1      -0.151  10.980  21.180  0.00  0.00    +0.000 C 
ENDROOT
BRANCH   1   9
ATOM      6  C   UNL     1      -3.221  14.457  23.598  0.00  0.00    +0.000 A 
ATOM      7  C   UNL     1      -3.675  13.139  23.571  0.00  0.00    +0.000 A 
ATOM      8  C   UNL     1      -2.804  12.097  23.231  0.00  0.00    +0.000 A 
ATOM      9  C   UNL     1      -1.463  12.364  22.922  0.00  0.00    +0.000 A 
ATOM     10  C   UNL     1      -0.997  13.695  22.955  0.00  0.00    +0.000 A 
ATOM     11  C   UNL     1      -1.885  14.720  23.292  0.00  0.00    +0.000 A 
BRANCH   6  13
ATOM     12  C   UNL     1      -3.839  16.275  24.999  0.00  0.00    +0.000 C 
ATOM     13  O   UNL     1      -4.167  15.384  23.937  0.00  0.00    +0.000 OA
ENDBRANCH   6  13
BRANCH  10  14
ATOM     14  O   UNL     1       0.317  13.912  22.618  0.00  0.00    +0.000 OA
ATOM     15  C   UNL     1       0.641  15.126  21.953  0.00  0.00    +0.000 C 
ENDBRANCH  10  14
ENDBRANCH   1   9
BRANCH   4  16
ATOM     16  C   UNL     1       0.880   8.801  20.429  0.00  0.00    +0.000 C 
BRANCH  16  17
ATOM     17  O   UNL     1       1.292   7.585  21.066  0.00  0.00    +0.000 OA
BRANCH  17  18
ATOM     18  C   UNL     1       1.936   6.670  20.281  0.00  0.00    +0.000 A 
ATOM     19  C   UNL     1       1.719   5.330  20.611  0.00  0.00    +0.000 A 
ATOM     20  C   UNL     1       2.315   4.296  19.872  0.00  0.00    +0.000 A 
ATOM     21  C   UNL     1       3.128   4.581  18.771  0.00  0.00    +0.000 A 
ATOM     22  C   UNL     1       3.665   3.573  17.844  0.00  0.00    +0.000 A 
ATOM     23  C   UNL     1       3.543   2.098  18.080  0.00  0.00    +0.000 C 
ATOM     24  C   UNL     1       4.277   4.006  16.730  0.00  0.00    +0.000 A 
ATOM     25  C   UNL     1       4.683   5.403  16.531  0.00  0.00    +0.000 A 
ATOM     26  O   UNL     1       5.469   5.703  15.641  0.00  0.00    +0.000 OA
ATOM     27  O   UNL     1       4.176   6.333  17.415  0.00  0.00    +0.000 OA
ATOM     28  C   UNL     1       3.354   5.930  18.484  0.00  0.00    +0.000 A 
ATOM     29  C   UNL     1       2.774   6.970  19.215  0.00  0.00    +0.000 A 
ENDBRANCH  17  18
ENDBRANCH  16  17
ENDBRANCH   4  16
TORSDOF 6
ENDMDL
MODEL 9
REMARK VINA RESULT:      -7.6      2.239      9.694
REMARK  Name = 
REMARK  9 active torsions:
REMARK  status: ('A' for Active; 'I' for Inactive)
REMARK    1  A    between atoms: C_1  and  O_2
REMARK    2  A    between atoms: O_2  and  C_3
REMARK    3  A    between atoms: C_6  and  C_7
REMARK    4  A    between atoms: C_10  and  C_11
REMARK    5  A    between atoms: C_11  and  O_12
REMARK    6  A    between atoms: O_12  and  C_13
REMARK    7  A    between atoms: C_17  and  C_18
REMARK    8  A    between atoms: C_26  and  O_27
REMARK    9  A    between atoms: O_27  and  C_28
REMARK                            x       y       z     vdW  Elec       q    Type
REMARK                         _______ _______ _______ _____ _____    ______ ____
ROOT
ATOM      1  C   UNL     1       2.451   7.536  18.651  0.00  0.00    +0.000 C 
ATOM      2  N   UNL     1       2.185   7.491  19.914  0.00  0.00    +0.000 NA
ATOM      3  O   UNL     1       1.449   8.650  20.242  0.00  0.00    +0.000 OA
ATOM      4  C   UNL     1       1.012   9.272  19.020  0.00  0.00    +0.000 C 
ATOM      5  C   UNL     1       1.945   8.745  17.951  0.00  0.00    +0.000 C 
ENDROOT
BRANCH   1   9
ATOM      6  C   UNL     1       4.802   4.620  16.548  0.00  0.00    +0.000 A 
ATOM      7  C   UNL     1       5.183   5.960  16.579  0.00  0.00    +0.000 A 
ATOM      8  C   UNL     1       4.404   6.902  17.261  0.00  0.00    +0.000 A 
ATOM      9  C   UNL     1       3.235   6.509  17.929  0.00  0.00    +0.000 A 
ATOM     10  C   UNL     1       2.851   5.151  17.908  0.00  0.00    +0.000 A 
ATOM     11  C   UNL     1       3.640   4.229  17.216  0.00  0.00    +0.000 A 
BRANCH   6  13
ATOM     12  C   UNL     1       6.711   4.427  15.145  0.00  0.00    +0.000 C 
ATOM     13  O   UNL     1       5.640   3.800  15.845  0.00  0.00    +0.000 OA
ENDBRANCH   6  13
BRANCH  10  14
ATOM     14  O   UNL     1       1.685   4.817  18.553  0.00  0.00    +0.000 OA
ATOM     15  C   UNL     1       1.752   3.840  19.584  0.00  0.00    +0.000 C 
ENDBRANCH  10  14
ENDBRANCH   1   9
BRANCH   4  16
ATOM     16  C   UNL     1       1.099  10.783  19.177  0.00  0.00    +0.000 C 
BRANCH  16  17
ATOM     17  O   UNL     1       0.943  11.135  20.558  0.00  0.00    +0.000 OA
BRANCH  17  18
ATOM     18  C   UNL     1      -0.267  11.654  20.925  0.00  0.00    +0.000 A 
ATOM     19  C   UNL     1      -0.947  12.361  19.931  0.00  0.00    +0.000 A 
ATOM     20  C   UNL     1      -2.206  12.932  20.180  0.00  0.00    +0.000 A 
ATOM     21  C   UNL     1      -2.821  12.789  21.428  0.00  0.00    +0.000 A 
ATOM     22  C   UNL     1      -4.196  13.210  21.737  0.00  0.00    +0.000 A 
ATOM     23  C   UNL     1      -5.040  14.005  20.786  0.00  0.00    +0.000 C 
ATOM     24  C   UNL     1      -4.715  12.845  22.920  0.00  0.00    +0.000 A 
ATOM     25  C   UNL     1      -3.904  12.306  24.018  0.00  0.00    +0.000 A 
ATOM     26  O   UNL     1      -4.355  12.244  25.155  0.00  0.00    +0.000 OA
ATOM     27  O   UNL     1      -2.613  11.924  23.712  0.00  0.00    +0.000 OA
ATOM     28  C   UNL     1      -2.103  12.104  22.412  0.00  0.00    +0.000 A 
ATOM     29  C   UNL     1      -0.847  11.539  22.182  0.00  0.00    +0.000 A 
ENDBRANCH  17  18
ENDBRANCH  16  17
ENDBRANCH   4  16
TORSDOF 6
ENDMDL
