MODEL 1
REMARK VINA RESULT:      -8.5      0.000      0.000
REMARK  Name = 
REMARK  7 active torsions:
REMARK  status: ('A' for Active; 'I' for Inactive)
REMARK    1  A    between atoms: C_1  and  C_2
REMARK    2  A    between atoms: C_5  and  O_6
REMARK    3  A    between atoms: C_8  and  C_9
REMARK    4  A    between atoms: C_13  and  O_15
REMARK    5  A    between atoms: O_15  and  C_16
REMARK    6  A    between atoms: C_16  and  C_17
REMARK    7  A    between atoms: C_27  and  C_28
REMARK                            x       y       z     vdW  Elec       q    Type
REMARK                         _______ _______ _______ _____ _____    ______ ____
ROOT
ATOM      1  C   UNL     1      -6.416  12.952  20.226  0.00  0.00    +0.000 C 
ATOM      2  C   UNL     1      -4.996  12.608  19.969  0.00  0.00    +0.000 A 
ATOM      3  N   UNL     1      -4.663  12.112  18.770  0.00  0.00    +0.000 NA
ATOM      4  N   UNL     1      -3.317  11.972  18.826  0.00  0.00    +0.000 N 
ATOM      5  C   UNL     1      -2.481  11.588  17.770  0.00  0.00    +0.000 A 
ATOM      6  C   UNL     1      -1.160  11.502  17.962  0.00  0.00    +0.000 A 
ATOM      7  C   UNL     1      -0.688  11.753  19.363  0.00  0.00    +0.000 A 
ATOM      8  N   UNL     1      -1.461  12.136  20.341  0.00  0.00    +0.000 NA
ATOM      9  C   UNL     1      -2.795  12.291  20.078  0.00  0.00    +0.000 A 
ATOM     10  C   UNL     1      -3.865  12.756  20.830  0.00  0.00    +0.000 A 
ENDROOT
BRANCH   7  11
ATOM     11  C   UNL     1       0.809  11.535  19.628  0.00  0.00    +0.000 C 
ATOM     12  C   UNL     1       1.599  11.260  18.334  0.00  0.00    +0.000 C 
ATOM     13  C   UNL     1       1.510   9.812  17.852  0.00  0.00    +0.000 C 
ATOM     14  N   UNL     1       1.770   8.880  18.939  0.00  0.00    +0.000 N 
ATOM     15  C   UNL     1       2.509   7.729  18.708  0.00  0.00    +0.000 C 
ATOM     16  O   UNL     1       3.056   7.469  17.642  0.00  0.00    +0.000 OA
ATOM     17  C   UNL     1       0.926   9.041  20.113  0.00  0.00    +0.000 C 
ATOM     18  C   UNL     1       1.074  10.447  20.681  0.00  0.00    +0.000 C 
BRANCH  15  19
ATOM     19  O   UNL     1       2.528   6.909  19.792  0.00  0.00    +0.000 OA
BRANCH  19  20
ATOM     20  C   UNL     1       3.358   5.754  19.708  0.00  0.00    +0.000 C 
BRANCH  20  21
ATOM     21  C   UNL     1       2.552   4.508  19.449  0.00  0.00    +0.000 A 
ATOM     22  C   UNL     1       1.653   4.019  20.408  0.00  0.00    +0.000 A 
ATOM     23  C   UNL     1       0.853   2.910  20.130  0.00  0.00    +0.000 A 
ATOM     24  C   UNL     1       0.953   2.270  18.895  0.00  0.00    +0.000 A 
ATOM     25  C   UNL     1       1.866   2.727  17.947  0.00  0.00    +0.000 A 
ATOM     26  C   UNL     1       2.668   3.836  18.224  0.00  0.00    +0.000 A 
ENDBRANCH  20  21
ENDBRANCH  19  20
ENDBRANCH  15  19
ENDBRANCH   7  11
BRANCH  10  27
ATOM     27  C   UNL     1      -3.774  13.310  22.181  0.00  0.00    +0.000 A 
ATOM     28  C   UNL     1      -4.279  12.608  23.290  0.00  0.00    +0.000 A 
ATOM     29  C   UNL     1      -4.094  13.095  24.591  0.00  0.00    +0.000 A 
ATOM     30  C   UNL     1      -3.396  14.278  24.789  0.00  0.00    +0.000 A 
ATOM     31  F   UNL     1      -3.188  14.725  26.034  0.00  0.00    +0.000 F 
ATOM     32  C   UNL     1      -2.906  15.001  23.712  0.00  0.00    +0.000 A 
ATOM     33  C   UNL     1      -3.111  14.526  22.413  0.00  0.00    +0.000 A 
ENDBRANCH  10  27
BRANCH   5  34
ATOM     34  O   UNL     1      -3.040  11.323  16.531  0.00  0.00    +0.000 OA
ATOM     35  H   UNL     1      -3.969  11.060  16.716  0.00  0.00    +0.000 HD
ENDBRANCH   5  34
TORSDOF 6
ENDMDL
MODEL 2
REMARK VINA RESULT:      -8.4      2.986      4.525
REMARK  Name = 
REMARK  7 active torsions:
REMARK  status: ('A' for Active; 'I' for Inactive)
REMARK    1  A    between atoms: C_1  and  C_2
REMARK    2  A    between atoms: C_5  and  O_6
REMARK    3  A    between atoms: C_8  and  C_9
REMARK    4  A    between atoms: C_13  and  O_15
REMARK    5  A    between atoms: O_15  and  C_16
REMARK    6  A    between atoms: C_16  and  C_17
REMARK    7  A    between atoms: C_27  and  C_28
REMARK                            x       y       z     vdW  Elec       q    Type
REMARK                         _______ _______ _______ _____ _____    ______ ____
ROOT
ATOM      1  C   UNL     1      -6.771  13.198  19.267  0.00  0.00    +0.000 C 
ATOM      2  C   UNL     1      -5.536  12.909  20.036  0.00  0.00    +0.000 A 
ATOM      3  N   UNL     1      -5.537  13.130  21.358  0.00  0.00    +0.000 NA
ATOM      4  N   UNL     1      -4.317  12.710  21.769  0.00  0.00    +0.000 N 
ATOM      5  C   UNL     1      -3.873  12.634  23.095  0.00  0.00    +0.000 A 
ATOM      6  C   UNL     1      -2.641  12.186  23.362  0.00  0.00    +0.000 A 
ATOM      7  C   UNL     1      -1.789  11.873  22.169  0.00  0.00    +0.000 A 
ATOM      8  N   UNL     1      -2.210  11.917  20.935  0.00  0.00    +0.000 NA
ATOM      9  C   UNL     1      -3.504  12.303  20.713  0.00  0.00    +0.000 A 
ATOM     10  C   UNL     1      -4.292  12.378  19.574  0.00  0.00    +0.000 A 
ENDROOT
BRANCH   7  11
ATOM     11  C   UNL     1      -0.333  11.478  22.455  0.00  0.00    +0.000 C 
ATOM     12  C   UNL     1       0.595  11.754  21.256  0.00  0.00    +0.000 C 
ATOM     13  C   UNL     1       0.550  10.672  20.178  0.00  0.00    +0.000 C 
ATOM     14  N   UNL     1       0.680   9.344  20.761  0.00  0.00    +0.000 N 
ATOM     15  C   UNL     1       1.432   8.373  20.118  0.00  0.00    +0.000 C 
ATOM     16  O   UNL     1       2.093   8.576  19.106  0.00  0.00    +0.000 OA
ATOM     17  C   UNL     1      -0.289   9.021  21.797  0.00  0.00    +0.000 C 
ATOM     18  C   UNL     1      -0.196  10.025  22.938  0.00  0.00    +0.000 C 
BRANCH  15  19
ATOM     19  O   UNL     1       1.323   7.161  20.724  0.00  0.00    +0.000 OA
BRANCH  19  20
ATOM     20  C   UNL     1       2.394   6.243  20.521  0.00  0.00    +0.000 C 
BRANCH  20  21
ATOM     21  C   UNL     1       1.914   4.953  19.910  0.00  0.00    +0.000 A 
ATOM     22  C   UNL     1       1.370   3.937  20.710  0.00  0.00    +0.000 A 
ATOM     23  C   UNL     1       0.854   2.777  20.129  0.00  0.00    +0.000 A 
ATOM     24  C   UNL     1       0.889   2.615  18.745  0.00  0.00    +0.000 A 
ATOM     25  C   UNL     1       1.456   3.604  17.943  0.00  0.00    +0.000 A 
ATOM     26  C   UNL     1       1.974   4.764  18.522  0.00  0.00    +0.000 A 
ENDBRANCH  20  21
ENDBRANCH  19  20
ENDBRANCH  15  19
ENDBRANCH   7  11
BRANCH  10  27
ATOM     27  C   UNL     1      -3.892  11.942  18.236  0.00  0.00    +0.000 A 
ATOM     28  C   UNL     1      -2.542  11.702  17.924  0.00  0.00    +0.000 A 
ATOM     29  C   UNL     1      -2.177  11.184  16.674  0.00  0.00    +0.000 A 
ATOM     30  C   UNL     1      -3.159  10.895  15.736  0.00  0.00    +0.000 A 
ATOM     31  F   UNL     1      -2.813  10.367  14.555  0.00  0.00    +0.000 F 
ATOM     32  C   UNL     1      -4.496  11.143  16.010  0.00  0.00    +0.000 A 
ATOM     33  C   UNL     1      -4.856  11.681  17.249  0.00  0.00    +0.000 A 
ENDBRANCH  10  27
BRANCH   5  34
ATOM     34  O   UNL     1      -4.732  13.008  24.116  0.00  0.00    +0.000 OA
ATOM     35  H   UNL     1      -4.736  13.991  24.105  0.00  0.00    +0.000 HD
ENDBRANCH   5  34
TORSDOF 6
ENDMDL
MODEL 3
REMARK VINA RESULT:      -8.4      2.968      4.601
REMARK  Name = 
REMARK  7 active torsions:
REMARK  status: ('A' for Active; 'I' for Inactive)
REMARK    1  A    between atoms: C_1  and  C_2
REMARK    2  A    between atoms: C_5  and  O_6
REMARK    3  A    between atoms: C_8  and  C_9
REMARK    4  A    between atoms: C_13  and  O_15
REMARK    5  A    between atoms: O_15  and  C_16
REMARK    6  A    between atoms: C_16  and  C_17
REMARK    7  A    between atoms: C_27  and  C_28
REMARK                            x       y       z     vdW  Elec       q    Type
REMARK                         _______ _______ _______ _____ _____    ______ ____
ROOT
ATOM      1  C   UNL     1      -6.390  12.502  19.311  0.00  0.00    +0.000 C 
ATOM      2  C   UNL     1      -4.991  12.379  19.790  0.00  0.00    +0.000 A 
ATOM      3  N   UNL     1      -4.701  12.779  21.035  0.00  0.00    +0.000 NA
ATOM      4  N   UNL     1      -3.389  12.476  21.188  0.00  0.00    +0.000 N 
ATOM      5  C   UNL     1      -2.644  12.605  22.367  0.00  0.00    +0.000 A 
ATOM      6  C   UNL     1      -1.353  12.254  22.381  0.00  0.00    +0.000 A 
ATOM      7  C   UNL     1      -0.781  11.820  21.065  0.00  0.00    +0.000 A 
ATOM      8  N   UNL     1      -1.480  11.675  19.973  0.00  0.00    +0.000 NA
ATOM      9  C   UNL     1      -2.816  11.966  20.025  0.00  0.00    +0.000 A 
ATOM     10  C   UNL     1      -3.852  11.847  19.109  0.00  0.00    +0.000 A 
ENDROOT
BRANCH   7  11
ATOM     11  C   UNL     1       0.728  11.536  21.037  0.00  0.00    +0.000 C 
ATOM     12  C   UNL     1       1.351  11.814  19.656  0.00  0.00    +0.000 C 
ATOM     13  C   UNL     1       1.155  10.681  18.650  0.00  0.00    +0.000 C 
ATOM     14  N   UNL     1       1.506   9.394  19.234  0.00  0.00    +0.000 N 
ATOM     15  C   UNL     1       2.171   8.444  18.474  0.00  0.00    +0.000 C 
ATOM     16  O   UNL     1       2.581   8.641  17.335  0.00  0.00    +0.000 OA
ATOM     17  C   UNL     1       0.811   9.058  20.467  0.00  0.00    +0.000 C 
ATOM     18  C   UNL     1       1.074  10.120  21.527  0.00  0.00    +0.000 C 
BRANCH  15  19
ATOM     19  O   UNL     1       2.287   7.258  19.128  0.00  0.00    +0.000 OA
BRANCH  19  20
ATOM     20  C   UNL     1       2.443   6.093  18.323  0.00  0.00    +0.000 C 
BRANCH  20  21
ATOM     21  C   UNL     1       2.320   4.832  19.139  0.00  0.00    +0.000 A 
ATOM     22  C   UNL     1       3.205   3.761  18.947  0.00  0.00    +0.000 A 
ATOM     23  C   UNL     1       3.134   2.628  19.760  0.00  0.00    +0.000 A 
ATOM     24  C   UNL     1       2.169   2.549  20.763  0.00  0.00    +0.000 A 
ATOM     25  C   UNL     1       1.264   3.594  20.941  0.00  0.00    +0.000 A 
ATOM     26  C   UNL     1       1.332   4.727  20.128  0.00  0.00    +0.000 A 
ENDBRANCH  20  21
ENDBRANCH  19  20
ENDBRANCH  15  19
ENDBRANCH   7  11
BRANCH  10  27
ATOM     27  C   UNL     1      -3.741  11.250  17.778  0.00  0.00    +0.000 A 
ATOM     28  C   UNL     1      -4.475  11.757  16.691  0.00  0.00    +0.000 A 
ATOM     29  C   UNL     1      -4.285  11.248  15.399  0.00  0.00    +0.000 A 
ATOM     30  C   UNL     1      -3.355  10.241  15.187  0.00  0.00    +0.000 A 
ATOM     31  F   UNL     1      -3.147   9.781  13.947  0.00  0.00    +0.000 F 
ATOM     32  C   UNL     1      -2.633   9.709  16.245  0.00  0.00    +0.000 A 
ATOM     33  C   UNL     1      -2.840  10.201  17.537  0.00  0.00    +0.000 A 
ENDBRANCH  10  27
BRANCH   5  34
ATOM     34  O   UNL     1      -3.268  13.075  23.511  0.00  0.00    +0.000 OA
ATOM     35  H   UNL     1      -4.083  13.524  23.195  0.00  0.00    +0.000 HD
ENDBRANCH   5  34
TORSDOF 6
ENDMDL
MODEL 4
REMARK VINA RESULT:      -8.2      1.418      1.800
REMARK  Name = 
REMARK  7 active torsions:
REMARK  status: ('A' for Active; 'I' for Inactive)
REMARK    1  A    between atoms: C_1  and  C_2
REMARK    2  A    between atoms: C_5  and  O_6
REMARK    3  A    between atoms: C_8  and  C_9
REMARK    4  A    between atoms: C_13  and  O_15
REMARK    5  A    between atoms: O_15  and  C_16
REMARK    6  A    between atoms: C_16  and  C_17
REMARK    7  A    between atoms: C_27  and  C_28
REMARK                            x       y       z     vdW  Elec       q    Type
REMARK                         _______ _______ _______ _____ _____    ______ ____
ROOT
ATOM      1  C   UNL     1      -7.183  12.426  17.826  0.00  0.00    +0.000 C 
ATOM      2  C   UNL     1      -5.739  12.165  18.049  0.00  0.00    +0.000 A 
ATOM      3  N   UNL     1      -5.026  11.615  17.056  0.00  0.00    +0.000 NA
ATOM      4  N   UNL     1      -3.760  11.572  17.537  0.00  0.00    +0.000 N 
ATOM      5  C   UNL     1      -2.620  11.178  16.825  0.00  0.00    +0.000 A 
ATOM      6  C   UNL     1      -1.422  11.196  17.421  0.00  0.00    +0.000 A 
ATOM      7  C   UNL     1      -1.423  11.571  18.873  0.00  0.00    +0.000 A 
ATOM      8  N   UNL     1      -2.479  11.964  19.529  0.00  0.00    +0.000 NA
ATOM      9  C   UNL     1      -3.671  12.009  18.857  0.00  0.00    +0.000 A 
ATOM     10  C   UNL     1      -4.941  12.447  19.201  0.00  0.00    +0.000 A 
ENDROOT
BRANCH   7  11
ATOM     11  C   UNL     1      -0.075  11.476  19.603  0.00  0.00    +0.000 C 
ATOM     12  C   UNL     1       1.118  11.457  18.629  0.00  0.00    +0.000 C 
ATOM     13  C   UNL     1       1.394  10.085  18.016  0.00  0.00    +0.000 C 
ATOM     14  N   UNL     1       1.419   9.048  19.038  0.00  0.00    +0.000 N 
ATOM     15  C   UNL     1       2.348   8.021  18.963  0.00  0.00    +0.000 C 
ATOM     16  O   UNL     1       3.239   7.961  18.123  0.00  0.00    +0.000 OA
ATOM     17  C   UNL     1       0.230   8.965  19.871  0.00  0.00    +0.000 C 
ATOM     18  C   UNL     1      -0.012  10.291  20.580  0.00  0.00    +0.000 C 
BRANCH  15  19
ATOM     19  O   UNL     1       2.133   7.071  19.912  0.00  0.00    +0.000 OA
BRANCH  19  20
ATOM     20  C   UNL     1       2.998   5.939  19.894  0.00  0.00    +0.000 C 
BRANCH  20  21
ATOM     21  C   UNL     1       2.275   4.693  19.454  0.00  0.00    +0.000 A 
ATOM     22  C   UNL     1       2.634   4.032  18.269  0.00  0.00    +0.000 A 
ATOM     23  C   UNL     1       2.014   2.835  17.909  0.00  0.00    +0.000 A 
ATOM     24  C   UNL     1       1.019   2.293  18.721  0.00  0.00    +0.000 A 
ATOM     25  C   UNL     1       0.631   2.958  19.883  0.00  0.00    +0.000 A 
ATOM     26  C   UNL     1       1.250   4.156  20.245  0.00  0.00    +0.000 A 
ENDBRANCH  20  21
ENDBRANCH  19  20
ENDBRANCH  15  19
ENDBRANCH   7  11
BRANCH  10  27
ATOM     27  C   UNL     1      -5.302  13.094  20.462  0.00  0.00    +0.000 A 
ATOM     28  C   UNL     1      -6.063  12.420  21.433  0.00  0.00    +0.000 A 
ATOM     29  C   UNL     1      -6.315  13.007  22.681  0.00  0.00    +0.000 A 
ATOM     30  C   UNL     1      -5.798  14.262  22.967  0.00  0.00    +0.000 A 
ATOM     31  F   UNL     1      -6.008  14.807  24.171  0.00  0.00    +0.000 F 
ATOM     32  C   UNL     1      -5.062  14.958  22.019  0.00  0.00    +0.000 A 
ATOM     33  C   UNL     1      -4.831  14.381  20.767  0.00  0.00    +0.000 A 
ENDBRANCH  10  27
BRANCH   5  34
ATOM     34  O   UNL     1      -2.751  10.794  15.501  0.00  0.00    +0.000 OA
ATOM     35  H   UNL     1      -2.743   9.811  15.514  0.00  0.00    +0.000 HD
ENDBRANCH   5  34
TORSDOF 6
ENDMDL
MODEL 5
REMARK VINA RESULT:      -8.1      0.956      1.507
REMARK  Name = 
REMARK  7 active torsions:
REMARK  status: ('A' for Active; 'I' for Inactive)
REMARK    1  A    between atoms: C_1  and  C_2
REMARK    2  A    between atoms: C_5  and  O_6
REMARK    3  A    between atoms: C_8  and  C_9
REMARK    4  A    between atoms: C_13  and  O_15
REMARK    5  A    between atoms: O_15  and  C_16
REMARK    6  A    between atoms: C_16  and  C_17
REMARK    7  A    between atoms: C_27  and  C_28
REMARK                            x       y       z     vdW  Elec       q    Type
REMARK                         _______ _______ _______ _____ _____    ______ ____
ROOT
ATOM      1  C   UNL     1      -6.855  12.641  19.137  0.00  0.00    +0.000 C 
ATOM      2  C   UNL     1      -5.412  12.298  19.132  0.00  0.00    +0.000 A 
ATOM      3  N   UNL     1      -4.926  11.583  18.108  0.00  0.00    +0.000 NA
ATOM      4  N   UNL     1      -3.597  11.500  18.357  0.00  0.00    +0.000 N 
ATOM      5  C   UNL     1      -2.632  10.939  17.512  0.00  0.00    +0.000 A 
ATOM      6  C   UNL     1      -1.345  10.935  17.878  0.00  0.00    +0.000 A 
ATOM      7  C   UNL     1      -1.056  11.477  19.246  0.00  0.00    +0.000 A 
ATOM      8  N   UNL     1      -1.949  12.024  20.023  0.00  0.00    +0.000 NA
ATOM      9  C   UNL     1      -3.241  12.080  19.573  0.00  0.00    +0.000 A 
ATOM     10  C   UNL     1      -4.400  12.651  20.078  0.00  0.00    +0.000 A 
ENDROOT
BRANCH   7  11
ATOM     11  C   UNL     1       0.397  11.364  19.731  0.00  0.00    +0.000 C 
ATOM     12  C   UNL     1       1.402  11.315  18.565  0.00  0.00    +0.000 C 
ATOM     13  C   UNL     1       1.544   9.933  17.929  0.00  0.00    +0.000 C 
ATOM     14  N   UNL     1       1.731   8.906  18.944  0.00  0.00    +0.000 N 
ATOM     15  C   UNL     1       2.617   7.861  18.721  0.00  0.00    +0.000 C 
ATOM     16  O   UNL     1       3.347   7.778  17.740  0.00  0.00    +0.000 OA
ATOM     17  C   UNL     1       0.704   8.851  19.972  0.00  0.00    +0.000 C 
ATOM     18  C   UNL     1       0.611  10.187  20.697  0.00  0.00    +0.000 C 
BRANCH  15  19
ATOM     19  O   UNL     1       2.556   6.924  19.705  0.00  0.00    +0.000 OA
BRANCH  19  20
ATOM     20  C   UNL     1       3.367   5.765  19.537  0.00  0.00    +0.000 C 
BRANCH  20  21
ATOM     21  C   UNL     1       2.536   4.541  19.252  0.00  0.00    +0.000 A 
ATOM     22  C   UNL     1       2.869   3.675  18.199  0.00  0.00    +0.000 A 
ATOM     23  C   UNL     1       2.142   2.502  17.990  0.00  0.00    +0.000 A 
ATOM     24  C   UNL     1       1.068   2.189  18.822  0.00  0.00    +0.000 A 
ATOM     25  C   UNL     1       0.709   3.058  19.851  0.00  0.00    +0.000 A 
ATOM     26  C   UNL     1       1.434   4.233  20.061  0.00  0.00    +0.000 A 
ENDBRANCH  20  21
ENDBRANCH  19  20
ENDBRANCH  15  19
ENDBRANCH   7  11
BRANCH  10  27
ATOM     27  C   UNL     1      -4.484  13.467  21.289  0.00  0.00    +0.000 A 
ATOM     28  C   UNL     1      -4.090  14.816  21.286  0.00  0.00    +0.000 A 
ATOM     29  C   UNL     1      -4.272  15.619  22.421  0.00  0.00    +0.000 A 
ATOM     30  C   UNL     1      -4.858  15.080  23.557  0.00  0.00    +0.000 A 
ATOM     31  F   UNL     1      -5.065  15.856  24.628  0.00  0.00    +0.000 F 
ATOM     32  C   UNL     1      -5.237  13.746  23.594  0.00  0.00    +0.000 A 
ATOM     33  C   UNL     1      -5.034  12.941  22.470  0.00  0.00    +0.000 A 
ENDBRANCH  10  27
BRANCH   5  34
ATOM     34  O   UNL     1      -3.028  10.414  16.292  0.00  0.00    +0.000 OA
ATOM     35  H   UNL     1      -3.967  10.685  16.186  0.00  0.00    +0.000 HD
ENDBRANCH   5  34
TORSDOF 6
ENDMDL
MODEL 6
REMARK VINA RESULT:      -8.1      3.179      4.910
REMARK  Name = 
REMARK  7 active torsions:
REMARK  status: ('A' for Active; 'I' for Inactive)
REMARK    1  A    between atoms: C_1  and  C_2
REMARK    2  A    between atoms: C_5  and  O_6
REMARK    3  A    between atoms: C_8  and  C_9
REMARK    4  A    between atoms: C_13  and  O_15
REMARK    5  A    between atoms: O_15  and  C_16
REMARK    6  A    between atoms: C_16  and  C_17
REMARK    7  A    between atoms: C_27  and  C_28
REMARK                            x       y       z     vdW  Elec       q    Type
REMARK                         _______ _______ _______ _____ _____    ______ ____
ROOT
ATOM      1  C   UNL     1      -6.268  12.593  18.970  0.00  0.00    +0.000 C 
ATOM      2  C   UNL     1      -4.896  12.435  19.509  0.00  0.00    +0.000 A 
ATOM      3  N   UNL     1      -4.648  12.840  20.762  0.00  0.00    +0.000 NA
ATOM      4  N   UNL     1      -3.353  12.501  20.975  0.00  0.00    +0.000 N 
ATOM      5  C   UNL     1      -2.656  12.621  22.183  0.00  0.00    +0.000 A 
ATOM      6  C   UNL     1      -1.378  12.234  22.257  0.00  0.00    +0.000 A 
ATOM      7  C   UNL     1      -0.763  11.769  20.971  0.00  0.00    +0.000 A 
ATOM      8  N   UNL     1      -1.417  11.632  19.851  0.00  0.00    +0.000 NA
ATOM      9  C   UNL     1      -2.746  11.962  19.843  0.00  0.00    +0.000 A 
ATOM     10  C   UNL     1      -3.744  11.863  18.884  0.00  0.00    +0.000 A 
ENDROOT
BRANCH   7  11
ATOM     11  C   UNL     1       0.737  11.441  21.012  0.00  0.00    +0.000 C 
ATOM     12  C   UNL     1       1.435  11.724  19.668  0.00  0.00    +0.000 C 
ATOM     13  C   UNL     1       1.256  10.613  18.633  0.00  0.00    +0.000 C 
ATOM     14  N   UNL     1       1.542   9.307  19.210  0.00  0.00    +0.000 N 
ATOM     15  C   UNL     1       2.216   8.351  18.466  0.00  0.00    +0.000 C 
ATOM     16  O   UNL     1       2.687   8.554  17.352  0.00  0.00    +0.000 OA
ATOM     17  C   UNL     1       0.778   8.972  20.402  0.00  0.00    +0.000 C 
ATOM     18  C   UNL     1       1.019  10.009  21.492  0.00  0.00    +0.000 C 
BRANCH  15  19
ATOM     19  O   UNL     1       2.267   7.152  19.105  0.00  0.00    +0.000 OA
BRANCH  19  20
ATOM     20  C   UNL     1       2.440   5.997  18.289  0.00  0.00    +0.000 C 
BRANCH  20  21
ATOM     21  C   UNL     1       3.892   5.615  18.165  0.00  0.00    +0.000 A 
ATOM     22  C   UNL     1       4.708   5.513  19.302  0.00  0.00    +0.000 A 
ATOM     23  C   UNL     1       6.031   5.081  19.188  0.00  0.00    +0.000 A 
ATOM     24  C   UNL     1       6.554   4.761  17.936  0.00  0.00    +0.000 A 
ATOM     25  C   UNL     1       5.762   4.890  16.797  0.00  0.00    +0.000 A 
ATOM     26  C   UNL     1       4.439   5.322  16.908  0.00  0.00    +0.000 A 
ENDBRANCH  20  21
ENDBRANCH  19  20
ENDBRANCH  15  19
ENDBRANCH   7  11
BRANCH  10  27
ATOM     27  C   UNL     1      -3.594  11.249  17.565  0.00  0.00    +0.000 A 
ATOM     28  C   UNL     1      -4.399  11.644  16.483  0.00  0.00    +0.000 A 
ATOM     29  C   UNL     1      -4.179  11.128  15.199  0.00  0.00    +0.000 A 
ATOM     30  C   UNL     1      -3.148  10.224  14.990  0.00  0.00    +0.000 A 
ATOM     31  F   UNL     1      -2.914   9.757  13.756  0.00  0.00    +0.000 F 
ATOM     32  C   UNL     1      -2.352   9.800  16.044  0.00  0.00    +0.000 A 
ATOM     33  C   UNL     1      -2.587  10.299  17.328  0.00  0.00    +0.000 A 
ENDBRANCH  10  27
BRANCH   5  34
ATOM     34  O   UNL     1      -3.315  13.122  23.294  0.00  0.00    +0.000 OA
ATOM     35  H   UNL     1      -4.246  12.822  23.200  0.00  0.00    +0.000 HD
ENDBRANCH   5  34
TORSDOF 6
ENDMDL
MODEL 7
REMARK VINA RESULT:      -7.8      1.324      1.551
REMARK  Name = 
REMARK  7 active torsions:
REMARK  status: ('A' for Active; 'I' for Inactive)
REMARK    1  A    between atoms: C_1  and  C_2
REMARK    2  A    between atoms: C_5  and  O_6
REMARK    3  A    between atoms: C_8  and  C_9
REMARK    4  A    between atoms: C_13  and  O_15
REMARK    5  A    between atoms: O_15  and  C_16
REMARK    6  A    between atoms: C_16  and  C_17
REMARK    7  A    between atoms: C_27  and  C_28
REMARK                            x       y       z     vdW  Elec       q    Type
REMARK                         _______ _______ _______ _____ _____    ______ ____
ROOT
ATOM      1  C   UNL     1      -6.551  14.064  22.094  0.00  0.00    +0.000 C 
ATOM      2  C   UNL     1      -5.230  13.601  21.603  0.00  0.00    +0.000 A 
ATOM      3  N   UNL     1      -5.188  12.814  20.520  0.00  0.00    +0.000 NA
ATOM      4  N   UNL     1      -3.865  12.628  20.291  0.00  0.00    +0.000 N 
ATOM      5  C   UNL     1      -3.303  11.960  19.196  0.00  0.00    +0.000 A 
ATOM      6  C   UNL     1      -1.973  11.860  19.086  0.00  0.00    +0.000 A 
ATOM      7  C   UNL     1      -1.182  12.421  20.229  0.00  0.00    +0.000 A 
ATOM      8  N   UNL     1      -1.702  13.067  21.236  0.00  0.00    +0.000 NA
ATOM      9  C   UNL     1      -3.063  13.217  21.265  0.00  0.00    +0.000 A 
ATOM     10  C   UNL     1      -3.926  13.900  22.110  0.00  0.00    +0.000 A 
ENDROOT
BRANCH   7  11
ATOM     11  C   UNL     1       0.338  12.204  20.179  0.00  0.00    +0.000 C 
ATOM     12  C   UNL     1       0.848  11.969  18.745  0.00  0.00    +0.000 C 
ATOM     13  C   UNL     1       0.663  10.535  18.249  0.00  0.00    +0.000 C 
ATOM     14  N   UNL     1       1.137   9.574  19.235  0.00  0.00    +0.000 N 
ATOM     15  C   UNL     1       1.812   8.434  18.825  0.00  0.00    +0.000 C 
ATOM     16  O   UNL     1       2.132   8.207  17.663  0.00  0.00    +0.000 OA
ATOM     17  C   UNL     1       0.549   9.698  20.559  0.00  0.00    +0.000 C 
ATOM     18  C   UNL     1       0.809  11.088  21.125  0.00  0.00    +0.000 C 
BRANCH  15  19
ATOM     19  O   UNL     1       2.050   7.584  19.859  0.00  0.00    +0.000 OA
BRANCH  19  20
ATOM     20  C   UNL     1       2.960   6.515  19.615  0.00  0.00    +0.000 C 
BRANCH  20  21
ATOM     21  C   UNL     1       2.254   5.186  19.554  0.00  0.00    +0.000 A 
ATOM     22  C   UNL     1       1.815   4.550  20.725  0.00  0.00    +0.000 A 
ATOM     23  C   UNL     1       1.092   3.358  20.655  0.00  0.00    +0.000 A 
ATOM     24  C   UNL     1       0.812   2.783  19.416  0.00  0.00    +0.000 A 
ATOM     25  C   UNL     1       1.271   3.389  18.249  0.00  0.00    +0.000 A 
ATOM     26  C   UNL     1       1.996   4.581  18.316  0.00  0.00    +0.000 A 
ENDBRANCH  20  21
ENDBRANCH  19  20
ENDBRANCH  15  19
ENDBRANCH   7  11
BRANCH  10  27
ATOM     27  C   UNL     1      -3.521  14.760  23.221  0.00  0.00    +0.000 A 
ATOM     28  C   UNL     1      -3.126  14.215  24.455  0.00  0.00    +0.000 A 
ATOM     29  C   UNL     1      -2.638  15.039  25.479  0.00  0.00    +0.000 A 
ATOM     30  C   UNL     1      -2.534  16.406  25.270  0.00  0.00    +0.000 A 
ATOM     31  F   UNL     1      -2.034  17.189  26.235  0.00  0.00    +0.000 F 
ATOM     32  C   UNL     1      -2.937  16.973  24.070  0.00  0.00    +0.000 A 
ATOM     33  C   UNL     1      -3.444  16.153  23.057  0.00  0.00    +0.000 A 
ENDBRANCH  10  27
BRANCH   5  34
ATOM     34  O   UNL     1      -4.140  11.429  18.228  0.00  0.00    +0.000 OA
ATOM     35  H   UNL     1      -4.762  12.154  17.997  0.00  0.00    +0.000 HD
ENDBRANCH   5  34
TORSDOF 6
ENDMDL
MODEL 8
REMARK VINA RESULT:      -7.6      6.319      9.249
REMARK  Name = 
REMARK  7 active torsions:
REMARK  status: ('A' for Active; 'I' for Inactive)
REMARK    1  A    between atoms: C_1  and  C_2
REMARK    2  A    between atoms: C_5  and  O_6
REMARK    3  A    between atoms: C_8  and  C_9
REMARK    4  A    between atoms: C_13  and  O_15
REMARK    5  A    between atoms: O_15  and  C_16
REMARK    6  A    between atoms: C_16  and  C_17
REMARK    7  A    between atoms: C_27  and  C_28
REMARK                            x       y       z     vdW  Elec       q    Type
REMARK                         _______ _______ _______ _____ _____    ______ ____
ROOT
ATOM      1  C   UNL     1      10.722  13.321  20.978  0.00  0.00    +0.000 C 
ATOM      2  C   UNL     1       9.381  13.841  20.614  0.00  0.00    +0.000 A 
ATOM      3  N   UNL     1       9.199  14.341  19.385  0.00  0.00    +0.000 NA
ATOM      4  N   UNL     1       7.882  14.659  19.343  0.00  0.00    +0.000 N 
ATOM      5  C   UNL     1       7.178  15.119  18.223  0.00  0.00    +0.000 A 
ATOM      6  C   UNL     1       5.871  15.384  18.319  0.00  0.00    +0.000 A 
ATOM      7  C   UNL     1       5.276  15.239  19.687  0.00  0.00    +0.000 A 
ATOM      8  N   UNL     1       5.923  14.786  20.725  0.00  0.00    +0.000 NA
ATOM      9  C   UNL     1       7.240  14.449  20.561  0.00  0.00    +0.000 A 
ATOM     10  C   UNL     1       8.184  13.869  21.396  0.00  0.00    +0.000 A 
ENDROOT
BRANCH   7  11
ATOM     11  C   UNL     1       3.807  15.660  19.841  0.00  0.00    +0.000 C 
ATOM     12  C   UNL     1       3.260  15.374  21.252  0.00  0.00    +0.000 C 
ATOM     13  C   UNL     1       2.830  13.924  21.466  0.00  0.00    +0.000 C 
ATOM     14  N   UNL     1       1.984  13.460  20.375  0.00  0.00    +0.000 N 
ATOM     15  C   UNL     1       0.895  12.643  20.638  0.00  0.00    +0.000 C 
ATOM     16  O   UNL     1       0.522  12.339  21.766  0.00  0.00    +0.000 OA
ATOM     17  C   UNL     1       2.555  13.594  19.044  0.00  0.00    +0.000 C 
ATOM     18  C   UNL     1       2.898  15.050  18.761  0.00  0.00    +0.000 C 
BRANCH  15  19
ATOM     19  O   UNL     1       0.310  12.191  19.497  0.00  0.00    +0.000 OA
BRANCH  19  20
ATOM     20  C   UNL     1      -0.314  10.912  19.559  0.00  0.00    +0.000 C 
BRANCH  20  21
ATOM     21  C   UNL     1       0.672   9.799  19.317  0.00  0.00    +0.000 A 
ATOM     22  C   UNL     1       1.022   8.911  20.345  0.00  0.00    +0.000 A 
ATOM     23  C   UNL     1       1.875   7.836  20.093  0.00  0.00    +0.000 A 
ATOM     24  C   UNL     1       2.398   7.645  18.815  0.00  0.00    +0.000 A 
ATOM     25  C   UNL     1       2.084   8.539  17.794  0.00  0.00    +0.000 A 
ATOM     26  C   UNL     1       1.231   9.617  18.044  0.00  0.00    +0.000 A 
ENDBRANCH  20  21
ENDBRANCH  19  20
ENDBRANCH  15  19
ENDBRANCH   7  11
BRANCH  10  27
ATOM     27  C   UNL     1       7.929  13.373  22.748  0.00  0.00    +0.000 A 
ATOM     28  C   UNL     1       7.599  12.026  22.978  0.00  0.00    +0.000 A 
ATOM     29  C   UNL     1       7.459  11.534  24.283  0.00  0.00    +0.000 A 
ATOM     30  C   UNL     1       7.660  12.383  25.362  0.00  0.00    +0.000 A 
ATOM     31  F   UNL     1       7.562  11.906  26.609  0.00  0.00    +0.000 F 
ATOM     32  C   UNL     1       7.965  13.722  25.164  0.00  0.00    +0.000 A 
ATOM     33  C   UNL     1       8.081  14.216  23.861  0.00  0.00    +0.000 A 
ENDBRANCH  10  27
BRANCH   5  34
ATOM     34  O   UNL     1       7.850  15.270  17.021  0.00  0.00    +0.000 OA
ATOM     35  H   UNL     1       7.348  14.728  16.373  0.00  0.00    +0.000 HD
ENDBRANCH   5  34
TORSDOF 6
ENDMDL
MODEL 9
REMARK VINA RESULT:      -7.6      5.674      8.484
REMARK  Name = 
REMARK  7 active torsions:
REMARK  status: ('A' for Active; 'I' for Inactive)
REMARK    1  A    between atoms: C_1  and  C_2
REMARK    2  A    between atoms: C_5  and  O_6
REMARK    3  A    between atoms: C_8  and  C_9
REMARK    4  A    between atoms: C_13  and  O_15
REMARK    5  A    between atoms: O_15  and  C_16
REMARK    6  A    between atoms: C_16  and  C_17
REMARK    7  A    between atoms: C_27  and  C_28
REMARK                            x       y       z     vdW  Elec       q    Type
REMARK                         _______ _______ _______ _____ _____    ______ ____
ROOT
ATOM      1  C   UNL     1      -2.295  10.013  17.927  0.00  0.00    +0.000 C 
ATOM      2  C   UNL     1      -1.487  11.043  18.625  0.00  0.00    +0.000 A 
ATOM      3  N   UNL     1      -2.038  12.240  18.861  0.00  0.00    +0.000 NA
ATOM      4  N   UNL     1      -1.093  12.914  19.559  0.00  0.00    +0.000 N 
ATOM      5  C   UNL     1      -1.238  14.182  20.135  0.00  0.00    +0.000 A 
ATOM      6  C   UNL     1      -0.222  14.728  20.813  0.00  0.00    +0.000 A 
ATOM      7  C   UNL     1       1.053  13.938  20.823  0.00  0.00    +0.000 A 
ATOM      8  N   UNL     1       1.182  12.745  20.310  0.00  0.00    +0.000 NA
ATOM      9  C   UNL     1       0.090  12.191  19.697  0.00  0.00    +0.000 A 
ATOM     10  C   UNL     1      -0.156  10.946  19.137  0.00  0.00    +0.000 A 
ENDROOT
BRANCH   7  11
ATOM     11  C   UNL     1       2.265  14.607  21.488  0.00  0.00    +0.000 C 
ATOM     12  C   UNL     1       2.317  16.123  21.221  0.00  0.00    +0.000 C 
ATOM     13  C   UNL     1       2.906  16.491  19.860  0.00  0.00    +0.000 C 
ATOM     14  N   UNL     1       4.155  15.782  19.620  0.00  0.00    +0.000 N 
ATOM     15  C   UNL     1       5.211  16.427  18.995  0.00  0.00    +0.000 C 
ATOM     16  O   UNL     1       5.209  17.617  18.696  0.00  0.00    +0.000 OA
ATOM     17  C   UNL     1       4.080  14.334  19.728  0.00  0.00    +0.000 C 
ATOM     18  C   UNL     1       3.594  13.932  21.115  0.00  0.00    +0.000 C 
BRANCH  15  19
ATOM     19  O   UNL     1       6.237  15.578  18.722  0.00  0.00    +0.000 OA
BRANCH  19  20
ATOM     20  C   UNL     1       7.517  15.930  19.240  0.00  0.00    +0.000 C 
BRANCH  20  21
ATOM     21  C   UNL     1       8.575  14.939  18.832  0.00  0.00    +0.000 A 
ATOM     22  C   UNL     1       9.912  15.110  19.223  0.00  0.00    +0.000 A 
ATOM     23  C   UNL     1      10.871  14.147  18.908  0.00  0.00    +0.000 A 
ATOM     24  C   UNL     1      10.508  13.009  18.188  0.00  0.00    +0.000 A 
ATOM     25  C   UNL     1       9.190  12.844  17.767  0.00  0.00    +0.000 A 
ATOM     26  C   UNL     1       8.229  13.808  18.079  0.00  0.00    +0.000 A 
ENDBRANCH  20  21
ENDBRANCH  19  20
ENDBRANCH  15  19
ENDBRANCH   7  11
BRANCH  10  27
ATOM     27  C   UNL     1       0.770   9.813  19.151  0.00  0.00    +0.000 A 
ATOM     28  C   UNL     1       0.939   9.026  20.304  0.00  0.00    +0.000 A 
ATOM     29  C   UNL     1       1.747   7.881  20.278  0.00  0.00    +0.000 A 
ATOM     30  C   UNL     1       2.379   7.512  19.099  0.00  0.00    +0.000 A 
ATOM     31  F   UNL     1       3.121   6.399  19.064  0.00  0.00    +0.000 F 
ATOM     32  C   UNL     1       2.246   8.283  17.953  0.00  0.00    +0.000 A 
ATOM     33  C   UNL     1       1.459   9.437  17.986  0.00  0.00    +0.000 A 
ENDBRANCH  10  27
BRANCH   5  34
ATOM     34  O   UNL     1      -2.448  14.845  20.010  0.00  0.00    +0.000 OA
ATOM     35  H   UNL     1      -2.978  14.301  19.385  0.00  0.00    +0.000 HD
ENDBRANCH   5  34
TORSDOF 6
ENDMDL
