MODEL 1
REMARK VINA RESULT:      -7.9      0.000      0.000
REMARK  Name = 
REMARK  12 active torsions:
REMARK  status: ('A' for Active; 'I' for Inactive)
REMARK    1  A    between atoms: C_1  and  C_2
REMARK    2  A    between atoms: C_2  and  O_3
REMARK    3  A    between atoms: O_3  and  C_4
REMARK    4  A    between atoms: C_4  and  C_6
REMARK    5  A    between atoms: C_6  and  C_7
REMARK    6  A    between atoms: C_6  and  N_15
REMARK    7  A    between atoms: C_7  and  C_8
REMARK    8  A    between atoms: N_12  and  C_13
REMARK    9  A    between atoms: C_13  and  C_14
REMARK   10  A    between atoms: C_20  and  C_21
REMARK   11  A    between atoms: C_21  and  C_22
REMARK   12  A    between atoms: C_21  and  C_23
REMARK                            x       y       z     vdW  Elec       q    Type
REMARK                         _______ _______ _______ _____ _____    ______ ____
ROOT
ATOM      1  C   UNL     1       3.219   5.369  19.000  0.00  0.00    +0.000 C 
ENDROOT
BRANCH   1   2
ATOM      2  N   UNL     1       2.633   6.243  20.021  0.00  0.00    +0.000 N 
ATOM      3  C   UNL     1       2.169   7.472  19.796  0.00  0.00    +0.000 A 
ATOM      4  N   UNL     1       2.004   8.132  18.675  0.00  0.00    +0.000 NA
ATOM      5  C   UNL     1       1.196   9.178  19.046  0.00  0.00    +0.000 A 
ATOM      6  C   UNL     1       0.438  10.049  18.258  0.00  0.00    +0.000 A 
ATOM      7  C   UNL     1      -0.688  10.596  18.915  0.00  0.00    +0.000 A 
ATOM      8  C   UNL     1      -0.685  10.791  20.308  0.00  0.00    +0.000 A 
ATOM      9  C   UNL     1       0.170  10.033  21.111  0.00  0.00    +0.000 A 
ATOM     10  C   UNL     1       1.007   9.171  20.418  0.00  0.00    +0.000 A 
ATOM     11  O   UNL     1       1.688   8.101  20.913  0.00  0.00    +0.000 OA
ATOM     12  H   UNL     1       2.981   6.065  20.964  0.00  0.00    +0.000 HD
BRANCH   7  13
ATOM     13  C   UNL     1      -2.035  10.257  18.254  0.00  0.00    +0.000 C 
ATOM     14  C   UNL     1      -2.930  11.511  18.414  0.00  0.00    +0.000 C 
ATOM     15  C   UNL     1      -1.980   9.889  16.774  0.00  0.00    +0.000 C 
ENDBRANCH   7  13
ENDBRANCH   1   2
BRANCH   1  16
ATOM     16  C   UNL     1       2.095   4.394  18.557  0.00  0.00    +0.000 C 
ATOM     17  O   UNL     1       1.465   4.576  17.513  0.00  0.00    +0.000 OA
BRANCH  16  18
ATOM     18  O   UNL     1       1.803   3.408  19.444  0.00  0.00    +0.000 OA
BRANCH  18  20
ATOM     19  C   UNL     1       3.275   1.750  18.349  0.00  0.00    +0.000 C 
ATOM     20  C   UNL     1       1.906   2.062  18.932  0.00  0.00    +0.000 C 
ENDBRANCH  18  20
ENDBRANCH  16  18
ENDBRANCH   1  16
BRANCH   1  21
ATOM     21  C   UNL     1       4.008   6.101  17.886  0.00  0.00    +0.000 C 
BRANCH  21  22
ATOM     22  C   UNL     1       5.050   5.334  17.116  0.00  0.00    +0.000 A 
ATOM     23  C   UNL     1       4.902   4.311  16.203  0.00  0.00    +0.000 A 
ATOM     24  N   UNL     1       6.120   3.859  15.757  0.00  0.00    +0.000 NA
ATOM     25  C   UNL     1       7.013   4.563  16.419  0.00  0.00    +0.000 A 
ATOM     26  N   UNL     1       6.418   5.429  17.288  0.00  0.00    +0.000 N 
BRANCH  26  27
ATOM     27  C   UNL     1       7.177   6.270  18.190  0.00  0.00    +0.000 C 
ATOM     28  C   UNL     1       7.618   7.595  17.594  0.00  0.00    +0.000 C 
ENDBRANCH  26  27
ENDBRANCH  21  22
ENDBRANCH   1  21
TORSDOF 8
ENDMDL
MODEL 2
REMARK VINA RESULT:      -7.8      1.970      3.806
REMARK  Name = 
REMARK  12 active torsions:
REMARK  status: ('A' for Active; 'I' for Inactive)
REMARK    1  A    between atoms: C_1  and  C_2
REMARK    2  A    between atoms: C_2  and  O_3
REMARK    3  A    between atoms: O_3  and  C_4
REMARK    4  A    between atoms: C_4  and  C_6
REMARK    5  A    between atoms: C_6  and  C_7
REMARK    6  A    between atoms: C_6  and  N_15
REMARK    7  A    between atoms: C_7  and  C_8
REMARK    8  A    between atoms: N_12  and  C_13
REMARK    9  A    between atoms: C_13  and  C_14
REMARK   10  A    between atoms: C_20  and  C_21
REMARK   11  A    between atoms: C_21  and  C_22
REMARK   12  A    between atoms: C_21  and  C_23
REMARK                            x       y       z     vdW  Elec       q    Type
REMARK                         _______ _______ _______ _____ _____    ______ ____
ROOT
ATOM      1  C   UNL     1       3.421   5.602  17.442  0.00  0.00    +0.000 C 
ENDROOT
BRANCH   1   2
ATOM      2  N   UNL     1       2.946   6.226  18.681  0.00  0.00    +0.000 N 
ATOM      3  C   UNL     1       2.427   7.450  18.767  0.00  0.00    +0.000 A 
ATOM      4  N   UNL     1       2.106   8.311  17.830  0.00  0.00    +0.000 NA
ATOM      5  C   UNL     1       1.324   9.220  18.499  0.00  0.00    +0.000 A 
ATOM      6  C   UNL     1       0.452  10.191  17.999  0.00  0.00    +0.000 A 
ATOM      7  C   UNL     1      -0.596  10.539  18.881  0.00  0.00    +0.000 A 
ATOM      8  C   UNL     1      -0.423  10.454  20.275  0.00  0.00    +0.000 A 
ATOM      9  C   UNL     1       0.544   9.596  20.800  0.00  0.00    +0.000 A 
ATOM     10  C   UNL     1       1.309   8.932  19.853  0.00  0.00    +0.000 A 
ATOM     11  O   UNL     1       2.073   7.820  20.036  0.00  0.00    +0.000 OA
ATOM     12  H   UNL     1       3.414   5.882  19.521  0.00  0.00    +0.000 HD
BRANCH   7  13
ATOM     13  C   UNL     1      -2.007  10.271  18.329  0.00  0.00    +0.000 C 
ATOM     14  C   UNL     1      -2.803  11.588  18.502  0.00  0.00    +0.000 C 
ATOM     15  C   UNL     1      -2.082   9.851  16.863  0.00  0.00    +0.000 C 
ENDBRANCH   7  13
ENDBRANCH   1   2
BRANCH   1  16
ATOM     16  C   UNL     1       4.763   6.298  17.086  0.00  0.00    +0.000 C 
ATOM     17  O   UNL     1       4.949   6.796  15.974  0.00  0.00    +0.000 OA
BRANCH  16  18
ATOM     18  O   UNL     1       5.724   6.223  18.042  0.00  0.00    +0.000 OA
BRANCH  18  20
ATOM     19  C   UNL     1       7.790   7.563  17.807  0.00  0.00    +0.000 C 
ATOM     20  C   UNL     1       7.084   6.239  17.556  0.00  0.00    +0.000 C 
ENDBRANCH  18  20
ENDBRANCH  16  18
ENDBRANCH   1  16
BRANCH   1  21
ATOM     21  C   UNL     1       3.397   4.054  17.436  0.00  0.00    +0.000 C 
BRANCH  21  22
ATOM     22  C   UNL     1       3.742   3.322  18.706  0.00  0.00    +0.000 A 
ATOM     23  C   UNL     1       4.965   2.895  19.178  0.00  0.00    +0.000 A 
ATOM     24  N   UNL     1       4.836   2.228  20.371  0.00  0.00    +0.000 NA
ATOM     25  C   UNL     1       3.543   2.201  20.614  0.00  0.00    +0.000 A 
ATOM     26  N   UNL     1       2.837   2.803  19.614  0.00  0.00    +0.000 N 
BRANCH  26  27
ATOM     27  C   UNL     1       1.390   2.847  19.599  0.00  0.00    +0.000 C 
ATOM     28  C   UNL     1       0.789   4.025  20.345  0.00  0.00    +0.000 C 
ENDBRANCH  26  27
ENDBRANCH  21  22
ENDBRANCH   1  21
TORSDOF 8
ENDMDL
MODEL 3
REMARK VINA RESULT:      -7.6      1.102      1.838
REMARK  Name = 
REMARK  12 active torsions:
REMARK  status: ('A' for Active; 'I' for Inactive)
REMARK    1  A    between atoms: C_1  and  C_2
REMARK    2  A    between atoms: C_2  and  O_3
REMARK    3  A    between atoms: O_3  and  C_4
REMARK    4  A    between atoms: C_4  and  C_6
REMARK    5  A    between atoms: C_6  and  C_7
REMARK    6  A    between atoms: C_6  and  N_15
REMARK    7  A    between atoms: C_7  and  C_8
REMARK    8  A    between atoms: N_12  and  C_13
REMARK    9  A    between atoms: C_13  and  C_14
REMARK   10  A    between atoms: C_20  and  C_21
REMARK   11  A    between atoms: C_21  and  C_22
REMARK   12  A    between atoms: C_21  and  C_23
REMARK                            x       y       z     vdW  Elec       q    Type
REMARK                         _______ _______ _______ _____ _____    ______ ____
ROOT
ATOM      1  C   UNL     1       2.764   5.083  19.085  0.00  0.00    +0.000 C 
ENDROOT
BRANCH   1   2
ATOM      2  N   UNL     1       2.191   5.991  20.084  0.00  0.00    +0.000 N 
ATOM      3  C   UNL     1       2.021   7.302  19.912  0.00  0.00    +0.000 A 
ATOM      4  N   UNL     1       2.185   8.054  18.850  0.00  0.00    +0.000 NA
ATOM      5  C   UNL     1       1.543   9.218  19.191  0.00  0.00    +0.000 A 
ATOM      6  C   UNL     1       1.117  10.278  18.385  0.00  0.00    +0.000 A 
ATOM      7  C   UNL     1       0.022  11.003  18.908  0.00  0.00    +0.000 A 
ATOM      8  C   UNL     1      -0.179  11.101  20.297  0.00  0.00    +0.000 A 
ATOM      9  C   UNL     1       0.360  10.131  21.144  0.00  0.00    +0.000 A 
ATOM     10  C   UNL     1       1.121   9.161  20.509  0.00  0.00    +0.000 A 
ATOM     11  O   UNL     1       1.484   7.943  20.996  0.00  0.00    +0.000 OA
ATOM     12  H   UNL     1       2.328   5.684  21.047  0.00  0.00    +0.000 HD
BRANCH   7  13
ATOM     13  C   UNL     1      -1.230  10.995  18.013  0.00  0.00    +0.000 C 
ATOM     14  C   UNL     1      -1.340   9.567  17.425  0.00  0.00    +0.000 C 
ATOM     15  C   UNL     1      -2.547  11.335  18.706  0.00  0.00    +0.000 C 
ENDBRANCH   7  13
ENDBRANCH   1   2
BRANCH   1  16
ATOM     16  C   UNL     1       1.584   4.247  18.522  0.00  0.00    +0.000 C 
ATOM     17  O   UNL     1       1.246   4.333  17.340  0.00  0.00    +0.000 OA
BRANCH  16  18
ATOM     18  O   UNL     1       0.909   3.508  19.440  0.00  0.00    +0.000 OA
BRANCH  18  20
ATOM     19  C   UNL     1       1.584   2.627  21.651  0.00  0.00    +0.000 C 
ATOM     20  C   UNL     1       1.695   2.517  20.138  0.00  0.00    +0.000 C 
ENDBRANCH  18  20
ENDBRANCH  16  18
ENDBRANCH   1  16
BRANCH   1  21
ATOM     21  C   UNL     1       3.717   5.751  18.064  0.00  0.00    +0.000 C 
BRANCH  21  22
ATOM     22  C   UNL     1       5.163   5.331  18.044  0.00  0.00    +0.000 A 
ATOM     23  C   UNL     1       6.035   5.108  19.088  0.00  0.00    +0.000 A 
ATOM     24  N   UNL     1       7.286   4.772  18.632  0.00  0.00    +0.000 NA
ATOM     25  C   UNL     1       7.203   4.830  17.320  0.00  0.00    +0.000 A 
ATOM     26  N   UNL     1       5.957   5.213  16.918  0.00  0.00    +0.000 N 
BRANCH  26  27
ATOM     27  C   UNL     1       5.619   5.424  15.526  0.00  0.00    +0.000 C 
ATOM     28  C   UNL     1       5.868   4.225  14.629  0.00  0.00    +0.000 C 
ENDBRANCH  26  27
ENDBRANCH  21  22
ENDBRANCH   1  21
TORSDOF 8
ENDMDL
MODEL 4
REMARK VINA RESULT:      -7.6      3.088      8.359
REMARK  Name = 
REMARK  12 active torsions:
REMARK  status: ('A' for Active; 'I' for Inactive)
REMARK    1  A    between atoms: C_1  and  C_2
REMARK    2  A    between atoms: C_2  and  O_3
REMARK    3  A    between atoms: O_3  and  C_4
REMARK    4  A    between atoms: C_4  and  C_6
REMARK    5  A    between atoms: C_6  and  C_7
REMARK    6  A    between atoms: C_6  and  N_15
REMARK    7  A    between atoms: C_7  and  C_8
REMARK    8  A    between atoms: N_12  and  C_13
REMARK    9  A    between atoms: C_13  and  C_14
REMARK   10  A    between atoms: C_20  and  C_21
REMARK   11  A    between atoms: C_21  and  C_22
REMARK   12  A    between atoms: C_21  and  C_23
REMARK                            x       y       z     vdW  Elec       q    Type
REMARK                         _______ _______ _______ _____ _____    ______ ____
ROOT
ATOM      1  C   UNL     1       0.089  11.119  19.106  0.00  0.00    +0.000 C 
ENDROOT
BRANCH   1   2
ATOM      2  N   UNL     1       0.954  10.261  18.291  0.00  0.00    +0.000 N 
ATOM      3  C   UNL     1       1.595   9.182  18.739  0.00  0.00    +0.000 A 
ATOM      4  N   UNL     1       1.531   8.568  19.896  0.00  0.00    +0.000 NA
ATOM      5  C   UNL     1       2.139   7.364  19.642  0.00  0.00    +0.000 A 
ATOM      6  C   UNL     1       2.121   6.176  20.379  0.00  0.00    +0.000 A 
ATOM      7  C   UNL     1       2.326   5.010  19.608  0.00  0.00    +0.000 A 
ATOM      8  C   UNL     1       3.098   5.050  18.433  0.00  0.00    +0.000 A 
ATOM      9  C   UNL     1       3.256   6.258  17.751  0.00  0.00    +0.000 A 
ATOM     10  C   UNL     1       2.660   7.353  18.359  0.00  0.00    +0.000 A 
ATOM     11  O   UNL     1       2.360   8.554  17.793  0.00  0.00    +0.000 OA
ATOM     12  H   UNL     1       1.393  10.746  17.507  0.00  0.00    +0.000 HD
BRANCH   7  13
ATOM     13  C   UNL     1       1.161   4.006  19.651  0.00  0.00    +0.000 C 
ATOM     14  C   UNL     1       1.312   3.105  18.400  0.00  0.00    +0.000 C 
ATOM     15  C   UNL     1       1.096   3.110  20.885  0.00  0.00    +0.000 C 
ENDBRANCH   7  13
ENDBRANCH   1   2
BRANCH   1  16
ATOM     16  C   UNL     1       1.008  11.804  20.153  0.00  0.00    +0.000 C 
ATOM     17  O   UNL     1       1.852  12.637  19.815  0.00  0.00    +0.000 OA
BRANCH  16  18
ATOM     18  O   UNL     1       0.878  11.345  21.424  0.00  0.00    +0.000 OA
BRANCH  18  20
ATOM     19  C   UNL     1      -1.182  12.074  22.584  0.00  0.00    +0.000 C 
ATOM     20  C   UNL     1      -0.463  10.975  21.816  0.00  0.00    +0.000 C 
ENDBRANCH  18  20
ENDBRANCH  16  18
ENDBRANCH   1  16
BRANCH   1  21
ATOM     21  C   UNL     1      -0.878  12.026  18.305  0.00  0.00    +0.000 C 
BRANCH  21  22
ATOM     22  C   UNL     1      -2.346  11.693  18.304  0.00  0.00    +0.000 A 
ATOM     23  C   UNL     1      -3.342  12.078  19.177  0.00  0.00    +0.000 A 
ATOM     24  N   UNL     1      -4.549  11.519  18.836  0.00  0.00    +0.000 NA
ATOM     25  C   UNL     1      -4.296  10.760  17.791  0.00  0.00    +0.000 A 
ATOM     26  N   UNL     1      -2.972  10.792  17.463  0.00  0.00    +0.000 N 
BRANCH  26  27
ATOM     27  C   UNL     1      -2.416   9.988  16.395  0.00  0.00    +0.000 C 
ATOM     28  C   UNL     1      -2.939  10.331  15.012  0.00  0.00    +0.000 C 
ENDBRANCH  26  27
ENDBRANCH  21  22
ENDBRANCH   1  21
TORSDOF 8
ENDMDL
MODEL 5
REMARK VINA RESULT:      -7.6      1.999      3.690
REMARK  Name = 
REMARK  12 active torsions:
REMARK  status: ('A' for Active; 'I' for Inactive)
REMARK    1  A    between atoms: C_1  and  C_2
REMARK    2  A    between atoms: C_2  and  O_3
REMARK    3  A    between atoms: O_3  and  C_4
REMARK    4  A    between atoms: C_4  and  C_6
REMARK    5  A    between atoms: C_6  and  C_7
REMARK    6  A    between atoms: C_6  and  N_15
REMARK    7  A    between atoms: C_7  and  C_8
REMARK    8  A    between atoms: N_12  and  C_13
REMARK    9  A    between atoms: C_13  and  C_14
REMARK   10  A    between atoms: C_20  and  C_21
REMARK   11  A    between atoms: C_21  and  C_22
REMARK   12  A    between atoms: C_21  and  C_23
REMARK                            x       y       z     vdW  Elec       q    Type
REMARK                         _______ _______ _______ _____ _____    ______ ____
ROOT
ATOM      1  C   UNL     1       3.825   5.773  17.335  0.00  0.00    +0.000 C 
ENDROOT
BRANCH   1   2
ATOM      2  N   UNL     1       3.244   6.240  18.598  0.00  0.00    +0.000 N 
ATOM      3  C   UNL     1       2.666   7.427  18.776  0.00  0.00    +0.000 A 
ATOM      4  N   UNL     1       2.367   8.371  17.916  0.00  0.00    +0.000 NA
ATOM      5  C   UNL     1       1.504   9.172  18.622  0.00  0.00    +0.000 A 
ATOM      6  C   UNL     1       0.622  10.158  18.170  0.00  0.00    +0.000 A 
ATOM      7  C   UNL     1      -0.496  10.368  19.010  0.00  0.00    +0.000 A 
ATOM      8  C   UNL     1      -0.408  10.138  20.395  0.00  0.00    +0.000 A 
ATOM      9  C   UNL     1       0.562   9.266  20.892  0.00  0.00    +0.000 A 
ATOM     10  C   UNL     1       1.415   8.738  19.934  0.00  0.00    +0.000 A 
ATOM     11  O   UNL     1       2.216   7.643  20.051  0.00  0.00    +0.000 OA
ATOM     12  H   UNL     1       3.673   5.825  19.426  0.00  0.00    +0.000 HD
BRANCH   7  13
ATOM     13  C   UNL     1      -1.855  10.107  18.338  0.00  0.00    +0.000 C 
ATOM     14  C   UNL     1      -2.695  11.393  18.535  0.00  0.00    +0.000 C 
ATOM     15  C   UNL     1      -1.811   9.784  16.846  0.00  0.00    +0.000 C 
ENDBRANCH   7  13
ENDBRANCH   1   2
BRANCH   1  16
ATOM     16  C   UNL     1       5.217   6.450  17.214  0.00  0.00    +0.000 C 
ATOM     17  O   UNL     1       5.569   7.006  16.171  0.00  0.00    +0.000 OA
BRANCH  16  18
ATOM     18  O   UNL     1       6.031   6.294  18.289  0.00  0.00    +0.000 OA
BRANCH  18  20
ATOM     19  C   UNL     1       7.535   4.555  17.379  0.00  0.00    +0.000 C 
ATOM     20  C   UNL     1       7.399   5.942  17.986  0.00  0.00    +0.000 C 
ENDBRANCH  18  20
ENDBRANCH  16  18
ENDBRANCH   1  16
BRANCH   1  21
ATOM     21  C   UNL     1       3.754   4.243  17.107  0.00  0.00    +0.000 C 
BRANCH  21  22
ATOM     22  C   UNL     1       2.640   3.467  17.757  0.00  0.00    +0.000 A 
ATOM     23  C   UNL     1       1.284   3.718  17.783  0.00  0.00    +0.000 A 
ATOM     24  N   UNL     1       0.615   2.775  18.525  0.00  0.00    +0.000 NA
ATOM     25  C   UNL     1       1.550   1.975  18.990  0.00  0.00    +0.000 A 
ATOM     26  N   UNL     1       2.792   2.380  18.597  0.00  0.00    +0.000 N 
BRANCH  26  27
ATOM     27  C   UNL     1       4.001   1.714  19.032  0.00  0.00    +0.000 C 
ATOM     28  C   UNL     1       4.497   2.142  20.402  0.00  0.00    +0.000 C 
ENDBRANCH  26  27
ENDBRANCH  21  22
ENDBRANCH   1  21
TORSDOF 8
ENDMDL
MODEL 6
REMARK VINA RESULT:      -7.6      0.907      1.642
REMARK  Name = 
REMARK  12 active torsions:
REMARK  status: ('A' for Active; 'I' for Inactive)
REMARK    1  A    between atoms: C_1  and  C_2
REMARK    2  A    between atoms: C_2  and  O_3
REMARK    3  A    between atoms: O_3  and  C_4
REMARK    4  A    between atoms: C_4  and  C_6
REMARK    5  A    between atoms: C_6  and  C_7
REMARK    6  A    between atoms: C_6  and  N_15
REMARK    7  A    between atoms: C_7  and  C_8
REMARK    8  A    between atoms: N_12  and  C_13
REMARK    9  A    between atoms: C_13  and  C_14
REMARK   10  A    between atoms: C_20  and  C_21
REMARK   11  A    between atoms: C_21  and  C_22
REMARK   12  A    between atoms: C_21  and  C_23
REMARK                            x       y       z     vdW  Elec       q    Type
REMARK                         _______ _______ _______ _____ _____    ______ ____
ROOT
ATOM      1  C   UNL     1       3.011   5.320  19.415  0.00  0.00    +0.000 C 
ENDROOT
BRANCH   1   2
ATOM      2  N   UNL     1       2.477   6.321  20.344  0.00  0.00    +0.000 N 
ATOM      3  C   UNL     1       2.054   7.536  19.992  0.00  0.00    +0.000 A 
ATOM      4  N   UNL     1       1.890   8.076  18.808  0.00  0.00    +0.000 NA
ATOM      5  C   UNL     1       1.128   9.185  19.075  0.00  0.00    +0.000 A 
ATOM      6  C   UNL     1       0.387   9.994  18.209  0.00  0.00    +0.000 A 
ATOM      7  C   UNL     1      -0.706  10.651  18.820  0.00  0.00    +0.000 A 
ATOM      8  C   UNL     1      -0.668  10.996  20.183  0.00  0.00    +0.000 A 
ATOM      9  C   UNL     1       0.175  10.298  21.050  0.00  0.00    +0.000 A 
ATOM     10  C   UNL     1       0.966   9.335  20.443  0.00  0.00    +0.000 A 
ATOM     11  O   UNL     1       1.617   8.300  21.041  0.00  0.00    +0.000 OA
ATOM     12  H   UNL     1       2.837   6.234  21.294  0.00  0.00    +0.000 HD
BRANCH   7  13
ATOM     13  C   UNL     1      -2.078  10.294  18.222  0.00  0.00    +0.000 C 
ATOM     14  C   UNL     1      -2.991  11.522  18.456  0.00  0.00    +0.000 C 
ATOM     15  C   UNL     1      -2.090   9.960  16.732  0.00  0.00    +0.000 C 
ENDBRANCH   7  13
ENDBRANCH   1   2
BRANCH   1  16
ATOM     16  C   UNL     1       1.813   4.426  18.996  0.00  0.00    +0.000 C 
ATOM     17  O   UNL     1       0.932   4.118  19.802  0.00  0.00    +0.000 OA
BRANCH  16  18
ATOM     18  O   UNL     1       1.870   3.941  17.729  0.00  0.00    +0.000 OA
BRANCH  18  20
ATOM     19  C   UNL     1       2.761   1.760  18.483  0.00  0.00    +0.000 C 
ATOM     20  C   UNL     1       2.863   2.917  17.501  0.00  0.00    +0.000 C 
ENDBRANCH  18  20
ENDBRANCH  16  18
ENDBRANCH   1  16
BRANCH   1  21
ATOM     21  C   UNL     1       3.908   5.885  18.287  0.00  0.00    +0.000 C 
BRANCH  21  22
ATOM     22  C   UNL     1       5.363   5.501  18.260  0.00  0.00    +0.000 A 
ATOM     23  C   UNL     1       6.244   5.295  19.301  0.00  0.00    +0.000 A 
ATOM     24  N   UNL     1       7.501   4.991  18.840  0.00  0.00    +0.000 NA
ATOM     25  C   UNL     1       7.412   5.051  17.529  0.00  0.00    +0.000 A 
ATOM     26  N   UNL     1       6.156   5.405  17.132  0.00  0.00    +0.000 N 
BRANCH  26  27
ATOM     27  C   UNL     1       5.809   5.612  15.742  0.00  0.00    +0.000 C 
ATOM     28  C   UNL     1       5.423   4.348  14.994  0.00  0.00    +0.000 C 
ENDBRANCH  26  27
ENDBRANCH  21  22
ENDBRANCH   1  21
TORSDOF 8
ENDMDL
MODEL 7
REMARK VINA RESULT:      -7.4      1.050      1.092
REMARK  Name = 
REMARK  12 active torsions:
REMARK  status: ('A' for Active; 'I' for Inactive)
REMARK    1  A    between atoms: C_1  and  C_2
REMARK    2  A    between atoms: C_2  and  O_3
REMARK    3  A    between atoms: O_3  and  C_4
REMARK    4  A    between atoms: C_4  and  C_6
REMARK    5  A    between atoms: C_6  and  C_7
REMARK    6  A    between atoms: C_6  and  N_15
REMARK    7  A    between atoms: C_7  and  C_8
REMARK    8  A    between atoms: N_12  and  C_13
REMARK    9  A    between atoms: C_13  and  C_14
REMARK   10  A    between atoms: C_20  and  C_21
REMARK   11  A    between atoms: C_21  and  C_22
REMARK   12  A    between atoms: C_21  and  C_23
REMARK                            x       y       z     vdW  Elec       q    Type
REMARK                         _______ _______ _______ _____ _____    ______ ____
ROOT
ATOM      1  C   UNL     1       3.287   5.633  18.901  0.00  0.00    +0.000 C 
ENDROOT
BRANCH   1   2
ATOM      2  N   UNL     1       2.629   6.401  19.963  0.00  0.00    +0.000 N 
ATOM      3  C   UNL     1       2.125   7.626  19.815  0.00  0.00    +0.000 A 
ATOM      4  N   UNL     1       1.974   8.366  18.743  0.00  0.00    +0.000 NA
ATOM      5  C   UNL     1       1.111   9.348  19.162  0.00  0.00    +0.000 A 
ATOM      6  C   UNL     1       0.348  10.250  18.415  0.00  0.00    +0.000 A 
ATOM      7  C   UNL     1      -0.823  10.700  19.066  0.00  0.00    +0.000 A 
ATOM      8  C   UNL     1      -0.878  10.784  20.470  0.00  0.00    +0.000 A 
ATOM      9  C   UNL     1      -0.023   9.998  21.244  0.00  0.00    +0.000 A 
ATOM     10  C   UNL     1       0.873   9.226  20.520  0.00  0.00    +0.000 A 
ATOM     11  O   UNL     1       1.578   8.146  20.957  0.00  0.00    +0.000 OA
ATOM     12  H   UNL     1       2.950   6.163  20.902  0.00  0.00    +0.000 HD
BRANCH   7  13
ATOM     13  C   UNL     1      -2.130  10.364  18.328  0.00  0.00    +0.000 C 
ATOM     14  C   UNL     1      -2.999  11.645  18.371  0.00  0.00    +0.000 C 
ATOM     15  C   UNL     1      -1.983   9.929  16.873  0.00  0.00    +0.000 C 
ENDBRANCH   7  13
ENDBRANCH   1   2
BRANCH   1  16
ATOM     16  C   UNL     1       2.346   4.444  18.570  0.00  0.00    +0.000 C 
ATOM     17  O   UNL     1       2.509   3.763  17.556  0.00  0.00    +0.000 OA
BRANCH  16  18
ATOM     18  O   UNL     1       1.297   4.285  19.417  0.00  0.00    +0.000 OA
BRANCH  18  20
ATOM     19  C   UNL     1       2.304   2.927  21.222  0.00  0.00    +0.000 C 
ATOM     20  C   UNL     1       1.256   3.026  20.125  0.00  0.00    +0.000 C 
ENDBRANCH  18  20
ENDBRANCH  16  18
ENDBRANCH   1  16
BRANCH   1  21
ATOM     21  C   UNL     1       3.816   6.476  17.715  0.00  0.00    +0.000 C 
BRANCH  21  22
ATOM     22  C   UNL     1       5.065   6.023  17.006  0.00  0.00    +0.000 A 
ATOM     23  C   UNL     1       5.305   5.845  15.660  0.00  0.00    +0.000 A 
ATOM     24  N   UNL     1       6.577   5.380  15.436  0.00  0.00    +0.000 NA
ATOM     25  C   UNL     1       7.105   5.228  16.632  0.00  0.00    +0.000 A 
ATOM     26  N   UNL     1       6.215   5.554  17.613  0.00  0.00    +0.000 N 
BRANCH  26  27
ATOM     27  C   UNL     1       6.520   5.406  19.020  0.00  0.00    +0.000 C 
ATOM     28  C   UNL     1       7.948   5.762  19.395  0.00  0.00    +0.000 C 
ENDBRANCH  26  27
ENDBRANCH  21  22
ENDBRANCH   1  21
TORSDOF 8
ENDMDL
MODEL 8
REMARK VINA RESULT:      -7.4      1.987      3.553
REMARK  Name = 
REMARK  12 active torsions:
REMARK  status: ('A' for Active; 'I' for Inactive)
REMARK    1  A    between atoms: C_1  and  C_2
REMARK    2  A    between atoms: C_2  and  O_3
REMARK    3  A    between atoms: O_3  and  C_4
REMARK    4  A    between atoms: C_4  and  C_6
REMARK    5  A    between atoms: C_6  and  C_7
REMARK    6  A    between atoms: C_6  and  N_15
REMARK    7  A    between atoms: C_7  and  C_8
REMARK    8  A    between atoms: N_12  and  C_13
REMARK    9  A    between atoms: C_13  and  C_14
REMARK   10  A    between atoms: C_20  and  C_21
REMARK   11  A    between atoms: C_21  and  C_22
REMARK   12  A    between atoms: C_21  and  C_23
REMARK                            x       y       z     vdW  Elec       q    Type
REMARK                         _______ _______ _______ _____ _____    ______ ____
ROOT
ATOM      1  C   UNL     1       3.177   6.171  18.188  0.00  0.00    +0.000 C 
ENDROOT
BRANCH   1   2
ATOM      2  N   UNL     1       2.612   7.005  19.253  0.00  0.00    +0.000 N 
ATOM      3  C   UNL     1       1.970   8.157  19.057  0.00  0.00    +0.000 A 
ATOM      4  N   UNL     1       1.586   8.745  17.949  0.00  0.00    +0.000 NA
ATOM      5  C   UNL     1       0.701   9.696  18.392  0.00  0.00    +0.000 A 
ATOM      6  C   UNL     1      -0.253  10.433  17.685  0.00  0.00    +0.000 A 
ATOM      7  C   UNL     1      -1.352  10.861  18.464  0.00  0.00    +0.000 A 
ATOM      8  C   UNL     1      -1.205  11.112  19.840  0.00  0.00    +0.000 A 
ATOM      9  C   UNL     1      -0.168  10.500  20.547  0.00  0.00    +0.000 A 
ATOM     10  C   UNL     1       0.683   9.722  19.777  0.00  0.00    +0.000 A 
ATOM     11  O   UNL     1       1.550   8.766  20.209  0.00  0.00    +0.000 OA
ATOM     12  H   UNL     1       3.092   6.911  20.148  0.00  0.00    +0.000 HD
BRANCH   7  13
ATOM     13  C   UNL     1      -2.715  10.330  17.986  0.00  0.00    +0.000 C 
ATOM     14  C   UNL     1      -3.738  11.466  18.230  0.00  0.00    +0.000 C 
ATOM     15  C   UNL     1      -2.794   9.916  16.519  0.00  0.00    +0.000 C 
ENDBRANCH   7  13
ENDBRANCH   1   2
BRANCH   1  16
ATOM     16  C   UNL     1       4.640   5.857  18.604  0.00  0.00    +0.000 C 
ATOM     17  O   UNL     1       4.925   5.565  19.767  0.00  0.00    +0.000 OA
BRANCH  16  18
ATOM     18  O   UNL     1       5.567   6.029  17.627  0.00  0.00    +0.000 OA
BRANCH  18  20
ATOM     19  C   UNL     1       7.581   4.607  17.429  0.00  0.00    +0.000 C 
ATOM     20  C   UNL     1       6.117   4.813  17.073  0.00  0.00    +0.000 C 
ENDBRANCH  18  20
ENDBRANCH  16  18
ENDBRANCH   1  16
BRANCH   1  21
ATOM     21  C   UNL     1       2.290   4.980  17.749  0.00  0.00    +0.000 C 
BRANCH  21  22
ATOM     22  C   UNL     1       2.672   3.593  18.191  0.00  0.00    +0.000 A 
ATOM     23  C   UNL     1       3.178   2.538  17.462  0.00  0.00    +0.000 A 
ATOM     24  N   UNL     1       3.357   1.426  18.247  0.00  0.00    +0.000 NA
ATOM     25  C   UNL     1       2.924   1.773  19.441  0.00  0.00    +0.000 A 
ATOM     26  N   UNL     1       2.454   3.053  19.445  0.00  0.00    +0.000 N 
BRANCH  26  27
ATOM     27  C   UNL     1       1.855   3.657  20.617  0.00  0.00    +0.000 C 
ATOM     28  C   UNL     1       1.451   2.670  21.697  0.00  0.00    +0.000 C 
ENDBRANCH  26  27
ENDBRANCH  21  22
ENDBRANCH   1  21
TORSDOF 8
ENDMDL
MODEL 9
REMARK VINA RESULT:      -7.4      0.832      1.664
REMARK  Name = 
REMARK  12 active torsions:
REMARK  status: ('A' for Active; 'I' for Inactive)
REMARK    1  A    between atoms: C_1  and  C_2
REMARK    2  A    between atoms: C_2  and  O_3
REMARK    3  A    between atoms: O_3  and  C_4
REMARK    4  A    between atoms: C_4  and  C_6
REMARK    5  A    between atoms: C_6  and  C_7
REMARK    6  A    between atoms: C_6  and  N_15
REMARK    7  A    between atoms: C_7  and  C_8
REMARK    8  A    between atoms: N_12  and  C_13
REMARK    9  A    between atoms: C_13  and  C_14
REMARK   10  A    between atoms: C_20  and  C_21
REMARK   11  A    between atoms: C_21  and  C_22
REMARK   12  A    between atoms: C_21  and  C_23
REMARK                            x       y       z     vdW  Elec       q    Type
REMARK                         _______ _______ _______ _____ _____    ______ ____
ROOT
ATOM      1  C   UNL     1       3.282   5.401  18.569  0.00  0.00    +0.000 C 
ENDROOT
BRANCH   1   2
ATOM      2  N   UNL     1       2.735   6.217  19.657  0.00  0.00    +0.000 N 
ATOM      3  C   UNL     1       2.253   7.451  19.515  0.00  0.00    +0.000 A 
ATOM      4  N   UNL     1       2.035   8.166  18.437  0.00  0.00    +0.000 NA
ATOM      5  C   UNL     1       1.236   9.184  18.896  0.00  0.00    +0.000 A 
ATOM      6  C   UNL     1       0.439  10.087  18.187  0.00  0.00    +0.000 A 
ATOM      7  C   UNL     1      -0.662  10.589  18.918  0.00  0.00    +0.000 A 
ATOM      8  C   UNL     1      -0.600  10.713  20.318  0.00  0.00    +0.000 A 
ATOM      9  C   UNL     1       0.294   9.923  21.043  0.00  0.00    +0.000 A 
ATOM     10  C   UNL     1       1.106   9.105  20.272  0.00  0.00    +0.000 A 
ATOM     11  O   UNL     1       1.815   8.018  20.682  0.00  0.00    +0.000 OA
ATOM     12  H   UNL     1       3.124   5.994  20.574  0.00  0.00    +0.000 HD
BRANCH   7  13
ATOM     13  C   UNL     1      -2.034  10.271  18.298  0.00  0.00    +0.000 C 
ATOM     14  C   UNL     1      -2.917  11.524  18.523  0.00  0.00    +0.000 C 
ATOM     15  C   UNL     1      -2.034   9.942  16.808  0.00  0.00    +0.000 C 
ENDBRANCH   7  13
ENDBRANCH   1   2
BRANCH   1  16
ATOM     16  C   UNL     1       2.237   4.290  18.282  0.00  0.00    +0.000 C 
ATOM     17  O   UNL     1       1.324   4.465  17.473  0.00  0.00    +0.000 OA
BRANCH  16  18
ATOM     18  O   UNL     1       2.352   3.177  19.051  0.00  0.00    +0.000 OA
BRANCH  18  20
ATOM     19  C   UNL     1       3.780   1.234  18.502  0.00  0.00    +0.000 C 
ATOM     20  C   UNL     1       3.680   2.614  19.134  0.00  0.00    +0.000 C 
ENDBRANCH  18  20
ENDBRANCH  16  18
ENDBRANCH   1  16
BRANCH   1  21
ATOM     21  C   UNL     1       3.822   6.203  17.358  0.00  0.00    +0.000 C 
BRANCH  21  22
ATOM     22  C   UNL     1       5.291   6.127  17.040  0.00  0.00    +0.000 A 
ATOM     23  C   UNL     1       6.334   6.919  17.472  0.00  0.00    +0.000 A 
ATOM     24  N   UNL     1       7.525   6.531  16.910  0.00  0.00    +0.000 NA
ATOM     25  C   UNL     1       7.218   5.537  16.103  0.00  0.00    +0.000 A 
ATOM     26  N   UNL     1       5.877   5.290  16.108  0.00  0.00    +0.000 N 
BRANCH  26  27
ATOM     27  C   UNL     1       5.266   4.294  15.253  0.00  0.00    +0.000 C 
ATOM     28  C   UNL     1       6.121   3.869  14.072  0.00  0.00    +0.000 C 
ENDBRANCH  26  27
ENDBRANCH  21  22
ENDBRANCH   1  21
TORSDOF 8
ENDMDL
