MODEL 1
REMARK VINA RESULT:      -8.0      0.000      0.000
REMARK  Name = 
REMARK  11 active torsions:
REMARK  status: ('A' for Active; 'I' for Inactive)
REMARK    1  A    between atoms: C_1  and  C_2
REMARK    2  A    between atoms: C_2  and  O_3
REMARK    3  A    between atoms: O_3  and  C_4
REMARK    4  A    between atoms: C_4  and  C_6
REMARK    5  A    between atoms: N_8  and  C_9
REMARK    6  A    between atoms: C_13  and  C_14
REMARK    7  A    between atoms: C_14  and  O_16
REMARK    8  A    between atoms: C_19  and  C_20
REMARK    9  A    between atoms: C_20  and  C_21
REMARK   10  A    between atoms: C_21  and  C_22
REMARK   11  A    between atoms: C_21  and  C_23
REMARK                            x       y       z     vdW  Elec       q    Type
REMARK                         _______ _______ _______ _____ _____    ______ ____
ROOT
ATOM      1  C   UNL     1       5.696   5.099  15.961  0.00  0.00    +0.000 A 
ATOM      2  C   UNL     1       4.654   4.239  16.263  0.00  0.00    +0.000 A 
ATOM      3  N   UNL     1       3.999   4.751  17.349  0.00  0.00    +0.000 N 
ATOM      4  N   UNL     1       4.483   5.968  17.689  0.00  0.00    +0.000 NA
ATOM      5  C   UNL     1       5.539   6.163  16.885  0.00  0.00    +0.000 A 
ENDROOT
BRANCH   3   6
ATOM      6  C   UNL     1       2.967   4.141  18.111  0.00  0.00    +0.000 A 
ATOM      7  C   UNL     1       1.679   3.978  17.582  0.00  0.00    +0.000 A 
ATOM      8  C   UNL     1       0.696   3.319  18.322  0.00  0.00    +0.000 A 
ATOM      9  C   UNL     1       0.984   2.846  19.603  0.00  0.00    +0.000 A 
ATOM     10  C   UNL     1       2.257   3.032  20.151  0.00  0.00    +0.000 A 
ATOM     11  C   UNL     1       3.256   3.657  19.400  0.00  0.00    +0.000 A 
BRANCH  10  12
ATOM     12  C   UNL     1       2.508   2.507  21.515  0.00  0.00    +0.000 C 
ATOM     13  O   UNL     1       1.667   2.528  22.398  0.00  0.00    +0.000 OA
BRANCH  12  14
ATOM     14  O   UNL     1       3.769   2.056  21.705  0.00  0.00    +0.000 OA
ATOM     15  H   UNL     1       4.204   2.373  22.514  0.00  0.00    +0.000 HD
ENDBRANCH  12  14
ENDBRANCH  10  12
ENDBRANCH   3   6
BRANCH   1  16
ATOM     16  C   UNL     1       6.701   4.816  14.956  0.00  0.00    +0.000 C 
ATOM     17  O   UNL     1       7.642   5.568  14.730  0.00  0.00    +0.000 OA
BRANCH  16  18
ATOM     18  O   UNL     1       6.407   3.709  14.221  0.00  0.00    +0.000 OA
BRANCH  18  20
ATOM     19  C   UNL     1       5.456   3.315  12.067  0.00  0.00    +0.000 C 
ATOM     20  C   UNL     1       6.672   3.832  12.818  0.00  0.00    +0.000 C 
ENDBRANCH  18  20
ENDBRANCH  16  18
ENDBRANCH   1  16
BRANCH   5  21
ATOM     21  C   UNL     1       6.377   7.392  17.091  0.00  0.00    +0.000 C 
BRANCH  21  22
ATOM     22  C   UNL     1       7.740   7.113  17.752  0.00  0.00    +0.000 C 
ATOM     23  C   UNL     1       8.400   8.387  18.290  0.00  0.00    +0.000 C 
ATOM     24  C   UNL     1       7.572   6.113  18.900  0.00  0.00    +0.000 C 
ENDBRANCH  21  22
ENDBRANCH   5  21
TORSDOF 8
ENDMDL
MODEL 2
REMARK VINA RESULT:      -7.5      4.253      5.422
REMARK  Name = 
REMARK  11 active torsions:
REMARK  status: ('A' for Active; 'I' for Inactive)
REMARK    1  A    between atoms: C_1  and  C_2
REMARK    2  A    between atoms: C_2  and  O_3
REMARK    3  A    between atoms: O_3  and  C_4
REMARK    4  A    between atoms: C_4  and  C_6
REMARK    5  A    between atoms: N_8  and  C_9
REMARK    6  A    between atoms: C_13  and  C_14
REMARK    7  A    between atoms: C_14  and  O_16
REMARK    8  A    between atoms: C_19  and  C_20
REMARK    9  A    between atoms: C_20  and  C_21
REMARK   10  A    between atoms: C_21  and  C_22
REMARK   11  A    between atoms: C_21  and  C_23
REMARK                            x       y       z     vdW  Elec       q    Type
REMARK                         _______ _______ _______ _____ _____    ______ ____
ROOT
ATOM      1  C   UNL     1       3.542   5.276  18.516  0.00  0.00    +0.000 A 
ATOM      2  C   UNL     1       2.470   5.916  19.115  0.00  0.00    +0.000 A 
ATOM      3  N   UNL     1       2.536   7.238  18.772  0.00  0.00    +0.000 N 
ATOM      4  N   UNL     1       3.523   7.467  17.875  0.00  0.00    +0.000 NA
ATOM      5  C   UNL     1       4.165   6.295  17.752  0.00  0.00    +0.000 A 
ENDROOT
BRANCH   3   6
ATOM      6  C   UNL     1       1.747   8.309  19.271  0.00  0.00    +0.000 A 
ATOM      7  C   UNL     1       1.359   9.369  18.440  0.00  0.00    +0.000 A 
ATOM      8  C   UNL     1       0.530  10.379  18.933  0.00  0.00    +0.000 A 
ATOM      9  C   UNL     1       0.109  10.351  20.263  0.00  0.00    +0.000 A 
ATOM     10  C   UNL     1       0.516   9.314  21.108  0.00  0.00    +0.000 A 
ATOM     11  C   UNL     1       1.314   8.280  20.610  0.00  0.00    +0.000 A 
BRANCH  10  12
ATOM     12  C   UNL     1       0.036   9.333  22.511  0.00  0.00    +0.000 C 
ATOM     13  O   UNL     1       0.520  10.055  23.366  0.00  0.00    +0.000 OA
BRANCH  12  14
ATOM     14  O   UNL     1      -0.945   8.438  22.767  0.00  0.00    +0.000 OA
ATOM     15  H   UNL     1      -1.768   8.814  23.119  0.00  0.00    +0.000 HD
ENDBRANCH  12  14
ENDBRANCH  10  12
ENDBRANCH   3   6
BRANCH   1  16
ATOM     16  C   UNL     1       3.886   3.890  18.765  0.00  0.00    +0.000 C 
ATOM     17  O   UNL     1       4.805   3.559  19.506  0.00  0.00    +0.000 OA
BRANCH  16  18
ATOM     18  O   UNL     1       3.173   3.029  17.991  0.00  0.00    +0.000 OA
BRANCH  18  20
ATOM     19  C   UNL     1       1.051   2.477  18.935  0.00  0.00    +0.000 C 
ATOM     20  C   UNL     1       2.478   2.005  18.715  0.00  0.00    +0.000 C 
ENDBRANCH  18  20
ENDBRANCH  16  18
ENDBRANCH   1  16
BRANCH   5  21
ATOM     21  C   UNL     1       5.401   6.243  16.901  0.00  0.00    +0.000 C 
BRANCH  21  22
ATOM     22  C   UNL     1       6.705   6.100  17.706  0.00  0.00    +0.000 C 
ATOM     23  C   UNL     1       7.485   4.835  17.336  0.00  0.00    +0.000 C 
ATOM     24  C   UNL     1       7.599   7.323  17.478  0.00  0.00    +0.000 C 
ENDBRANCH  21  22
ENDBRANCH   5  21
TORSDOF 8
ENDMDL
MODEL 3
REMARK VINA RESULT:      -7.5      0.862      1.110
REMARK  Name = 
REMARK  11 active torsions:
REMARK  status: ('A' for Active; 'I' for Inactive)
REMARK    1  A    between atoms: C_1  and  C_2
REMARK    2  A    between atoms: C_2  and  O_3
REMARK    3  A    between atoms: O_3  and  C_4
REMARK    4  A    between atoms: C_4  and  C_6
REMARK    5  A    between atoms: N_8  and  C_9
REMARK    6  A    between atoms: C_13  and  C_14
REMARK    7  A    between atoms: C_14  and  O_16
REMARK    8  A    between atoms: C_19  and  C_20
REMARK    9  A    between atoms: C_20  and  C_21
REMARK   10  A    between atoms: C_21  and  C_22
REMARK   11  A    between atoms: C_21  and  C_23
REMARK                            x       y       z     vdW  Elec       q    Type
REMARK                         _______ _______ _______ _____ _____    ______ ____
ROOT
ATOM      1  C   UNL     1       5.819   4.423  15.939  0.00  0.00    +0.000 A 
ATOM      2  C   UNL     1       4.466   4.247  16.174  0.00  0.00    +0.000 A 
ATOM      3  N   UNL     1       4.295   4.121  17.525  0.00  0.00    +0.000 N 
ATOM      4  N   UNL     1       5.453   4.335  18.191  0.00  0.00    +0.000 NA
ATOM      5  C   UNL     1       6.387   4.471  17.238  0.00  0.00    +0.000 A 
ENDROOT
BRANCH   3   6
ATOM      6  C   UNL     1       3.108   3.770  18.224  0.00  0.00    +0.000 A 
ATOM      7  C   UNL     1       1.860   3.804  17.589  0.00  0.00    +0.000 A 
ATOM      8  C   UNL     1       0.714   3.395  18.274  0.00  0.00    +0.000 A 
ATOM      9  C   UNL     1       0.804   2.978  19.602  0.00  0.00    +0.000 A 
ATOM     10  C   UNL     1       2.041   2.971  20.254  0.00  0.00    +0.000 A 
ATOM     11  C   UNL     1       3.197   3.343  19.562  0.00  0.00    +0.000 A 
BRANCH  10  12
ATOM     12  C   UNL     1       2.080   2.516  21.665  0.00  0.00    +0.000 C 
ATOM     13  O   UNL     1       1.123   2.607  22.416  0.00  0.00    +0.000 OA
BRANCH  12  14
ATOM     14  O   UNL     1       3.286   2.047  22.057  0.00  0.00    +0.000 OA
ATOM     15  H   UNL     1       4.023   2.245  21.457  0.00  0.00    +0.000 HD
ENDBRANCH  12  14
ENDBRANCH  10  12
ENDBRANCH   3   6
BRANCH   1  16
ATOM     16  C   UNL     1       6.403   4.451  14.614  0.00  0.00    +0.000 C 
ATOM     17  O   UNL     1       7.185   5.324  14.253  0.00  0.00    +0.000 OA
BRANCH  16  18
ATOM     18  O   UNL     1       5.887   3.495  13.796  0.00  0.00    +0.000 OA
BRANCH  18  20
ATOM     19  C   UNL     1       5.488   2.615  11.612  0.00  0.00    +0.000 C 
ATOM     20  C   UNL     1       6.358   3.544  12.443  0.00  0.00    +0.000 C 
ENDBRANCH  18  20
ENDBRANCH  16  18
ENDBRANCH   1  16
BRANCH   5  21
ATOM     21  C   UNL     1       7.822   4.609  17.658  0.00  0.00    +0.000 C 
BRANCH  21  22
ATOM     22  C   UNL     1       8.137   5.938  18.369  0.00  0.00    +0.000 C 
ATOM     23  C   UNL     1       7.386   7.123  17.754  0.00  0.00    +0.000 C 
ATOM     24  C   UNL     1       7.780   5.836  19.855  0.00  0.00    +0.000 C 
ENDBRANCH  21  22
ENDBRANCH   5  21
TORSDOF 8
ENDMDL
MODEL 4
REMARK VINA RESULT:      -7.3      4.417      6.206
REMARK  Name = 
REMARK  11 active torsions:
REMARK  status: ('A' for Active; 'I' for Inactive)
REMARK    1  A    between atoms: C_1  and  C_2
REMARK    2  A    between atoms: C_2  and  O_3
REMARK    3  A    between atoms: O_3  and  C_4
REMARK    4  A    between atoms: C_4  and  C_6
REMARK    5  A    between atoms: N_8  and  C_9
REMARK    6  A    between atoms: C_13  and  C_14
REMARK    7  A    between atoms: C_14  and  O_16
REMARK    8  A    between atoms: C_19  and  C_20
REMARK    9  A    between atoms: C_20  and  C_21
REMARK   10  A    between atoms: C_21  and  C_22
REMARK   11  A    between atoms: C_21  and  C_23
REMARK                            x       y       z     vdW  Elec       q    Type
REMARK                         _______ _______ _______ _____ _____    ______ ____
ROOT
ATOM      1  C   UNL     1       2.683   4.431  20.377  0.00  0.00    +0.000 A 
ATOM      2  C   UNL     1       1.725   5.416  20.549  0.00  0.00    +0.000 A 
ATOM      3  N   UNL     1       2.226   6.575  20.023  0.00  0.00    +0.000 N 
ATOM      4  N   UNL     1       3.409   6.364  19.402  0.00  0.00    +0.000 NA
ATOM      5  C   UNL     1       3.714   5.082  19.652  0.00  0.00    +0.000 A 
ENDROOT
BRANCH   3   6
ATOM      6  C   UNL     1       1.672   7.881  20.107  0.00  0.00    +0.000 A 
ATOM      7  C   UNL     1       1.649   8.727  18.990  0.00  0.00    +0.000 A 
ATOM      8  C   UNL     1       1.044   9.983  19.076  0.00  0.00    +0.000 A 
ATOM      9  C   UNL     1       0.485  10.410  20.281  0.00  0.00    +0.000 A 
ATOM     10  C   UNL     1       0.532   9.584  21.408  0.00  0.00    +0.000 A 
ATOM     11  C   UNL     1       1.102   8.311  21.319  0.00  0.00    +0.000 A 
BRANCH  10  12
ATOM     12  C   UNL     1      -0.080  10.087  22.662  0.00  0.00    +0.000 C 
ATOM     13  O   UNL     1       0.294   9.736  23.769  0.00  0.00    +0.000 OA
BRANCH  12  14
ATOM     14  O   UNL     1      -1.124  10.924  22.466  0.00  0.00    +0.000 OA
ATOM     15  H   UNL     1      -0.900  11.781  22.069  0.00  0.00    +0.000 HD
ENDBRANCH  12  14
ENDBRANCH  10  12
ENDBRANCH   3   6
BRANCH   1  16
ATOM     16  C   UNL     1       2.569   3.099  20.935  0.00  0.00    +0.000 C 
ATOM     17  O   UNL     1       2.497   2.889  22.140  0.00  0.00    +0.000 OA
BRANCH  16  18
ATOM     18  O   UNL     1       2.687   2.127  19.991  0.00  0.00    +0.000 OA
BRANCH  18  20
ATOM     19  C   UNL     1       2.374   2.205  17.625  0.00  0.00    +0.000 C 
ATOM     20  C   UNL     1       1.677   2.151  18.974  0.00  0.00    +0.000 C 
ENDBRANCH  18  20
ENDBRANCH  16  18
ENDBRANCH   1  16
BRANCH   5  21
ATOM     21  C   UNL     1       5.043   4.559  19.188  0.00  0.00    +0.000 C 
BRANCH  21  22
ATOM     22  C   UNL     1       5.585   5.263  17.931  0.00  0.00    +0.000 C 
ATOM     23  C   UNL     1       7.112   5.190  17.832  0.00  0.00    +0.000 C 
ATOM     24  C   UNL     1       4.972   4.639  16.674  0.00  0.00    +0.000 C 
ENDBRANCH  21  22
ENDBRANCH   5  21
TORSDOF 8
ENDMDL
MODEL 5
REMARK VINA RESULT:      -7.3      2.511      6.920
REMARK  Name = 
REMARK  11 active torsions:
REMARK  status: ('A' for Active; 'I' for Inactive)
REMARK    1  A    between atoms: C_1  and  C_2
REMARK    2  A    between atoms: C_2  and  O_3
REMARK    3  A    between atoms: O_3  and  C_4
REMARK    4  A    between atoms: C_4  and  C_6
REMARK    5  A    between atoms: N_8  and  C_9
REMARK    6  A    between atoms: C_13  and  C_14
REMARK    7  A    between atoms: C_14  and  O_16
REMARK    8  A    between atoms: C_19  and  C_20
REMARK    9  A    between atoms: C_20  and  C_21
REMARK   10  A    between atoms: C_21  and  C_22
REMARK   11  A    between atoms: C_21  and  C_23
REMARK                            x       y       z     vdW  Elec       q    Type
REMARK                         _______ _______ _______ _____ _____    ______ ____
ROOT
ATOM      1  C   UNL     1       4.890   4.348  17.887  0.00  0.00    +0.000 A 
ATOM      2  C   UNL     1       5.503   3.742  16.805  0.00  0.00    +0.000 A 
ATOM      3  N   UNL     1       5.709   4.704  15.855  0.00  0.00    +0.000 N 
ATOM      4  N   UNL     1       5.377   5.932  16.317  0.00  0.00    +0.000 NA
ATOM      5  C   UNL     1       4.838   5.719  17.526  0.00  0.00    +0.000 A 
ENDROOT
BRANCH   3   6
ATOM      6  C   UNL     1       6.163   4.528  14.520  0.00  0.00    +0.000 A 
ATOM      7  C   UNL     1       7.285   5.220  14.043  0.00  0.00    +0.000 A 
ATOM      8  C   UNL     1       7.754   4.985  12.749  0.00  0.00    +0.000 A 
ATOM      9  C   UNL     1       7.090   4.083  11.917  0.00  0.00    +0.000 A 
ATOM     10  C   UNL     1       5.952   3.411  12.374  0.00  0.00    +0.000 A 
ATOM     11  C   UNL     1       5.501   3.613  13.682  0.00  0.00    +0.000 A 
BRANCH  10  12
ATOM     12  C   UNL     1       5.289   2.461  11.449  0.00  0.00    +0.000 C 
ATOM     13  O   UNL     1       4.193   2.673  10.957  0.00  0.00    +0.000 OA
BRANCH  12  14
ATOM     14  O   UNL     1       5.981   1.317  11.247  0.00  0.00    +0.000 OA
ATOM     15  H   UNL     1       6.446   0.972  12.027  0.00  0.00    +0.000 HD
ENDBRANCH  12  14
ENDBRANCH  10  12
ENDBRANCH   3   6
BRANCH   1  16
ATOM     16  C   UNL     1       4.387   3.619  19.034  0.00  0.00    +0.000 C 
ATOM     17  O   UNL     1       5.112   3.232  19.943  0.00  0.00    +0.000 OA
BRANCH  16  18
ATOM     18  O   UNL     1       3.068   3.306  18.915  0.00  0.00    +0.000 OA
BRANCH  18  20
ATOM     19  C   UNL     1       1.009   3.319  20.124  0.00  0.00    +0.000 C 
ATOM     20  C   UNL     1       2.451   2.838  20.121  0.00  0.00    +0.000 C 
ENDBRANCH  18  20
ENDBRANCH  16  18
ENDBRANCH   1  16
BRANCH   5  21
ATOM     21  C   UNL     1       4.257   6.889  18.265  0.00  0.00    +0.000 C 
BRANCH  21  22
ATOM     22  C   UNL     1       2.720   6.868  18.357  0.00  0.00    +0.000 C 
ATOM     23  C   UNL     1       2.222   6.685  19.794  0.00  0.00    +0.000 C 
ATOM     24  C   UNL     1       2.141   8.167  17.789  0.00  0.00    +0.000 C 
ENDBRANCH  21  22
ENDBRANCH   5  21
TORSDOF 8
ENDMDL
MODEL 6
REMARK VINA RESULT:      -7.3      4.291      5.890
REMARK  Name = 
REMARK  11 active torsions:
REMARK  status: ('A' for Active; 'I' for Inactive)
REMARK    1  A    between atoms: C_1  and  C_2
REMARK    2  A    between atoms: C_2  and  O_3
REMARK    3  A    between atoms: O_3  and  C_4
REMARK    4  A    between atoms: C_4  and  C_6
REMARK    5  A    between atoms: N_8  and  C_9
REMARK    6  A    between atoms: C_13  and  C_14
REMARK    7  A    between atoms: C_14  and  O_16
REMARK    8  A    between atoms: C_19  and  C_20
REMARK    9  A    between atoms: C_20  and  C_21
REMARK   10  A    between atoms: C_21  and  C_22
REMARK   11  A    between atoms: C_21  and  C_23
REMARK                            x       y       z     vdW  Elec       q    Type
REMARK                         _______ _______ _______ _____ _____    ______ ____
ROOT
ATOM      1  C   UNL     1       3.608   5.153  18.966  0.00  0.00    +0.000 A 
ATOM      2  C   UNL     1       2.567   5.909  19.479  0.00  0.00    +0.000 A 
ATOM      3  N   UNL     1       2.620   7.140  18.885  0.00  0.00    +0.000 N 
ATOM      4  N   UNL     1       3.565   7.180  17.917  0.00  0.00    +0.000 NA
ATOM      5  C   UNL     1       4.197   6.000  17.993  0.00  0.00    +0.000 A 
ENDROOT
BRANCH   3   6
ATOM      6  C   UNL     1       1.857   8.295  19.205  0.00  0.00    +0.000 A 
ATOM      7  C   UNL     1       1.605   9.282  18.243  0.00  0.00    +0.000 A 
ATOM      8  C   UNL     1       0.800  10.378  18.558  0.00  0.00    +0.000 A 
ATOM      9  C   UNL     1       0.268  10.510  19.842  0.00  0.00    +0.000 A 
ATOM     10  C   UNL     1       0.541   9.546  20.817  0.00  0.00    +0.000 A 
ATOM     11  C   UNL     1       1.314   8.427  20.496  0.00  0.00    +0.000 A 
BRANCH  10  12
ATOM     12  C   UNL     1      -0.052   9.734  22.163  0.00  0.00    +0.000 C 
ATOM     13  O   UNL     1      -0.680   8.861  22.739  0.00  0.00    +0.000 OA
BRANCH  12  14
ATOM     14  O   UNL     1       0.117  10.978  22.668  0.00  0.00    +0.000 OA
ATOM     15  H   UNL     1      -0.687  11.521  22.710  0.00  0.00    +0.000 HD
ENDBRANCH  12  14
ENDBRANCH  10  12
ENDBRANCH   3   6
BRANCH   1  16
ATOM     16  C   UNL     1       3.961   3.838  19.461  0.00  0.00    +0.000 C 
ATOM     17  O   UNL     1       5.119   3.441  19.521  0.00  0.00    +0.000 OA
BRANCH  16  18
ATOM     18  O   UNL     1       2.869   3.067  19.717  0.00  0.00    +0.000 OA
BRANCH  18  20
ATOM     19  C   UNL     1       1.345   2.842  21.541  0.00  0.00    +0.000 C 
ATOM     20  C   UNL     1       2.768   2.598  21.068  0.00  0.00    +0.000 C 
ENDBRANCH  18  20
ENDBRANCH  16  18
ENDBRANCH   1  16
BRANCH   5  21
ATOM     21  C   UNL     1       5.392   5.771  17.112  0.00  0.00    +0.000 C 
BRANCH  21  22
ATOM     22  C   UNL     1       6.739   5.882  17.850  0.00  0.00    +0.000 C 
ATOM     23  C   UNL     1       7.644   4.672  17.597  0.00  0.00    +0.000 C 
ATOM     24  C   UNL     1       7.472   7.155  17.416  0.00  0.00    +0.000 C 
ENDBRANCH  21  22
ENDBRANCH   5  21
TORSDOF 8
ENDMDL
MODEL 7
REMARK VINA RESULT:      -7.3      4.106      5.321
REMARK  Name = 
REMARK  11 active torsions:
REMARK  status: ('A' for Active; 'I' for Inactive)
REMARK    1  A    between atoms: C_1  and  C_2
REMARK    2  A    between atoms: C_2  and  O_3
REMARK    3  A    between atoms: O_3  and  C_4
REMARK    4  A    between atoms: C_4  and  C_6
REMARK    5  A    between atoms: N_8  and  C_9
REMARK    6  A    between atoms: C_13  and  C_14
REMARK    7  A    between atoms: C_14  and  O_16
REMARK    8  A    between atoms: C_19  and  C_20
REMARK    9  A    between atoms: C_20  and  C_21
REMARK   10  A    between atoms: C_21  and  C_22
REMARK   11  A    between atoms: C_21  and  C_23
REMARK                            x       y       z     vdW  Elec       q    Type
REMARK                         _______ _______ _______ _____ _____    ______ ____
ROOT
ATOM      1  C   UNL     1       3.262   4.966  17.673  0.00  0.00    +0.000 A 
ATOM      2  C   UNL     1       2.224   5.713  18.202  0.00  0.00    +0.000 A 
ATOM      3  N   UNL     1       2.618   7.023  18.206  0.00  0.00    +0.000 N 
ATOM      4  N   UNL     1       3.812   7.180  17.588  0.00  0.00    +0.000 NA
ATOM      5  C   UNL     1       4.229   5.937  17.306  0.00  0.00    +0.000 A 
ENDROOT
BRANCH   3   6
ATOM      6  C   UNL     1       1.954   8.131  18.796  0.00  0.00    +0.000 A 
ATOM      7  C   UNL     1       1.477   9.189  18.009  0.00  0.00    +0.000 A 
ATOM      8  C   UNL     1       0.771  10.239  18.601  0.00  0.00    +0.000 A 
ATOM      9  C   UNL     1       0.562  10.252  19.980  0.00  0.00    +0.000 A 
ATOM     10  C   UNL     1       1.061   9.217  20.776  0.00  0.00    +0.000 A 
ATOM     11  C   UNL     1       1.735   8.144  20.186  0.00  0.00    +0.000 A 
BRANCH  10  12
ATOM     12  C   UNL     1       0.807   9.281  22.236  0.00  0.00    +0.000 C 
ATOM     13  O   UNL     1      -0.314   9.325  22.712  0.00  0.00    +0.000 OA
BRANCH  12  14
ATOM     14  O   UNL     1       1.932   9.345  22.986  0.00  0.00    +0.000 OA
ATOM     15  H   UNL     1       1.949  10.056  23.647  0.00  0.00    +0.000 HD
ENDBRANCH  12  14
ENDBRANCH  10  12
ENDBRANCH   3   6
BRANCH   1  16
ATOM     16  C   UNL     1       3.269   3.518  17.639  0.00  0.00    +0.000 C 
ATOM     17  O   UNL     1       4.249   2.867  17.295  0.00  0.00    +0.000 OA
BRANCH  16  18
ATOM     18  O   UNL     1       2.044   2.985  17.898  0.00  0.00    +0.000 OA
BRANCH  18  20
ATOM     19  C   UNL     1       1.119   2.773  20.089  0.00  0.00    +0.000 C 
ATOM     20  C   UNL     1       1.995   2.115  19.036  0.00  0.00    +0.000 C 
ENDBRANCH  18  20
ENDBRANCH  16  18
ENDBRANCH   1  16
BRANCH   5  21
ATOM     21  C   UNL     1       5.595   5.759  16.709  0.00  0.00    +0.000 C 
BRANCH  21  22
ATOM     22  C   UNL     1       6.736   5.808  17.742  0.00  0.00    +0.000 C 
ATOM     23  C   UNL     1       7.685   4.611  17.622  0.00  0.00    +0.000 C 
ATOM     24  C   UNL     1       7.541   7.101  17.575  0.00  0.00    +0.000 C 
ENDBRANCH  21  22
ENDBRANCH   5  21
TORSDOF 8
ENDMDL
MODEL 8
REMARK VINA RESULT:      -7.3      3.759      5.014
REMARK  Name = 
REMARK  11 active torsions:
REMARK  status: ('A' for Active; 'I' for Inactive)
REMARK    1  A    between atoms: C_1  and  C_2
REMARK    2  A    between atoms: C_2  and  O_3
REMARK    3  A    between atoms: O_3  and  C_4
REMARK    4  A    between atoms: C_4  and  C_6
REMARK    5  A    between atoms: N_8  and  C_9
REMARK    6  A    between atoms: C_13  and  C_14
REMARK    7  A    between atoms: C_14  and  O_16
REMARK    8  A    between atoms: C_19  and  C_20
REMARK    9  A    between atoms: C_20  and  C_21
REMARK   10  A    between atoms: C_21  and  C_22
REMARK   11  A    between atoms: C_21  and  C_23
REMARK                            x       y       z     vdW  Elec       q    Type
REMARK                         _______ _______ _______ _____ _____    ______ ____
ROOT
ATOM      1  C   UNL     1       4.830   5.561  17.244  0.00  0.00    +0.000 A 
ATOM      2  C   UNL     1       4.489   6.818  17.711  0.00  0.00    +0.000 A 
ATOM      3  N   UNL     1       3.205   6.751  18.177  0.00  0.00    +0.000 N 
ATOM      4  N   UNL     1       2.738   5.481  18.153  0.00  0.00    +0.000 NA
ATOM      5  C   UNL     1       3.697   4.765  17.548  0.00  0.00    +0.000 A 
ENDROOT
BRANCH   3   6
ATOM      6  C   UNL     1       2.376   7.822  18.606  0.00  0.00    +0.000 A 
ATOM      7  C   UNL     1       1.950   8.809  17.706  0.00  0.00    +0.000 A 
ATOM      8  C   UNL     1       1.083   9.818  18.132  0.00  0.00    +0.000 A 
ATOM      9  C   UNL     1       0.663   9.864  19.461  0.00  0.00    +0.000 A 
ATOM     10  C   UNL     1       1.109   8.902  20.373  0.00  0.00    +0.000 A 
ATOM     11  C   UNL     1       1.945   7.868  19.944  0.00  0.00    +0.000 A 
BRANCH  10  12
ATOM     12  C   UNL     1       0.628   8.998  21.773  0.00  0.00    +0.000 C 
ATOM     13  O   UNL     1      -0.506   8.699  22.105  0.00  0.00    +0.000 OA
BRANCH  12  14
ATOM     14  O   UNL     1       1.543   9.500  22.634  0.00  0.00    +0.000 OA
ATOM     15  H   UNL     1       1.600  10.469  22.659  0.00  0.00    +0.000 HD
ENDBRANCH  12  14
ENDBRANCH  10  12
ENDBRANCH   3   6
BRANCH   1  16
ATOM     16  C   UNL     1       6.067   5.276  16.544  0.00  0.00    +0.000 C 
ATOM     17  O   UNL     1       7.031   4.751  17.090  0.00  0.00    +0.000 OA
BRANCH  16  18
ATOM     18  O   UNL     1       6.076   5.772  15.278  0.00  0.00    +0.000 OA
BRANCH  18  20
ATOM     19  C   UNL     1       5.913   3.876  13.836  0.00  0.00    +0.000 C 
ATOM     20  C   UNL     1       6.818   4.991  14.332  0.00  0.00    +0.000 C 
ENDBRANCH  18  20
ENDBRANCH  16  18
ENDBRANCH   1  16
BRANCH   5  21
ATOM     21  C   UNL     1       3.432   3.315  17.261  0.00  0.00    +0.000 C 
BRANCH  21  22
ATOM     22  C   UNL     1       2.980   2.509  18.493  0.00  0.00    +0.000 C 
ATOM     23  C   UNL     1       1.473   2.232  18.489  0.00  0.00    +0.000 C 
ATOM     24  C   UNL     1       3.733   1.176  18.554  0.00  0.00    +0.000 C 
ENDBRANCH  21  22
ENDBRANCH   5  21
TORSDOF 8
ENDMDL
MODEL 9
REMARK VINA RESULT:      -7.3      2.537      6.991
REMARK  Name = 
REMARK  11 active torsions:
REMARK  status: ('A' for Active; 'I' for Inactive)
REMARK    1  A    between atoms: C_1  and  C_2
REMARK    2  A    between atoms: C_2  and  O_3
REMARK    3  A    between atoms: O_3  and  C_4
REMARK    4  A    between atoms: C_4  and  C_6
REMARK    5  A    between atoms: N_8  and  C_9
REMARK    6  A    between atoms: C_13  and  C_14
REMARK    7  A    between atoms: C_14  and  O_16
REMARK    8  A    between atoms: C_19  and  C_20
REMARK    9  A    between atoms: C_20  and  C_21
REMARK   10  A    between atoms: C_21  and  C_22
REMARK   11  A    between atoms: C_21  and  C_23
REMARK                            x       y       z     vdW  Elec       q    Type
REMARK                         _______ _______ _______ _____ _____    ______ ____
ROOT
ATOM      1  C   UNL     1       3.831   4.774  17.635  0.00  0.00    +0.000 A 
ATOM      2  C   UNL     1       4.460   4.035  16.648  0.00  0.00    +0.000 A 
ATOM      3  N   UNL     1       5.128   4.912  15.839  0.00  0.00    +0.000 N 
ATOM      4  N   UNL     1       5.069   6.174  16.325  0.00  0.00    +0.000 NA
ATOM      5  C   UNL     1       4.248   6.105  17.384  0.00  0.00    +0.000 A 
ENDROOT
BRANCH   3   6
ATOM      6  C   UNL     1       5.785   4.637  14.609  0.00  0.00    +0.000 A 
ATOM      7  C   UNL     1       7.020   5.225  14.304  0.00  0.00    +0.000 A 
ATOM      8  C   UNL     1       7.680   4.893  13.119  0.00  0.00    +0.000 A 
ATOM      9  C   UNL     1       7.099   3.997  12.222  0.00  0.00    +0.000 A 
ATOM     10  C   UNL     1       5.852   3.429  12.504  0.00  0.00    +0.000 A 
ATOM     11  C   UNL     1       5.205   3.728  13.706  0.00  0.00    +0.000 A 
BRANCH  10  12
ATOM     12  C   UNL     1       5.283   2.481  11.517  0.00  0.00    +0.000 C 
ATOM     13  O   UNL     1       4.223   2.676  10.946  0.00  0.00    +0.000 OA
BRANCH  12  14
ATOM     14  O   UNL     1       6.015   1.356  11.351  0.00  0.00    +0.000 OA
ATOM     15  H   UNL     1       6.587   1.119  12.100  0.00  0.00    +0.000 HD
ENDBRANCH  12  14
ENDBRANCH  10  12
ENDBRANCH   3   6
BRANCH   1  16
ATOM     16  C   UNL     1       2.910   4.202  18.597  0.00  0.00    +0.000 C 
ATOM     17  O   UNL     1       1.723   4.021  18.352  0.00  0.00    +0.000 OA
BRANCH  16  18
ATOM     18  O   UNL     1       3.479   4.021  19.820  0.00  0.00    +0.000 OA
BRANCH  18  20
ATOM     19  C   UNL     1       2.272   2.927  21.565  0.00  0.00    +0.000 C 
ATOM     20  C   UNL     1       3.241   2.737  20.410  0.00  0.00    +0.000 C 
ENDBRANCH  18  20
ENDBRANCH  16  18
ENDBRANCH   1  16
BRANCH   5  21
ATOM     21  C   UNL     1       3.881   7.380  18.087  0.00  0.00    +0.000 C 
BRANCH  21  22
ATOM     22  C   UNL     1       2.374   7.527  18.363  0.00  0.00    +0.000 C 
ATOM     23  C   UNL     1       2.048   7.499  19.860  0.00  0.00    +0.000 C 
ATOM     24  C   UNL     1       1.855   8.838  17.763  0.00  0.00    +0.000 C 
ENDBRANCH  21  22
ENDBRANCH   5  21
TORSDOF 8
ENDMDL
