MODEL 1
REMARK VINA RESULT:      -8.4      0.000      0.000
REMARK  Name = 
REMARK  5 active torsions:
REMARK  status: ('A' for Active; 'I' for Inactive)
REMARK    1  A    between atoms: C_1  and  O_2
REMARK    2  A    between atoms: O_2  and  C_3
REMARK    3  A    between atoms: C_6  and  C_7
REMARK    4  A    between atoms: N_9  and  C_10
REMARK    5  A    between atoms: C_10  and  C_11
REMARK                            x       y       z     vdW  Elec       q    Type
REMARK                         _______ _______ _______ _____ _____    ______ ____
ROOT
ATOM      1  C   UNL     1       3.260   6.651  18.805  0.00  0.00    +0.000 C 
ATOM      2  O   UNL     1       3.407   5.928  19.786  0.00  0.00    +0.000 OA
ATOM      3  N   UNL     1       3.889   6.430  17.595  0.00  0.00    +0.000 N 
ATOM      4  H   UNL     1       3.883   7.167  16.911  0.00  0.00    +0.000 HD
ENDROOT
BRANCH   1   8
ATOM      5  C   UNL     1       0.457   9.910  19.264  0.00  0.00    +0.000 A 
ATOM      6  C   UNL     1       0.837   9.115  20.342  0.00  0.00    +0.000 A 
ATOM      7  C   UNL     1       1.765   8.084  20.170  0.00  0.00    +0.000 A 
ATOM      8  C   UNL     1       2.315   7.811  18.907  0.00  0.00    +0.000 A 
ATOM      9  C   UNL     1       1.925   8.609  17.825  0.00  0.00    +0.000 A 
ATOM     10  C   UNL     1       1.002   9.654  18.004  0.00  0.00    +0.000 A 
BRANCH   5  12
ATOM     11  C   UNL     1      -1.177  11.409  18.431  0.00  0.00    +0.000 C 
ATOM     12  O   UNL     1      -0.484  10.859  19.544  0.00  0.00    +0.000 OA
ENDBRANCH   5  12
ENDBRANCH   1   8
BRANCH   3  13
ATOM     13  C   UNL     1       4.857   5.333  17.333  0.00  0.00    +0.000 C 
ATOM     14  C   UNL     1       6.153   5.680  18.130  0.00  0.00    +0.000 C 
ATOM     15  C   UNL     1       7.296   4.731  17.794  0.00  0.00    +0.000 C 
ATOM     16  O   UNL     1       7.612   4.820  16.409  0.00  0.00    +0.000 OA
ATOM     17  C   UNL     1       6.513   4.437  15.589  0.00  0.00    +0.000 C 
ATOM     18  C   UNL     1       5.306   5.331  15.839  0.00  0.00    +0.000 C 
BRANCH  13  19
ATOM     19  C   UNL     1       4.212   4.014  17.819  0.00  0.00    +0.000 A 
ATOM     20  C   UNL     1       3.082   3.469  17.180  0.00  0.00    +0.000 A 
ATOM     21  C   UNL     1       2.479   2.289  17.631  0.00  0.00    +0.000 A 
ATOM     22  C   UNL     1       2.982   1.625  18.744  0.00  0.00    +0.000 A 
ATOM     23  C   UNL     1       4.080   2.150  19.415  0.00  0.00    +0.000 A 
ATOM     24  C   UNL     1       4.679   3.333  18.962  0.00  0.00    +0.000 A 
ENDBRANCH  13  19
ENDBRANCH   3  13
TORSDOF 4
ENDMDL
MODEL 2
REMARK VINA RESULT:      -8.3      0.064      1.003
REMARK  Name = 
REMARK  5 active torsions:
REMARK  status: ('A' for Active; 'I' for Inactive)
REMARK    1  A    between atoms: C_1  and  O_2
REMARK    2  A    between atoms: O_2  and  C_3
REMARK    3  A    between atoms: C_6  and  C_7
REMARK    4  A    between atoms: N_9  and  C_10
REMARK    5  A    between atoms: C_10  and  C_11
REMARK                            x       y       z     vdW  Elec       q    Type
REMARK                         _______ _______ _______ _____ _____    ______ ____
ROOT
ATOM      1  C   UNL     1       3.200   6.673  18.831  0.00  0.00    +0.000 C 
ATOM      2  O   UNL     1       3.309   5.932  19.803  0.00  0.00    +0.000 OA
ATOM      3  N   UNL     1       3.862   6.467  17.637  0.00  0.00    +0.000 N 
ATOM      4  H   UNL     1       3.884   7.216  16.966  0.00  0.00    +0.000 HD
ENDROOT
BRANCH   1   8
ATOM      5  C   UNL     1       0.424   9.958  19.270  0.00  0.00    +0.000 A 
ATOM      6  C   UNL     1       0.798   9.167  20.352  0.00  0.00    +0.000 A 
ATOM      7  C   UNL     1       1.717   8.128  20.187  0.00  0.00    +0.000 A 
ATOM      8  C   UNL     1       2.264   7.842  18.926  0.00  0.00    +0.000 A 
ATOM      9  C   UNL     1       1.880   8.635  17.839  0.00  0.00    +0.000 A 
ATOM     10  C   UNL     1       0.967   9.689  18.011  0.00  0.00    +0.000 A 
BRANCH   5  12
ATOM     11  C   UNL     1      -1.273  11.389  18.440  0.00  0.00    +0.000 C 
ATOM     12  O   UNL     1      -0.509  10.917  19.543  0.00  0.00    +0.000 OA
ENDBRANCH   5  12
ENDBRANCH   1   8
BRANCH   3  13
ATOM     13  C   UNL     1       4.826   5.364  17.384  0.00  0.00    +0.000 C 
ATOM     14  C   UNL     1       6.120   5.707  18.187  0.00  0.00    +0.000 C 
ATOM     15  C   UNL     1       7.260   4.751  17.860  0.00  0.00    +0.000 C 
ATOM     16  O   UNL     1       7.583   4.832  16.476  0.00  0.00    +0.000 OA
ATOM     17  C   UNL     1       6.486   4.452  15.652  0.00  0.00    +0.000 C 
ATOM     18  C   UNL     1       5.282   5.354  15.893  0.00  0.00    +0.000 C 
BRANCH  13  19
ATOM     19  C   UNL     1       4.171   4.050  17.872  0.00  0.00    +0.000 A 
ATOM     20  C   UNL     1       4.676   3.344  18.980  0.00  0.00    +0.000 A 
ATOM     21  C   UNL     1       4.103   2.142  19.411  0.00  0.00    +0.000 A 
ATOM     22  C   UNL     1       3.013   1.603  18.736  0.00  0.00    +0.000 A 
ATOM     23  C   UNL     1       2.505   2.261  17.622  0.00  0.00    +0.000 A 
ATOM     24  C   UNL     1       3.085   3.462  17.192  0.00  0.00    +0.000 A 
ENDBRANCH  13  19
ENDBRANCH   3  13
TORSDOF 4
ENDMDL
MODEL 3
REMARK VINA RESULT:      -8.3      0.216      1.024
REMARK  Name = 
REMARK  5 active torsions:
REMARK  status: ('A' for Active; 'I' for Inactive)
REMARK    1  A    between atoms: C_1  and  O_2
REMARK    2  A    between atoms: O_2  and  C_3
REMARK    3  A    between atoms: C_6  and  C_7
REMARK    4  A    between atoms: N_9  and  C_10
REMARK    5  A    between atoms: C_10  and  C_11
REMARK                            x       y       z     vdW  Elec       q    Type
REMARK                         _______ _______ _______ _____ _____    ______ ____
ROOT
ATOM      1  C   UNL     1       3.244   6.615  18.882  0.00  0.00    +0.000 C 
ATOM      2  O   UNL     1       3.405   5.877  19.850  0.00  0.00    +0.000 OA
ATOM      3  N   UNL     1       3.867   6.422  17.665  0.00  0.00    +0.000 N 
ATOM      4  H   UNL     1       3.849   7.170  16.994  0.00  0.00    +0.000 HD
ENDROOT
BRANCH   1   8
ATOM      5  C   UNL     1       0.576  10.010  19.091  0.00  0.00    +0.000 A 
ATOM      6  C   UNL     1       1.192   9.637  17.901  0.00  0.00    +0.000 A 
ATOM      7  C   UNL     1       2.030   8.520  17.856  0.00  0.00    +0.000 A 
ATOM      8  C   UNL     1       2.288   7.764  19.011  0.00  0.00    +0.000 A 
ATOM      9  C   UNL     1       1.672   8.147  20.208  0.00  0.00    +0.000 A 
ATOM     10  C   UNL     1       0.818   9.263  20.247  0.00  0.00    +0.000 A 
BRANCH   5  12
ATOM     11  C   UNL     1      -1.557  10.957  18.678  0.00  0.00    +0.000 C 
ATOM     12  O   UNL     1      -0.189  11.139  19.023  0.00  0.00    +0.000 OA
ENDBRANCH   5  12
ENDBRANCH   1   8
BRANCH   3  13
ATOM     13  C   UNL     1       4.845   5.339  17.378  0.00  0.00    +0.000 C 
ATOM     14  C   UNL     1       6.140   5.681  18.179  0.00  0.00    +0.000 C 
ATOM     15  C   UNL     1       7.291   4.750  17.820  0.00  0.00    +0.000 C 
ATOM     16  O   UNL     1       7.602   4.870  16.437  0.00  0.00    +0.000 OA
ATOM     17  C   UNL     1       6.504   4.495  15.612  0.00  0.00    +0.000 C 
ATOM     18  C   UNL     1       5.290   5.372  15.884  0.00  0.00    +0.000 C 
BRANCH  13  19
ATOM     19  C   UNL     1       4.212   4.005  17.838  0.00  0.00    +0.000 A 
ATOM     20  C   UNL     1       3.088   3.461  17.188  0.00  0.00    +0.000 A 
ATOM     21  C   UNL     1       2.497   2.266  17.616  0.00  0.00    +0.000 A 
ATOM     22  C   UNL     1       3.007   1.586  18.716  0.00  0.00    +0.000 A 
ATOM     23  C   UNL     1       4.100   2.108  19.397  0.00  0.00    +0.000 A 
ATOM     24  C   UNL     1       4.686   3.306  18.968  0.00  0.00    +0.000 A 
ENDBRANCH  13  19
ENDBRANCH   3  13
TORSDOF 4
ENDMDL
MODEL 4
REMARK VINA RESULT:      -8.3      0.193      1.428
REMARK  Name = 
REMARK  5 active torsions:
REMARK  status: ('A' for Active; 'I' for Inactive)
REMARK    1  A    between atoms: C_1  and  O_2
REMARK    2  A    between atoms: O_2  and  C_3
REMARK    3  A    between atoms: C_6  and  C_7
REMARK    4  A    between atoms: N_9  and  C_10
REMARK    5  A    between atoms: C_10  and  C_11
REMARK                            x       y       z     vdW  Elec       q    Type
REMARK                         _______ _______ _______ _____ _____    ______ ____
ROOT
ATOM      1  C   UNL     1       3.183   6.628  18.924  0.00  0.00    +0.000 C 
ATOM      2  O   UNL     1       3.303   5.852  19.867  0.00  0.00    +0.000 OA
ATOM      3  N   UNL     1       3.844   6.474  17.721  0.00  0.00    +0.000 N 
ATOM      4  H   UNL     1       3.856   7.248  17.079  0.00  0.00    +0.000 HD
ENDROOT
BRANCH   1   8
ATOM      5  C   UNL     1       0.533  10.035  19.167  0.00  0.00    +0.000 A 
ATOM      6  C   UNL     1       1.117   9.648  17.964  0.00  0.00    +0.000 A 
ATOM      7  C   UNL     1       1.949   8.526  17.909  0.00  0.00    +0.000 A 
ATOM      8  C   UNL     1       2.235   7.782  19.065  0.00  0.00    +0.000 A 
ATOM      9  C   UNL     1       1.652   8.180  20.274  0.00  0.00    +0.000 A 
ATOM     10  C   UNL     1       0.803   9.300  20.323  0.00  0.00    +0.000 A 
BRANCH   5  12
ATOM     11  C   UNL     1      -1.303  11.157  18.175  0.00  0.00    +0.000 C 
ATOM     12  O   UNL     1      -0.229  11.167  19.106  0.00  0.00    +0.000 OA
ENDBRANCH   5  12
ENDBRANCH   1   8
BRANCH   3  13
ATOM     13  C   UNL     1       4.820   5.392  17.425  0.00  0.00    +0.000 C 
ATOM     14  C   UNL     1       6.118   5.729  18.223  0.00  0.00    +0.000 C 
ATOM     15  C   UNL     1       7.266   4.798  17.856  0.00  0.00    +0.000 C 
ATOM     16  O   UNL     1       7.573   4.925  16.472  0.00  0.00    +0.000 OA
ATOM     17  C   UNL     1       6.471   4.556  15.648  0.00  0.00    +0.000 C 
ATOM     18  C   UNL     1       5.259   5.433  15.929  0.00  0.00    +0.000 C 
BRANCH  13  19
ATOM     19  C   UNL     1       4.187   4.056  17.880  0.00  0.00    +0.000 A 
ATOM     20  C   UNL     1       4.704   3.332  18.971  0.00  0.00    +0.000 A 
ATOM     21  C   UNL     1       4.151   2.110  19.372  0.00  0.00    +0.000 A 
ATOM     22  C   UNL     1       3.071   1.569  18.682  0.00  0.00    +0.000 A 
ATOM     23  C   UNL     1       2.553   2.244  17.584  0.00  0.00    +0.000 A 
ATOM     24  C   UNL     1       3.112   3.465  17.184  0.00  0.00    +0.000 A 
ENDBRANCH  13  19
ENDBRANCH   3  13
TORSDOF 4
ENDMDL
MODEL 5
REMARK VINA RESULT:      -8.3      1.630      3.388
REMARK  Name = 
REMARK  5 active torsions:
REMARK  status: ('A' for Active; 'I' for Inactive)
REMARK    1  A    between atoms: C_1  and  O_2
REMARK    2  A    between atoms: O_2  and  C_3
REMARK    3  A    between atoms: C_6  and  C_7
REMARK    4  A    between atoms: N_9  and  C_10
REMARK    5  A    between atoms: C_10  and  C_11
REMARK                            x       y       z     vdW  Elec       q    Type
REMARK                         _______ _______ _______ _____ _____    ______ ____
ROOT
ATOM      1  C   UNL     1       2.411   6.353  19.358  0.00  0.00    +0.000 C 
ATOM      2  O   UNL     1       2.046   5.678  20.316  0.00  0.00    +0.000 OA
ATOM      3  N   UNL     1       3.166   5.852  18.316  0.00  0.00    +0.000 N 
ATOM      4  H   UNL     1       3.596   6.502  17.680  0.00  0.00    +0.000 HD
ENDROOT
BRANCH   1   8
ATOM      5  C   UNL     1       1.043  10.454  19.315  0.00  0.00    +0.000 A 
ATOM      6  C   UNL     1       0.929   9.658  20.450  0.00  0.00    +0.000 A 
ATOM      7  C   UNL     1       1.403   8.343  20.445  0.00  0.00    +0.000 A 
ATOM      8  C   UNL     1       1.981   7.789  19.291  0.00  0.00    +0.000 A 
ATOM      9  C   UNL     1       2.086   8.591  18.149  0.00  0.00    +0.000 A 
ATOM     10  C   UNL     1       1.622   9.917  18.162  0.00  0.00    +0.000 A 
BRANCH   5  12
ATOM     11  C   UNL     1       0.749  12.389  20.651  0.00  0.00    +0.000 C 
ATOM     12  O   UNL     1       0.510  11.707  19.426  0.00  0.00    +0.000 OA
ENDBRANCH   5  12
ENDBRANCH   1   8
BRANCH   3  13
ATOM     13  C   UNL     1       3.677   4.458  18.236  0.00  0.00    +0.000 C 
ATOM     14  C   UNL     1       2.512   3.585  17.677  0.00  0.00    +0.000 C 
ATOM     15  C   UNL     1       2.844   2.099  17.726  0.00  0.00    +0.000 C 
ATOM     16  O   UNL     1       3.071   1.694  19.071  0.00  0.00    +0.000 OA
ATOM     17  C   UNL     1       4.179   2.377  19.650  0.00  0.00    +0.000 C 
ATOM     18  C   UNL     1       3.950   3.882  19.659  0.00  0.00    +0.000 C 
BRANCH  13  19
ATOM     19  C   UNL     1       4.903   4.465  17.292  0.00  0.00    +0.000 A 
ATOM     20  C   UNL     1       6.212   4.617  17.787  0.00  0.00    +0.000 A 
ATOM     21  C   UNL     1       7.322   4.649  16.935  0.00  0.00    +0.000 A 
ATOM     22  C   UNL     1       7.153   4.542  15.559  0.00  0.00    +0.000 A 
ATOM     23  C   UNL     1       5.873   4.417  15.034  0.00  0.00    +0.000 A 
ATOM     24  C   UNL     1       4.764   4.390  15.890  0.00  0.00    +0.000 A 
ENDBRANCH  13  19
ENDBRANCH   3  13
TORSDOF 4
ENDMDL
MODEL 6
REMARK VINA RESULT:      -8.2      1.672      3.405
REMARK  Name = 
REMARK  5 active torsions:
REMARK  status: ('A' for Active; 'I' for Inactive)
REMARK    1  A    between atoms: C_1  and  O_2
REMARK    2  A    between atoms: O_2  and  C_3
REMARK    3  A    between atoms: C_6  and  C_7
REMARK    4  A    between atoms: N_9  and  C_10
REMARK    5  A    between atoms: C_10  and  C_11
REMARK                            x       y       z     vdW  Elec       q    Type
REMARK                         _______ _______ _______ _____ _____    ______ ____
ROOT
ATOM      1  C   UNL     1       2.388   6.395  19.343  0.00  0.00    +0.000 C 
ATOM      2  O   UNL     1       2.028   5.719  20.302  0.00  0.00    +0.000 OA
ATOM      3  N   UNL     1       3.150   5.898  18.305  0.00  0.00    +0.000 N 
ATOM      4  H   UNL     1       3.575   6.551  17.667  0.00  0.00    +0.000 HD
ENDROOT
BRANCH   1   8
ATOM      5  C   UNL     1       1.246  10.550  18.992  0.00  0.00    +0.000 A 
ATOM      6  C   UNL     1       1.882   9.877  17.954  0.00  0.00    +0.000 A 
ATOM      7  C   UNL     1       2.217   8.526  18.084  0.00  0.00    +0.000 A 
ATOM      8  C   UNL     1       1.943   7.826  19.270  0.00  0.00    +0.000 A 
ATOM      9  C   UNL     1       1.309   8.509  20.315  0.00  0.00    +0.000 A 
ATOM     10  C   UNL     1       0.960   9.863  20.175  0.00  0.00    +0.000 A 
BRANCH   5  12
ATOM     11  C   UNL     1       2.117  12.662  18.362  0.00  0.00    +0.000 C 
ATOM     12  O   UNL     1       1.003  11.874  18.766  0.00  0.00    +0.000 OA
ENDBRANCH   5  12
ENDBRANCH   1   8
BRANCH   3  13
ATOM     13  C   UNL     1       3.677   4.510  18.230  0.00  0.00    +0.000 C 
ATOM     14  C   UNL     1       2.522   3.622  17.671  0.00  0.00    +0.000 C 
ATOM     15  C   UNL     1       2.870   2.140  17.726  0.00  0.00    +0.000 C 
ATOM     16  O   UNL     1       3.098   1.743  19.073  0.00  0.00    +0.000 OA
ATOM     17  C   UNL     1       4.197   2.439  19.653  0.00  0.00    +0.000 C 
ATOM     18  C   UNL     1       3.952   3.941  19.656  0.00  0.00    +0.000 C 
BRANCH  13  19
ATOM     19  C   UNL     1       4.905   4.527  17.289  0.00  0.00    +0.000 A 
ATOM     20  C   UNL     1       4.767   4.370  15.897  0.00  0.00    +0.000 A 
ATOM     21  C   UNL     1       5.876   4.360  15.044  0.00  0.00    +0.000 A 
ATOM     22  C   UNL     1       7.160   4.493  15.561  0.00  0.00    +0.000 A 
ATOM     23  C   UNL     1       7.335   4.623  16.933  0.00  0.00    +0.000 A 
ATOM     24  C   UNL     1       6.222   4.629  17.784  0.00  0.00    +0.000 A 
ENDBRANCH  13  19
ENDBRANCH   3  13
TORSDOF 4
ENDMDL
MODEL 7
REMARK VINA RESULT:      -8.2      1.602      3.494
REMARK  Name = 
REMARK  5 active torsions:
REMARK  status: ('A' for Active; 'I' for Inactive)
REMARK    1  A    between atoms: C_1  and  O_2
REMARK    2  A    between atoms: O_2  and  C_3
REMARK    3  A    between atoms: C_6  and  C_7
REMARK    4  A    between atoms: N_9  and  C_10
REMARK    5  A    between atoms: C_10  and  C_11
REMARK                            x       y       z     vdW  Elec       q    Type
REMARK                         _______ _______ _______ _____ _____    ______ ____
ROOT
ATOM      1  C   UNL     1       2.377   6.373  19.384  0.00  0.00    +0.000 C 
ATOM      2  O   UNL     1       2.048   5.707  20.361  0.00  0.00    +0.000 OA
ATOM      3  N   UNL     1       3.108   5.865  18.328  0.00  0.00    +0.000 N 
ATOM      4  H   UNL     1       3.512   6.511  17.671  0.00  0.00    +0.000 HD
ENDROOT
BRANCH   1   8
ATOM      5  C   UNL     1       1.216  10.521  19.020  0.00  0.00    +0.000 A 
ATOM      6  C   UNL     1       1.800   9.830  17.963  0.00  0.00    +0.000 A 
ATOM      7  C   UNL     1       2.142   8.482  18.099  0.00  0.00    +0.000 A 
ATOM      8  C   UNL     1       1.928   7.802  19.309  0.00  0.00    +0.000 A 
ATOM      9  C   UNL     1       1.348   8.503  20.373  0.00  0.00    +0.000 A 
ATOM     10  C   UNL     1       0.992   9.855  20.228  0.00  0.00    +0.000 A 
BRANCH   5  12
ATOM     11  C   UNL     1      -0.407  12.211  18.671  0.00  0.00    +0.000 C 
ATOM     12  O   UNL     1       0.962  11.841  18.783  0.00  0.00    +0.000 OA
ENDBRANCH   5  12
ENDBRANCH   1   8
BRANCH   3  13
ATOM     13  C   UNL     1       3.634   4.477  18.253  0.00  0.00    +0.000 C 
ATOM     14  C   UNL     1       2.482   3.591  17.684  0.00  0.00    +0.000 C 
ATOM     15  C   UNL     1       2.828   2.109  17.736  0.00  0.00    +0.000 C 
ATOM     16  O   UNL     1       3.048   1.707  19.084  0.00  0.00    +0.000 OA
ATOM     17  C   UNL     1       4.144   2.401  19.672  0.00  0.00    +0.000 C 
ATOM     18  C   UNL     1       3.900   3.903  19.678  0.00  0.00    +0.000 C 
BRANCH  13  19
ATOM     19  C   UNL     1       4.867   4.495  17.319  0.00  0.00    +0.000 A 
ATOM     20  C   UNL     1       6.173   4.634  17.828  0.00  0.00    +0.000 A 
ATOM     21  C   UNL     1       7.290   4.676  16.986  0.00  0.00    +0.000 A 
ATOM     22  C   UNL     1       7.133   4.594  15.607  0.00  0.00    +0.000 A 
ATOM     23  C   UNL     1       5.856   4.482  15.070  0.00  0.00    +0.000 A 
ATOM     24  C   UNL     1       4.740   4.444  15.915  0.00  0.00    +0.000 A 
ENDBRANCH  13  19
ENDBRANCH   3  13
TORSDOF 4
ENDMDL
MODEL 8
REMARK VINA RESULT:      -8.2      1.557      3.170
REMARK  Name = 
REMARK  5 active torsions:
REMARK  status: ('A' for Active; 'I' for Inactive)
REMARK    1  A    between atoms: C_1  and  O_2
REMARK    2  A    between atoms: O_2  and  C_3
REMARK    3  A    between atoms: C_6  and  C_7
REMARK    4  A    between atoms: N_9  and  C_10
REMARK    5  A    between atoms: C_10  and  C_11
REMARK                            x       y       z     vdW  Elec       q    Type
REMARK                         _______ _______ _______ _____ _____    ______ ____
ROOT
ATOM      1  C   UNL     1       2.401   6.380  19.415  0.00  0.00    +0.000 C 
ATOM      2  O   UNL     1       2.075   5.707  20.387  0.00  0.00    +0.000 OA
ATOM      3  N   UNL     1       3.131   5.882  18.354  0.00  0.00    +0.000 N 
ATOM      4  H   UNL     1       3.533   6.534  17.701  0.00  0.00    +0.000 HD
ENDROOT
BRANCH   1   8
ATOM      5  C   UNL     1       0.967  10.458  19.380  0.00  0.00    +0.000 A 
ATOM      6  C   UNL     1       0.877   9.662  20.517  0.00  0.00    +0.000 A 
ATOM      7  C   UNL     1       1.373   8.355  20.509  0.00  0.00    +0.000 A 
ATOM      8  C   UNL     1       1.947   7.809  19.350  0.00  0.00    +0.000 A 
ATOM      9  C   UNL     1       2.028   8.611  18.206  0.00  0.00    +0.000 A 
ATOM     10  C   UNL     1       1.542   9.929  18.222  0.00  0.00    +0.000 A 
BRANCH   5  12
ATOM     11  C   UNL     1      -1.003  11.759  19.594  0.00  0.00    +0.000 C 
ATOM     12  O   UNL     1       0.415  11.702  19.495  0.00  0.00    +0.000 OA
ENDBRANCH   5  12
ENDBRANCH   1   8
BRANCH   3  13
ATOM     13  C   UNL     1       3.662   4.496  18.268  0.00  0.00    +0.000 C 
ATOM     14  C   UNL     1       2.509   3.609  17.702  0.00  0.00    +0.000 C 
ATOM     15  C   UNL     1       2.861   2.128  17.746  0.00  0.00    +0.000 C 
ATOM     16  O   UNL     1       3.091   1.720  19.089  0.00  0.00    +0.000 OA
ATOM     17  C   UNL     1       4.188   2.415  19.674  0.00  0.00    +0.000 C 
ATOM     18  C   UNL     1       3.939   3.917  19.689  0.00  0.00    +0.000 C 
BRANCH  13  19
ATOM     19  C   UNL     1       4.889   4.524  17.327  0.00  0.00    +0.000 A 
ATOM     20  C   UNL     1       4.751   4.375  15.934  0.00  0.00    +0.000 A 
ATOM     21  C   UNL     1       5.860   4.375  15.080  0.00  0.00    +0.000 A 
ATOM     22  C   UNL     1       7.144   4.510  15.598  0.00  0.00    +0.000 A 
ATOM     23  C   UNL     1       7.319   4.632  16.971  0.00  0.00    +0.000 A 
ATOM     24  C   UNL     1       6.206   4.628  17.822  0.00  0.00    +0.000 A 
ENDBRANCH  13  19
ENDBRANCH   3  13
TORSDOF 4
ENDMDL
MODEL 9
REMARK VINA RESULT:      -8.1      0.937      1.366
REMARK  Name = 
REMARK  5 active torsions:
REMARK  status: ('A' for Active; 'I' for Inactive)
REMARK    1  A    between atoms: C_1  and  O_2
REMARK    2  A    between atoms: O_2  and  C_3
REMARK    3  A    between atoms: C_6  and  C_7
REMARK    4  A    between atoms: N_9  and  C_10
REMARK    5  A    between atoms: C_10  and  C_11
REMARK                            x       y       z     vdW  Elec       q    Type
REMARK                         _______ _______ _______ _____ _____    ______ ____
ROOT
ATOM      1  C   UNL     1       2.933   6.392  18.133  0.00  0.00    +0.000 C 
ATOM      2  O   UNL     1       2.254   5.487  17.660  0.00  0.00    +0.000 OA
ATOM      3  N   UNL     1       4.314   6.395  18.121  0.00  0.00    +0.000 N 
ATOM      4  H   UNL     1       4.797   7.060  18.702  0.00  0.00    +0.000 HD
ENDROOT
BRANCH   1   8
ATOM      5  C   UNL     1       0.987   9.934  19.667  0.00  0.00    +0.000 A 
ATOM      6  C   UNL     1       1.364   9.828  18.332  0.00  0.00    +0.000 A 
ATOM      7  C   UNL     1       1.968   8.661  17.856  0.00  0.00    +0.000 A 
ATOM      8  C   UNL     1       2.231   7.582  18.716  0.00  0.00    +0.000 A 
ATOM      9  C   UNL     1       1.857   7.697  20.060  0.00  0.00    +0.000 A 
ATOM     10  C   UNL     1       1.236   8.866  20.532  0.00  0.00    +0.000 A 
BRANCH   5  12
ATOM     11  C   UNL     1       0.965  12.286  19.375  0.00  0.00    +0.000 C 
ATOM     12  O   UNL     1       0.441  11.134  20.025  0.00  0.00    +0.000 OA
ENDBRANCH   5  12
ENDBRANCH   1   8
BRANCH   3  13
ATOM     13  C   UNL     1       5.158   5.292  17.590  0.00  0.00    +0.000 C 
ATOM     14  C   UNL     1       6.613   5.563  18.084  0.00  0.00    +0.000 C 
ATOM     15  C   UNL     1       7.614   4.607  17.448  0.00  0.00    +0.000 C 
ATOM     16  O   UNL     1       7.608   4.765  16.034  0.00  0.00    +0.000 OA
ATOM     17  C   UNL     1       6.338   4.455  15.471  0.00  0.00    +0.000 C 
ATOM     18  C   UNL     1       5.253   5.362  16.035  0.00  0.00    +0.000 C 
BRANCH  13  19
ATOM     19  C   UNL     1       4.593   3.963  18.147  0.00  0.00    +0.000 A 
ATOM     20  C   UNL     1       3.924   3.043  17.317  0.00  0.00    +0.000 A 
ATOM     21  C   UNL     1       3.390   1.851  17.820  0.00  0.00    +0.000 A 
ATOM     22  C   UNL     1       3.499   1.550  19.174  0.00  0.00    +0.000 A 
ATOM     23  C   UNL     1       4.131   2.448  20.025  0.00  0.00    +0.000 A 
ATOM     24  C   UNL     1       4.661   3.641  19.518  0.00  0.00    +0.000 A 
ENDBRANCH  13  19
ENDBRANCH   3  13
TORSDOF 4
ENDMDL
