MODEL 1
REMARK VINA RESULT:      -6.1      0.000      0.000
REMARK  Name = 
REMARK  10 active torsions:
REMARK  status: ('A' for Active; 'I' for Inactive)
REMARK    1  A    between atoms: C_1  and  C_2
REMARK    2  A    between atoms: C_2  and  C_3
REMARK    3  A    between atoms: C_3  and  C_4
REMARK    4  A    between atoms: C_4  and  C_5
REMARK    5  A    between atoms: C_5  and  C_6
REMARK    6  A    between atoms: C_6  and  C_7
REMARK    7  A    between atoms: C_7  and  O_8
REMARK    8  A    between atoms: O_8  and  C_9
REMARK    9  A    between atoms: C_13  and  C_14
REMARK   10  A    between atoms: C_14  and  O_16
REMARK                            x       y       z     vdW  Elec       q    Type
REMARK                         _______ _______ _______ _____ _____    ______ ____
ROOT
ATOM      1  C   UNL     1       4.722   3.557  18.828  0.00  0.00    +0.000 A 
ATOM      2  C   UNL     1       4.237   3.247  17.554  0.00  0.00    +0.000 A 
ATOM      3  C   UNL     1       2.928   2.800  17.385  0.00  0.00    +0.000 A 
ATOM      4  C   UNL     1       2.096   2.667  18.494  0.00  0.00    +0.000 A 
ATOM      5  C   UNL     1       2.570   2.974  19.776  0.00  0.00    +0.000 A 
ATOM      6  C   UNL     1       3.893   3.406  19.944  0.00  0.00    +0.000 A 
ENDROOT
BRANCH   5   7
ATOM      7  C   UNL     1       1.639   2.779  20.918  0.00  0.00    +0.000 C 
ATOM      8  O   UNL     1       2.017   2.348  21.997  0.00  0.00    +0.000 OA
BRANCH   7   9
ATOM      9  O   UNL     1       0.346   3.070  20.668  0.00  0.00    +0.000 OA
ATOM     10  H   UNL     1      -0.124   2.464  20.069  0.00  0.00    +0.000 HD
ENDBRANCH   7   9
ENDBRANCH   5   7
BRANCH   1  11
ATOM     11  O   UNL     1       6.015   4.001  18.845  0.00  0.00    +0.000 OA
BRANCH  11  12
ATOM     12  C   UNL     1       6.222   5.374  19.172  0.00  0.00    +0.000 C 
BRANCH  12  13
ATOM     13  C   UNL     1       7.535   5.817  18.541  0.00  0.00    +0.000 C 
BRANCH  13  14
ATOM     14  C   UNL     1       7.288   6.537  17.219  0.00  0.00    +0.000 C 
BRANCH  14  15
ATOM     15  C   UNL     1       5.800   6.795  16.993  0.00  0.00    +0.000 C 
BRANCH  15  16
ATOM     16  C   UNL     1       5.333   6.161  15.684  0.00  0.00    +0.000 C 
BRANCH  16  18
ATOM     17  C   UNL     1       5.726   4.123  14.268  0.00  0.00    +0.000 C 
ATOM     18  C   UNL     1       6.374   5.189  15.136  0.00  0.00    +0.000 C 
ENDBRANCH  16  18
ENDBRANCH  15  16
ENDBRANCH  14  15
ENDBRANCH  13  14
ENDBRANCH  12  13
ENDBRANCH  11  12
ENDBRANCH   1  11
TORSDOF 9
ENDMDL
MODEL 2
REMARK VINA RESULT:      -6.1      2.197      5.503
REMARK  Name = 
REMARK  10 active torsions:
REMARK  status: ('A' for Active; 'I' for Inactive)
REMARK    1  A    between atoms: C_1  and  C_2
REMARK    2  A    between atoms: C_2  and  C_3
REMARK    3  A    between atoms: C_3  and  C_4
REMARK    4  A    between atoms: C_4  and  C_5
REMARK    5  A    between atoms: C_5  and  C_6
REMARK    6  A    between atoms: C_6  and  C_7
REMARK    7  A    between atoms: C_7  and  O_8
REMARK    8  A    between atoms: O_8  and  C_9
REMARK    9  A    between atoms: C_13  and  C_14
REMARK   10  A    between atoms: C_14  and  O_16
REMARK                            x       y       z     vdW  Elec       q    Type
REMARK                         _______ _______ _______ _____ _____    ______ ____
ROOT
ATOM      1  C   UNL     1       4.985   3.894  18.347  0.00  0.00    +0.000 A 
ATOM      2  C   UNL     1       4.554   3.722  17.029  0.00  0.00    +0.000 A 
ATOM      3  C   UNL     1       5.073   4.512  16.005  0.00  0.00    +0.000 A 
ATOM      4  C   UNL     1       6.033   5.478  16.299  0.00  0.00    +0.000 A 
ATOM      5  C   UNL     1       6.474   5.661  17.616  0.00  0.00    +0.000 A 
ATOM      6  C   UNL     1       5.935   4.876  18.645  0.00  0.00    +0.000 A 
ENDROOT
BRANCH   5   7
ATOM      7  C   UNL     1       7.475   6.730  17.863  0.00  0.00    +0.000 C 
ATOM      8  O   UNL     1       8.165   6.753  18.871  0.00  0.00    +0.000 OA
BRANCH   7   9
ATOM      9  O   UNL     1       7.540   7.693  16.921  0.00  0.00    +0.000 OA
ATOM     10  H   UNL     1       8.299   8.301  16.977  0.00  0.00    +0.000 HD
ENDBRANCH   7   9
ENDBRANCH   5   7
BRANCH   1  11
ATOM     11  O   UNL     1       4.408   3.039  19.245  0.00  0.00    +0.000 OA
BRANCH  11  12
ATOM     12  C   UNL     1       3.322   2.245  18.773  0.00  0.00    +0.000 C 
BRANCH  12  13
ATOM     13  C   UNL     1       2.126   2.490  19.684  0.00  0.00    +0.000 C 
BRANCH  13  14
ATOM     14  C   UNL     1       1.417   3.789  19.312  0.00  0.00    +0.000 C 
BRANCH  14  15
ATOM     15  C   UNL     1       1.590   4.850  20.396  0.00  0.00    +0.000 C 
BRANCH  15  16
ATOM     16  C   UNL     1       2.443   6.011  19.887  0.00  0.00    +0.000 C 
BRANCH  16  18
ATOM     17  C   UNL     1       3.132   7.353  17.876  0.00  0.00    +0.000 C 
ATOM     18  C   UNL     1       2.265   6.212  18.384  0.00  0.00    +0.000 C 
ENDBRANCH  16  18
ENDBRANCH  15  16
ENDBRANCH  14  15
ENDBRANCH  13  14
ENDBRANCH  12  13
ENDBRANCH  11  12
ENDBRANCH   1  11
TORSDOF 9
ENDMDL
MODEL 3
REMARK VINA RESULT:      -6.1      2.077      5.452
REMARK  Name = 
REMARK  10 active torsions:
REMARK  status: ('A' for Active; 'I' for Inactive)
REMARK    1  A    between atoms: C_1  and  C_2
REMARK    2  A    between atoms: C_2  and  C_3
REMARK    3  A    between atoms: C_3  and  C_4
REMARK    4  A    between atoms: C_4  and  C_5
REMARK    5  A    between atoms: C_5  and  C_6
REMARK    6  A    between atoms: C_6  and  C_7
REMARK    7  A    between atoms: C_7  and  O_8
REMARK    8  A    between atoms: O_8  and  C_9
REMARK    9  A    between atoms: C_13  and  C_14
REMARK   10  A    between atoms: C_14  and  O_16
REMARK                            x       y       z     vdW  Elec       q    Type
REMARK                         _______ _______ _______ _____ _____    ______ ____
ROOT
ATOM      1  C   UNL     1       3.557   6.051  18.984  0.00  0.00    +0.000 A 
ATOM      2  C   UNL     1       3.469   6.738  17.770  0.00  0.00    +0.000 A 
ATOM      3  C   UNL     1       4.596   6.903  16.966  0.00  0.00    +0.000 A 
ATOM      4  C   UNL     1       5.817   6.374  17.376  0.00  0.00    +0.000 A 
ATOM      5  C   UNL     1       5.919   5.683  18.590  0.00  0.00    +0.000 A 
ATOM      6  C   UNL     1       4.787   5.536  19.403  0.00  0.00    +0.000 A 
ENDROOT
BRANCH   5   7
ATOM      7  C   UNL     1       7.259   5.173  18.980  0.00  0.00    +0.000 C 
ATOM      8  O   UNL     1       7.918   4.451  18.247  0.00  0.00    +0.000 OA
BRANCH   7   9
ATOM      9  O   UNL     1       7.678   5.526  20.213  0.00  0.00    +0.000 OA
ATOM     10  H   UNL     1       8.642   5.562  20.347  0.00  0.00    +0.000 HD
ENDBRANCH   7   9
ENDBRANCH   5   7
BRANCH   1  11
ATOM     11  O   UNL     1       2.373   5.948  19.659  0.00  0.00    +0.000 OA
BRANCH  11  12
ATOM     12  C   UNL     1       2.332   5.037  20.756  0.00  0.00    +0.000 C 
BRANCH  12  13
ATOM     13  C   UNL     1       1.121   4.133  20.574  0.00  0.00    +0.000 C 
BRANCH  13  14
ATOM     14  C   UNL     1       1.522   2.663  20.653  0.00  0.00    +0.000 C 
BRANCH  14  15
ATOM     15  C   UNL     1       2.970   2.455  20.216  0.00  0.00    +0.000 C 
BRANCH  15  16
ATOM     16  C   UNL     1       3.033   1.691  18.895  0.00  0.00    +0.000 C 
BRANCH  16  18
ATOM     17  C   UNL     1       2.554   3.289  17.015  0.00  0.00    +0.000 C 
ATOM     18  C   UNL     1       3.636   2.550  17.787  0.00  0.00    +0.000 C 
ENDBRANCH  16  18
ENDBRANCH  15  16
ENDBRANCH  14  15
ENDBRANCH  13  14
ENDBRANCH  12  13
ENDBRANCH  11  12
ENDBRANCH   1  11
TORSDOF 9
ENDMDL
MODEL 4
REMARK VINA RESULT:      -6.1      2.270      5.940
REMARK  Name = 
REMARK  10 active torsions:
REMARK  status: ('A' for Active; 'I' for Inactive)
REMARK    1  A    between atoms: C_1  and  C_2
REMARK    2  A    between atoms: C_2  and  C_3
REMARK    3  A    between atoms: C_3  and  C_4
REMARK    4  A    between atoms: C_4  and  C_5
REMARK    5  A    between atoms: C_5  and  C_6
REMARK    6  A    between atoms: C_6  and  C_7
REMARK    7  A    between atoms: C_7  and  O_8
REMARK    8  A    between atoms: O_8  and  C_9
REMARK    9  A    between atoms: C_13  and  C_14
REMARK   10  A    between atoms: C_14  and  O_16
REMARK                            x       y       z     vdW  Elec       q    Type
REMARK                         _______ _______ _______ _____ _____    ______ ____
ROOT
ATOM      1  C   UNL     1       4.243   5.324  18.075  0.00  0.00    +0.000 A 
ATOM      2  C   UNL     1       5.140   5.341  19.147  0.00  0.00    +0.000 A 
ATOM      3  C   UNL     1       6.501   5.129  18.935  0.00  0.00    +0.000 A 
ATOM      4  C   UNL     1       6.970   4.902  17.644  0.00  0.00    +0.000 A 
ATOM      5  C   UNL     1       6.082   4.882  16.560  0.00  0.00    +0.000 A 
ATOM      6  C   UNL     1       4.711   5.079  16.781  0.00  0.00    +0.000 A 
ENDROOT
BRANCH   5   7
ATOM      7  C   UNL     1       6.646   4.603  15.214  0.00  0.00    +0.000 C 
ATOM      8  O   UNL     1       6.247   3.679  14.522  0.00  0.00    +0.000 OA
BRANCH   7   9
ATOM      9  O   UNL     1       7.654   5.412  14.829  0.00  0.00    +0.000 OA
ATOM     10  H   UNL     1       8.247   5.729  15.534  0.00  0.00    +0.000 HD
ENDBRANCH   7   9
ENDBRANCH   5   7
BRANCH   1  11
ATOM     11  O   UNL     1       2.943   5.566  18.424  0.00  0.00    +0.000 OA
BRANCH  11  12
ATOM     12  C   UNL     1       2.719   6.183  19.691  0.00  0.00    +0.000 C 
BRANCH  12  13
ATOM     13  C   UNL     1       1.599   5.426  20.392  0.00  0.00    +0.000 C 
BRANCH  13  14
ATOM     14  C   UNL     1       2.160   4.293  21.246  0.00  0.00    +0.000 C 
BRANCH  14  15
ATOM     15  C   UNL     1       1.370   3.001  21.048  0.00  0.00    +0.000 C 
BRANCH  15  16
ATOM     16  C   UNL     1       1.641   2.406  19.668  0.00  0.00    +0.000 C 
BRANCH  16  18
ATOM     17  C   UNL     1       3.423   1.764  18.015  0.00  0.00    +0.000 C 
ATOM     18  C   UNL     1       3.132   2.159  19.454  0.00  0.00    +0.000 C 
ENDBRANCH  16  18
ENDBRANCH  15  16
ENDBRANCH  14  15
ENDBRANCH  13  14
ENDBRANCH  12  13
ENDBRANCH  11  12
ENDBRANCH   1  11
TORSDOF 9
ENDMDL
MODEL 5
REMARK VINA RESULT:      -6.1      2.225      6.137
REMARK  Name = 
REMARK  10 active torsions:
REMARK  status: ('A' for Active; 'I' for Inactive)
REMARK    1  A    between atoms: C_1  and  C_2
REMARK    2  A    between atoms: C_2  and  C_3
REMARK    3  A    between atoms: C_3  and  C_4
REMARK    4  A    between atoms: C_4  and  C_5
REMARK    5  A    between atoms: C_5  and  C_6
REMARK    6  A    between atoms: C_6  and  C_7
REMARK    7  A    between atoms: C_7  and  O_8
REMARK    8  A    between atoms: O_8  and  C_9
REMARK    9  A    between atoms: C_13  and  C_14
REMARK   10  A    between atoms: C_14  and  O_16
REMARK                            x       y       z     vdW  Elec       q    Type
REMARK                         _______ _______ _______ _____ _____    ______ ____
ROOT
ATOM      1  C   UNL     1       5.501   4.463  17.899  0.00  0.00    +0.000 A 
ATOM      2  C   UNL     1       4.713   5.617  17.951  0.00  0.00    +0.000 A 
ATOM      3  C   UNL     1       4.624   6.463  16.847  0.00  0.00    +0.000 A 
ATOM      4  C   UNL     1       5.322   6.152  15.682  0.00  0.00    +0.000 A 
ATOM      5  C   UNL     1       6.114   4.998  15.617  0.00  0.00    +0.000 A 
ATOM      6  C   UNL     1       6.215   4.160  16.736  0.00  0.00    +0.000 A 
ENDROOT
BRANCH   5   7
ATOM      7  C   UNL     1       6.856   4.744  14.355  0.00  0.00    +0.000 C 
ATOM      8  O   UNL     1       7.728   5.498  13.952  0.00  0.00    +0.000 OA
BRANCH   7   9
ATOM      9  O   UNL     1       6.472   3.649  13.667  0.00  0.00    +0.000 OA
ATOM     10  H   UNL     1       7.186   3.078  13.331  0.00  0.00    +0.000 HD
ENDBRANCH   7   9
ENDBRANCH   5   7
BRANCH   1  11
ATOM     11  O   UNL     1       5.481   3.717  19.045  0.00  0.00    +0.000 OA
BRANCH  11  12
ATOM     12  C   UNL     1       4.273   3.018  19.340  0.00  0.00    +0.000 C 
BRANCH  12  13
ATOM     13  C   UNL     1       3.922   2.154  18.136  0.00  0.00    +0.000 C 
BRANCH  13  14
ATOM     14  C   UNL     1       2.426   2.209  17.844  0.00  0.00    +0.000 C 
BRANCH  14  15
ATOM     15  C   UNL     1       1.803   3.502  18.365  0.00  0.00    +0.000 C 
BRANCH  15  16
ATOM     16  C   UNL     1       0.757   3.205  19.438  0.00  0.00    +0.000 C 
BRANCH  16  18
ATOM     17  C   UNL     1       1.816   5.289  20.362  0.00  0.00    +0.000 C 
ATOM     18  C   UNL     1       0.984   4.058  20.683  0.00  0.00    +0.000 C 
ENDBRANCH  16  18
ENDBRANCH  15  16
ENDBRANCH  14  15
ENDBRANCH  13  14
ENDBRANCH  12  13
ENDBRANCH  11  12
ENDBRANCH   1  11
TORSDOF 9
ENDMDL
MODEL 6
REMARK VINA RESULT:      -6.1      2.073      5.623
REMARK  Name = 
REMARK  10 active torsions:
REMARK  status: ('A' for Active; 'I' for Inactive)
REMARK    1  A    between atoms: C_1  and  C_2
REMARK    2  A    between atoms: C_2  and  C_3
REMARK    3  A    between atoms: C_3  and  C_4
REMARK    4  A    between atoms: C_4  and  C_5
REMARK    5  A    between atoms: C_5  and  C_6
REMARK    6  A    between atoms: C_6  and  C_7
REMARK    7  A    between atoms: C_7  and  O_8
REMARK    8  A    between atoms: O_8  and  C_9
REMARK    9  A    between atoms: C_13  and  C_14
REMARK   10  A    between atoms: C_14  and  O_16
REMARK                            x       y       z     vdW  Elec       q    Type
REMARK                         _______ _______ _______ _____ _____    ______ ____
ROOT
ATOM      1  C   UNL     1       4.630   3.866  18.154  0.00  0.00    +0.000 A 
ATOM      2  C   UNL     1       4.373   4.364  16.874  0.00  0.00    +0.000 A 
ATOM      3  C   UNL     1       5.161   5.381  16.339  0.00  0.00    +0.000 A 
ATOM      4  C   UNL     1       6.214   5.902  17.086  0.00  0.00    +0.000 A 
ATOM      5  C   UNL     1       6.482   5.412  18.371  0.00  0.00    +0.000 A 
ATOM      6  C   UNL     1       5.676   4.401  18.912  0.00  0.00    +0.000 A 
ENDROOT
BRANCH   5   7
ATOM      7  C   UNL     1       7.601   6.035  19.125  0.00  0.00    +0.000 C 
ATOM      8  O   UNL     1       8.231   6.985  18.685  0.00  0.00    +0.000 OA
BRANCH   7   9
ATOM      9  O   UNL     1       7.900   5.454  20.305  0.00  0.00    +0.000 OA
ATOM     10  H   UNL     1       8.752   5.703  20.705  0.00  0.00    +0.000 HD
ENDBRANCH   7   9
ENDBRANCH   5   7
BRANCH   1  11
ATOM     11  O   UNL     1       3.793   2.857  18.544  0.00  0.00    +0.000 OA
BRANCH  11  12
ATOM     12  C   UNL     1       4.090   2.213  19.781  0.00  0.00    +0.000 C 
BRANCH  12  13
ATOM     13  C   UNL     1       3.045   2.645  20.801  0.00  0.00    +0.000 C 
BRANCH  13  14
ATOM     14  C   UNL     1       1.656   2.689  20.171  0.00  0.00    +0.000 C 
BRANCH  14  15
ATOM     15  C   UNL     1       1.040   4.082  20.273  0.00  0.00    +0.000 C 
BRANCH  15  16
ATOM     16  C   UNL     1       2.043   5.076  20.856  0.00  0.00    +0.000 C 
BRANCH  16  18
ATOM     17  C   UNL     1       2.637   6.790  19.117  0.00  0.00    +0.000 C 
ATOM     18  C   UNL     1       1.786   6.489  20.341  0.00  0.00    +0.000 C 
ENDBRANCH  16  18
ENDBRANCH  15  16
ENDBRANCH  14  15
ENDBRANCH  13  14
ENDBRANCH  12  13
ENDBRANCH  11  12
ENDBRANCH   1  11
TORSDOF 9
ENDMDL
MODEL 7
REMARK VINA RESULT:      -6.0      2.195      6.320
REMARK  Name = 
REMARK  10 active torsions:
REMARK  status: ('A' for Active; 'I' for Inactive)
REMARK    1  A    between atoms: C_1  and  C_2
REMARK    2  A    between atoms: C_2  and  C_3
REMARK    3  A    between atoms: C_3  and  C_4
REMARK    4  A    between atoms: C_4  and  C_5
REMARK    5  A    between atoms: C_5  and  C_6
REMARK    6  A    between atoms: C_6  and  C_7
REMARK    7  A    between atoms: C_7  and  O_8
REMARK    8  A    between atoms: O_8  and  C_9
REMARK    9  A    between atoms: C_13  and  C_14
REMARK   10  A    between atoms: C_14  and  O_16
REMARK                            x       y       z     vdW  Elec       q    Type
REMARK                         _______ _______ _______ _____ _____    ______ ____
ROOT
ATOM      1  C   UNL     1       5.298   4.160  18.125  0.00  0.00    +0.000 A 
ATOM      2  C   UNL     1       5.924   5.135  18.907  0.00  0.00    +0.000 A 
ATOM      3  C   UNL     1       6.865   5.996  18.345  0.00  0.00    +0.000 A 
ATOM      4  C   UNL     1       7.179   5.885  16.992  0.00  0.00    +0.000 A 
ATOM      5  C   UNL     1       6.558   4.913  16.198  0.00  0.00    +0.000 A 
ATOM      6  C   UNL     1       5.626   4.037  16.772  0.00  0.00    +0.000 A 
ENDROOT
BRANCH   5   7
ATOM      7  C   UNL     1       6.963   4.830  14.771  0.00  0.00    +0.000 C 
ATOM      8  O   UNL     1       7.856   5.524  14.308  0.00  0.00    +0.000 OA
BRANCH   7   9
ATOM      9  O   UNL     1       6.250   3.970  14.014  0.00  0.00    +0.000 OA
ATOM     10  H   UNL     1       6.291   4.107  13.051  0.00  0.00    +0.000 HD
ENDBRANCH   7   9
ENDBRANCH   5   7
BRANCH   1  11
ATOM     11  O   UNL     1       4.384   3.399  18.800  0.00  0.00    +0.000 OA
BRANCH  11  12
ATOM     12  C   UNL     1       3.652   2.441  18.038  0.00  0.00    +0.000 C 
BRANCH  12  13
ATOM     13  C   UNL     1       2.232   2.961  17.865  0.00  0.00    +0.000 C 
BRANCH  13  14
ATOM     14  C   UNL     1       1.259   2.194  18.756  0.00  0.00    +0.000 C 
BRANCH  14  15
ATOM     15  C   UNL     1       1.319   2.685  20.201  0.00  0.00    +0.000 C 
BRANCH  15  16
ATOM     16  C   UNL     1       0.936   4.161  20.287  0.00  0.00    +0.000 C 
BRANCH  16  18
ATOM     17  C   UNL     1       2.305   6.246  19.974  0.00  0.00    +0.000 C 
ATOM     18  C   UNL     1       2.091   5.003  20.823  0.00  0.00    +0.000 C 
ENDBRANCH  16  18
ENDBRANCH  15  16
ENDBRANCH  14  15
ENDBRANCH  13  14
ENDBRANCH  12  13
ENDBRANCH  11  12
ENDBRANCH   1  11
TORSDOF 9
ENDMDL
MODEL 8
REMARK VINA RESULT:      -6.0      2.345      6.531
REMARK  Name = 
REMARK  10 active torsions:
REMARK  status: ('A' for Active; 'I' for Inactive)
REMARK    1  A    between atoms: C_1  and  C_2
REMARK    2  A    between atoms: C_2  and  C_3
REMARK    3  A    between atoms: C_3  and  C_4
REMARK    4  A    between atoms: C_4  and  C_5
REMARK    5  A    between atoms: C_5  and  C_6
REMARK    6  A    between atoms: C_6  and  C_7
REMARK    7  A    between atoms: C_7  and  O_8
REMARK    8  A    between atoms: O_8  and  C_9
REMARK    9  A    between atoms: C_13  and  C_14
REMARK   10  A    between atoms: C_14  and  O_16
REMARK                            x       y       z     vdW  Elec       q    Type
REMARK                         _______ _______ _______ _____ _____    ______ ____
ROOT
ATOM      1  C   UNL     1       4.596   4.553  17.479  0.00  0.00    +0.000 A 
ATOM      2  C   UNL     1       5.561   4.574  18.490  0.00  0.00    +0.000 A 
ATOM      3  C   UNL     1       6.917   4.614  18.173  0.00  0.00    +0.000 A 
ATOM      4  C   UNL     1       7.313   4.638  16.838  0.00  0.00    +0.000 A 
ATOM      5  C   UNL     1       6.356   4.618  15.815  0.00  0.00    +0.000 A 
ATOM      6  C   UNL     1       4.993   4.559  16.138  0.00  0.00    +0.000 A 
ENDROOT
BRANCH   5   7
ATOM      7  C   UNL     1       6.848   4.614  14.413  0.00  0.00    +0.000 C 
ATOM      8  O   UNL     1       6.435   3.820  13.582  0.00  0.00    +0.000 OA
BRANCH   7   9
ATOM      9  O   UNL     1       7.811   5.517  14.134  0.00  0.00    +0.000 OA
ATOM     10  H   UNL     1       8.034   6.144  14.845  0.00  0.00    +0.000 HD
ENDBRANCH   7   9
ENDBRANCH   5   7
BRANCH   1  11
ATOM     11  O   UNL     1       3.306   4.534  17.932  0.00  0.00    +0.000 OA
BRANCH  11  12
ATOM     12  C   UNL     1       2.418   3.603  17.315  0.00  0.00    +0.000 C 
BRANCH  12  13
ATOM     13  C   UNL     1       2.347   2.363  18.196  0.00  0.00    +0.000 C 
BRANCH  13  14
ATOM     14  C   UNL     1       0.944   2.182  18.768  0.00  0.00    +0.000 C 
BRANCH  14  15
ATOM     15  C   UNL     1       0.681   3.149  19.919  0.00  0.00    +0.000 C 
BRANCH  15  16
ATOM     16  C   UNL     1       1.749   3.006  21.002  0.00  0.00    +0.000 C 
BRANCH  16  18
ATOM     17  C   UNL     1       1.694   5.486  20.595  0.00  0.00    +0.000 C 
ATOM     18  C   UNL     1       2.268   4.369  21.452  0.00  0.00    +0.000 C 
ENDBRANCH  16  18
ENDBRANCH  15  16
ENDBRANCH  14  15
ENDBRANCH  13  14
ENDBRANCH  12  13
ENDBRANCH  11  12
ENDBRANCH   1  11
TORSDOF 9
ENDMDL
MODEL 9
REMARK VINA RESULT:      -6.0      2.586      6.173
REMARK  Name = 
REMARK  10 active torsions:
REMARK  status: ('A' for Active; 'I' for Inactive)
REMARK    1  A    between atoms: C_1  and  C_2
REMARK    2  A    between atoms: C_2  and  C_3
REMARK    3  A    between atoms: C_3  and  C_4
REMARK    4  A    between atoms: C_4  and  C_5
REMARK    5  A    between atoms: C_5  and  C_6
REMARK    6  A    between atoms: C_6  and  C_7
REMARK    7  A    between atoms: C_7  and  O_8
REMARK    8  A    between atoms: O_8  and  C_9
REMARK    9  A    between atoms: C_13  and  C_14
REMARK   10  A    between atoms: C_14  and  O_16
REMARK                            x       y       z     vdW  Elec       q    Type
REMARK                         _______ _______ _______ _____ _____    ______ ____
ROOT
ATOM      1  C   UNL     1       4.786   5.949  17.369  0.00  0.00    +0.000 A 
ATOM      2  C   UNL     1       5.568   5.528  18.449  0.00  0.00    +0.000 A 
ATOM      3  C   UNL     1       6.777   4.870  18.233  0.00  0.00    +0.000 A 
ATOM      4  C   UNL     1       7.210   4.634  16.930  0.00  0.00    +0.000 A 
ATOM      5  C   UNL     1       6.436   5.051  15.840  0.00  0.00    +0.000 A 
ATOM      6  C   UNL     1       5.212   5.697  16.062  0.00  0.00    +0.000 A 
ENDROOT
BRANCH   5   7
ATOM      7  C   UNL     1       6.942   4.739  14.478  0.00  0.00    +0.000 C 
ATOM      8  O   UNL     1       7.761   5.448  13.912  0.00  0.00    +0.000 OA
BRANCH   7   9
ATOM      9  O   UNL     1       6.407   3.647  13.896  0.00  0.00    +0.000 OA
ATOM     10  H   UNL     1       6.820   2.793  14.118  0.00  0.00    +0.000 HD
ENDBRANCH   7   9
ENDBRANCH   5   7
BRANCH   1  11
ATOM     11  O   UNL     1       3.637   6.599  17.726  0.00  0.00    +0.000 OA
BRANCH  11  12
ATOM     12  C   UNL     1       2.569   5.795  18.226  0.00  0.00    +0.000 C 
BRANCH  12  13
ATOM     13  C   UNL     1       2.265   6.247  19.648  0.00  0.00    +0.000 C 
BRANCH  13  14
ATOM     14  C   UNL     1       2.210   5.054  20.598  0.00  0.00    +0.000 C 
BRANCH  14  15
ATOM     15  C   UNL     1       0.980   4.188  20.336  0.00  0.00    +0.000 C 
BRANCH  15  16
ATOM     16  C   UNL     1       1.376   2.722  20.169  0.00  0.00    +0.000 C 
BRANCH  16  18
ATOM     17  C   UNL     1       2.873   2.084  18.254  0.00  0.00    +0.000 C 
ATOM     18  C   UNL     1       1.439   2.329  18.696  0.00  0.00    +0.000 C 
ENDBRANCH  16  18
ENDBRANCH  15  16
ENDBRANCH  14  15
ENDBRANCH  13  14
ENDBRANCH  12  13
ENDBRANCH  11  12
ENDBRANCH   1  11
TORSDOF 9
ENDMDL
