MODEL 1
REMARK VINA RESULT:      -6.2      0.000      0.000
REMARK  Name = 
REMARK  5 active torsions:
REMARK  status: ('A' for Active; 'I' for Inactive)
REMARK    1  A    between atoms: C_1  and  C_2
REMARK    2  A    between atoms: C_2  and  C_4
REMARK    3  A    between atoms: N_9  and  C_10
REMARK    4  A    between atoms: N_21  and  C_22
REMARK    5  A    between atoms: C_28  and  C_29
REMARK                            x       y       z     vdW  Elec       q    Type
REMARK                         _______ _______ _______ _____ _____    ______ ____
ROOT
ATOM      1  C   UNL     1      -1.053  13.995  21.311  0.00  0.00    +0.000 A 
ATOM      2  C   UNL     1      -1.399  12.674  20.677  0.00  0.00    +0.000 A 
ATOM      3  N   UNL     1      -0.472  11.714  20.321  0.00  0.00    +0.000 N 
ATOM      4  C   UNL     1       0.487  11.116  21.256  0.00  0.00    +0.000 C 
ATOM      5  C   UNL     1       0.661   9.606  20.958  0.00  0.00    +0.000 C 
ATOM      6  N   UNL     1       1.045   9.436  19.547  0.00  0.00    +0.000 N 
ATOM      7  C   UNL     1       0.060   9.995  18.598  0.00  0.00    +0.000 C 
ATOM      8  C   UNL     1      -0.160  11.492  18.898  0.00  0.00    +0.000 C 
ATOM      9  N   UNL     1      -2.624  12.317  20.429  0.00  0.00    +0.000 NA
ATOM     10  C   UNL     1      -3.686  13.129  20.685  0.00  0.00    +0.000 A 
ATOM     11  S   UNL     1      -5.144  12.627  19.959  0.00  0.00    +0.000 S 
ATOM     12  N   UNL     1      -3.469  14.316  21.457  0.00  0.00    +0.000 N 
ATOM     13  C   UNL     1      -2.125  14.703  21.770  0.00  0.00    +0.000 A 
ATOM     14  C   UNL     1      -1.922  15.912  22.659  0.00  0.00    +0.000 C 
ENDROOT
BRANCH   6  15
ATOM     15  C   UNL     1       1.901   8.429  19.136  0.00  0.00    +0.000 A 
ATOM     16  C   UNL     1       2.551   8.443  17.898  0.00  0.00    +0.000 A 
ATOM     17  C   UNL     1       3.344   7.366  17.473  0.00  0.00    +0.000 A 
ATOM     18  C   UNL     1       3.486   6.245  18.280  0.00  0.00    +0.000 A 
ATOM     19  C   UNL     1       2.860   6.204  19.515  0.00  0.00    +0.000 A 
ATOM     20  C   UNL     1       2.077   7.287  19.938  0.00  0.00    +0.000 A 
ENDBRANCH   6  15
BRANCH  12  21
ATOM     21  C   UNL     1      -4.609  15.189  21.742  0.00  0.00    +0.000 A 
ATOM     22  C   UNL     1      -5.396  15.028  22.894  0.00  0.00    +0.000 A 
ATOM     23  C   UNL     1      -6.518  15.834  23.130  0.00  0.00    +0.000 A 
ATOM     24  C   UNL     1      -6.825  16.876  22.261  0.00  0.00    +0.000 A 
ATOM     25  C   UNL     1      -6.036  17.084  21.137  0.00  0.00    +0.000 A 
ATOM     26  C   UNL     1      -4.970  16.223  20.858  0.00  0.00    +0.000 A 
ENDBRANCH  12  21
BRANCH   1  28
ATOM     27  C   UNL     1       1.099  14.975  20.092  0.00  0.00    +0.000 C 
ATOM     28  C   UNL     1       0.401  14.437  21.305  0.00  0.00    +0.000 C 
ATOM     29  O   UNL     1       1.091  14.292  22.323  0.00  0.00    +0.000 OA
ENDBRANCH   1  28
TORSDOF 3
ENDMDL
MODEL 2
REMARK VINA RESULT:      -6.2      0.226      1.279
REMARK  Name = 
REMARK  5 active torsions:
REMARK  status: ('A' for Active; 'I' for Inactive)
REMARK    1  A    between atoms: C_1  and  C_2
REMARK    2  A    between atoms: C_2  and  C_4
REMARK    3  A    between atoms: N_9  and  C_10
REMARK    4  A    between atoms: N_21  and  C_22
REMARK    5  A    between atoms: C_28  and  C_29
REMARK                            x       y       z     vdW  Elec       q    Type
REMARK                         _______ _______ _______ _____ _____    ______ ____
ROOT
ATOM      1  C   UNL     1      -0.936  13.908  21.155  0.00  0.00    +0.000 A 
ATOM      2  C   UNL     1      -1.305  12.595  20.515  0.00  0.00    +0.000 A 
ATOM      3  N   UNL     1      -0.396  11.614  20.172  0.00  0.00    +0.000 N 
ATOM      4  C   UNL     1       0.535  10.993  21.120  0.00  0.00    +0.000 C 
ATOM      5  C   UNL     1       0.677   9.478  20.824  0.00  0.00    +0.000 C 
ATOM      6  N   UNL     1       1.078   9.300  19.420  0.00  0.00    +0.000 N 
ATOM      7  C   UNL     1       0.120   9.883  18.457  0.00  0.00    +0.000 C 
ATOM      8  C   UNL     1      -0.068  11.384  18.753  0.00  0.00    +0.000 C 
ATOM      9  N   UNL     1      -2.534  12.268  20.248  0.00  0.00    +0.000 NA
ATOM     10  C   UNL     1      -3.580  13.105  20.489  0.00  0.00    +0.000 A 
ATOM     11  S   UNL     1      -5.039  12.638  19.741  0.00  0.00    +0.000 S 
ATOM     12  N   UNL     1      -3.346  14.286  21.265  0.00  0.00    +0.000 N 
ATOM     13  C   UNL     1      -1.998  14.641  21.598  0.00  0.00    +0.000 A 
ATOM     14  C   UNL     1      -1.779  15.844  22.490  0.00  0.00    +0.000 C 
ENDROOT
BRANCH   6  15
ATOM     15  C   UNL     1       1.915   8.272  19.021  0.00  0.00    +0.000 A 
ATOM     16  C   UNL     1       2.153   7.139  19.806  0.00  0.00    +0.000 A 
ATOM     17  C   UNL     1       3.073   6.156  19.413  0.00  0.00    +0.000 A 
ATOM     18  C   UNL     1       3.786   6.300  18.230  0.00  0.00    +0.000 A 
ATOM     19  C   UNL     1       3.567   7.409  17.428  0.00  0.00    +0.000 A 
ATOM     20  C   UNL     1       2.639   8.383  17.821  0.00  0.00    +0.000 A 
ENDBRANCH   6  15
BRANCH  12  21
ATOM     21  C   UNL     1      -4.469  15.186  21.533  0.00  0.00    +0.000 A 
ATOM     22  C   UNL     1      -4.798  16.240  20.664  0.00  0.00    +0.000 A 
ATOM     23  C   UNL     1      -5.841  17.129  20.957  0.00  0.00    +0.000 A 
ATOM     24  C   UNL     1      -6.633  16.930  22.084  0.00  0.00    +0.000 A 
ATOM     25  C   UNL     1      -6.357  15.869  22.935  0.00  0.00    +0.000 A 
ATOM     26  C   UNL     1      -5.260  15.036  22.687  0.00  0.00    +0.000 A 
ENDBRANCH  12  21
BRANCH   1  28
ATOM     27  C   UNL     1       1.254  14.844  19.970  0.00  0.00    +0.000 C 
ATOM     28  C   UNL     1       0.527  14.315  21.170  0.00  0.00    +0.000 C 
ATOM     29  O   UNL     1       1.200  14.147  22.196  0.00  0.00    +0.000 OA
ENDBRANCH   1  28
TORSDOF 3
ENDMDL
MODEL 3
REMARK VINA RESULT:      -6.1      0.543      1.042
REMARK  Name = 
REMARK  5 active torsions:
REMARK  status: ('A' for Active; 'I' for Inactive)
REMARK    1  A    between atoms: C_1  and  C_2
REMARK    2  A    between atoms: C_2  and  C_4
REMARK    3  A    between atoms: N_9  and  C_10
REMARK    4  A    between atoms: N_21  and  C_22
REMARK    5  A    between atoms: C_28  and  C_29
REMARK                            x       y       z     vdW  Elec       q    Type
REMARK                         _______ _______ _______ _____ _____    ______ ____
ROOT
ATOM      1  C   UNL     1      -1.450  13.782  21.144  0.00  0.00    +0.000 A 
ATOM      2  C   UNL     1      -1.685  12.486  20.415  0.00  0.00    +0.000 A 
ATOM      3  N   UNL     1      -0.698  11.563  20.128  0.00  0.00    +0.000 N 
ATOM      4  C   UNL     1       0.158  10.940  21.142  0.00  0.00    +0.000 C 
ATOM      5  C   UNL     1       0.403   9.449  20.799  0.00  0.00    +0.000 C 
ATOM      6  N   UNL     1       0.956   9.355  19.438  0.00  0.00    +0.000 N 
ATOM      7  C   UNL     1       0.076   9.940  18.405  0.00  0.00    +0.000 C 
ATOM      8  C   UNL     1      -0.215  11.416  18.743  0.00  0.00    +0.000 C 
ATOM      9  N   UNL     1      -2.863  12.118  20.005  0.00  0.00    +0.000 NA
ATOM     10  C   UNL     1      -3.968  12.896  20.170  0.00  0.00    +0.000 A 
ATOM     11  S   UNL     1      -5.317  12.401  19.253  0.00  0.00    +0.000 S 
ATOM     12  N   UNL     1      -3.873  14.048  21.015  0.00  0.00    +0.000 N 
ATOM     13  C   UNL     1      -2.586  14.446  21.503  0.00  0.00    +0.000 A 
ATOM     14  C   UNL     1      -2.520  15.614  22.464  0.00  0.00    +0.000 C 
ENDROOT
BRANCH   6  15
ATOM     15  C   UNL     1       1.879   8.385  19.087  0.00  0.00    +0.000 A 
ATOM     16  C   UNL     1       2.607   8.427  17.893  0.00  0.00    +0.000 A 
ATOM     17  C   UNL     1       3.472   7.386  17.525  0.00  0.00    +0.000 A 
ATOM     18  C   UNL     1       3.610   6.272  18.343  0.00  0.00    +0.000 A 
ATOM     19  C   UNL     1       2.906   6.204  19.535  0.00  0.00    +0.000 A 
ATOM     20  C   UNL     1       2.052   7.252  19.902  0.00  0.00    +0.000 A 
ENDBRANCH   6  15
BRANCH  12  21
ATOM     21  C   UNL     1      -5.060  14.884  21.201  0.00  0.00    +0.000 A 
ATOM     22  C   UNL     1      -5.350  15.962  20.347  0.00  0.00    +0.000 A 
ATOM     23  C   UNL     1      -6.459  16.789  20.566  0.00  0.00    +0.000 A 
ATOM     24  C   UNL     1      -7.353  16.503  21.594  0.00  0.00    +0.000 A 
ATOM     25  C   UNL     1      -7.114  15.417  22.424  0.00  0.00    +0.000 A 
ATOM     26  C   UNL     1      -5.958  14.645  22.259  0.00  0.00    +0.000 A 
ENDBRANCH  12  21
BRANCH   1  28
ATOM     27  C   UNL     1       0.794  14.893  20.245  0.00  0.00    +0.000 C 
ATOM     28  C   UNL     1      -0.017  14.252  21.331  0.00  0.00    +0.000 C 
ATOM     29  O   UNL     1       0.561  14.045  22.406  0.00  0.00    +0.000 OA
ENDBRANCH   1  28
TORSDOF 3
ENDMDL
MODEL 4
REMARK VINA RESULT:      -6.0      0.916      1.269
REMARK  Name = 
REMARK  5 active torsions:
REMARK  status: ('A' for Active; 'I' for Inactive)
REMARK    1  A    between atoms: C_1  and  C_2
REMARK    2  A    between atoms: C_2  and  C_4
REMARK    3  A    between atoms: N_9  and  C_10
REMARK    4  A    between atoms: N_21  and  C_22
REMARK    5  A    between atoms: C_28  and  C_29
REMARK                            x       y       z     vdW  Elec       q    Type
REMARK                         _______ _______ _______ _____ _____    ______ ____
ROOT
ATOM      1  C   UNL     1      -1.706  14.610  20.825  0.00  0.00    +0.000 A 
ATOM      2  C   UNL     1      -1.998  13.152  20.590  0.00  0.00    +0.000 A 
ATOM      3  N   UNL     1      -1.046  12.213  20.243  0.00  0.00    +0.000 N 
ATOM      4  C   UNL     1       0.156  11.936  21.035  0.00  0.00    +0.000 C 
ATOM      5  C   UNL     1       0.463  10.418  21.038  0.00  0.00    +0.000 C 
ATOM      6  N   UNL     1       0.565   9.946  19.647  0.00  0.00    +0.000 N 
ATOM      7  C   UNL     1      -0.662  10.180  18.856  0.00  0.00    +0.000 C 
ATOM      8  C   UNL     1      -1.011  11.682  18.869  0.00  0.00    +0.000 C 
ATOM      9  N   UNL     1      -3.190  12.647  20.717  0.00  0.00    +0.000 NA
ATOM     10  C   UNL     1      -4.273  13.409  21.032  0.00  0.00    +0.000 A 
ATOM     11  S   UNL     1      -5.771  12.631  20.791  0.00  0.00    +0.000 S 
ATOM     12  N   UNL     1      -4.060  14.760  21.458  0.00  0.00    +0.000 N 
ATOM     13  C   UNL     1      -2.744  15.319  21.357  0.00  0.00    +0.000 A 
ATOM     14  C   UNL     1      -2.522  16.717  21.892  0.00  0.00    +0.000 C 
ENDROOT
BRANCH   6  15
ATOM     15  C   UNL     1       1.442   8.942  19.276  0.00  0.00    +0.000 A 
ATOM     16  C   UNL     1       2.083   8.916  18.033  0.00  0.00    +0.000 A 
ATOM     17  C   UNL     1       2.899   7.841  17.651  0.00  0.00    +0.000 A 
ATOM     18  C   UNL     1       3.075   6.761  18.506  0.00  0.00    +0.000 A 
ATOM     19  C   UNL     1       2.458   6.761  19.748  0.00  0.00    +0.000 A 
ATOM     20  C   UNL     1       1.652   7.842  20.126  0.00  0.00    +0.000 A 
ENDBRANCH   6  15
BRANCH  12  21
ATOM     21  C   UNL     1      -5.221  15.580  21.805  0.00  0.00    +0.000 A 
ATOM     22  C   UNL     1      -5.881  16.373  20.850  0.00  0.00    +0.000 A 
ATOM     23  C   UNL     1      -6.958  17.197  21.204  0.00  0.00    +0.000 A 
ATOM     24  C   UNL     1      -7.454  17.179  22.504  0.00  0.00    +0.000 A 
ATOM     25  C   UNL     1      -6.848  16.370  23.456  0.00  0.00    +0.000 A 
ATOM     26  C   UNL     1      -5.717  15.616  23.121  0.00  0.00    +0.000 A 
ENDBRANCH  12  21
BRANCH   1  28
ATOM     27  C   UNL     1      -0.006  15.444  18.957  0.00  0.00    +0.000 C 
ATOM     28  C   UNL     1      -0.357  15.154  20.385  0.00  0.00    +0.000 C 
ATOM     29  O   UNL     1       0.543  15.310  21.220  0.00  0.00    +0.000 OA
ENDBRANCH   1  28
TORSDOF 3
ENDMDL
MODEL 5
REMARK VINA RESULT:      -5.8      1.498      1.949
REMARK  Name = 
REMARK  5 active torsions:
REMARK  status: ('A' for Active; 'I' for Inactive)
REMARK    1  A    between atoms: C_1  and  C_2
REMARK    2  A    between atoms: C_2  and  C_4
REMARK    3  A    between atoms: N_9  and  C_10
REMARK    4  A    between atoms: N_21  and  C_22
REMARK    5  A    between atoms: C_28  and  C_29
REMARK                            x       y       z     vdW  Elec       q    Type
REMARK                         _______ _______ _______ _____ _____    ______ ____
ROOT
ATOM      1  C   UNL     1      -1.198  14.893  20.920  0.00  0.00    +0.000 A 
ATOM      2  C   UNL     1      -1.519  13.425  21.025  0.00  0.00    +0.000 A 
ATOM      3  N   UNL     1      -0.713  12.415  20.536  0.00  0.00    +0.000 N 
ATOM      4  C   UNL     1       0.689  12.228  20.924  0.00  0.00    +0.000 C 
ATOM      5  C   UNL     1       1.013  10.719  21.063  0.00  0.00    +0.000 C 
ATOM      6  N   UNL     1       0.663  10.035  19.808  0.00  0.00    +0.000 N 
ATOM      7  C   UNL     1      -0.760  10.181  19.437  0.00  0.00    +0.000 C 
ATOM      8  C   UNL     1      -1.119  11.677  19.328  0.00  0.00    +0.000 C 
ATOM      9  N   UNL     1      -2.591  12.984  21.613  0.00  0.00    +0.000 NA
ATOM     10  C   UNL     1      -3.528  13.818  22.142  0.00  0.00    +0.000 A 
ATOM     11  S   UNL     1      -5.004  13.058  22.531  0.00  0.00    +0.000 S 
ATOM     12  N   UNL     1      -3.216  15.211  22.257  0.00  0.00    +0.000 N 
ATOM     13  C   UNL     1      -2.019  15.707  21.645  0.00  0.00    +0.000 A 
ATOM     14  C   UNL     1      -1.665  17.164  21.852  0.00  0.00    +0.000 C 
ENDROOT
BRANCH   6  15
ATOM     15  C   UNL     1       1.391   8.959  19.332  0.00  0.00    +0.000 A 
ATOM     16  C   UNL     1       1.680   7.833  20.110  0.00  0.00    +0.000 A 
ATOM     17  C   UNL     1       2.494   6.797  19.627  0.00  0.00    +0.000 A 
ATOM     18  C   UNL     1       3.048   6.880  18.356  0.00  0.00    +0.000 A 
ATOM     19  C   UNL     1       2.775   7.981  17.559  0.00  0.00    +0.000 A 
ATOM     20  C   UNL     1       1.953   9.007  18.043  0.00  0.00    +0.000 A 
ENDBRANCH   6  15
BRANCH  12  21
ATOM     21  C   UNL     1      -4.217  16.111  22.833  0.00  0.00    +0.000 A 
ATOM     22  C   UNL     1      -5.154  16.787  22.033  0.00  0.00    +0.000 A 
ATOM     23  C   UNL     1      -6.073  17.688  22.588  0.00  0.00    +0.000 A 
ATOM     24  C   UNL     1      -6.131  17.866  23.967  0.00  0.00    +0.000 A 
ATOM     25  C   UNL     1      -5.246  17.175  24.784  0.00  0.00    +0.000 A 
ATOM     26  C   UNL     1      -4.272  16.344  24.220  0.00  0.00    +0.000 A 
ENDBRANCH  12  21
BRANCH   1  28
ATOM     27  C   UNL     1       1.272  15.762  20.453  0.00  0.00    +0.000 C 
ATOM     28  C   UNL     1      -0.081  15.320  19.983  0.00  0.00    +0.000 C 
ATOM     29  O   UNL     1      -0.293  15.383  18.765  0.00  0.00    +0.000 OA
ENDBRANCH   1  28
TORSDOF 3
ENDMDL
MODEL 6
REMARK VINA RESULT:      -5.8      1.422      1.476
REMARK  Name = 
REMARK  5 active torsions:
REMARK  status: ('A' for Active; 'I' for Inactive)
REMARK    1  A    between atoms: C_1  and  C_2
REMARK    2  A    between atoms: C_2  and  C_4
REMARK    3  A    between atoms: N_9  and  C_10
REMARK    4  A    between atoms: N_21  and  C_22
REMARK    5  A    between atoms: C_28  and  C_29
REMARK                            x       y       z     vdW  Elec       q    Type
REMARK                         _______ _______ _______ _____ _____    ______ ____
ROOT
ATOM      1  C   UNL     1      -1.174  14.915  21.062  0.00  0.00    +0.000 A 
ATOM      2  C   UNL     1      -1.497  13.448  21.147  0.00  0.00    +0.000 A 
ATOM      3  N   UNL     1      -0.684  12.442  20.663  0.00  0.00    +0.000 N 
ATOM      4  C   UNL     1       0.711  12.249  21.073  0.00  0.00    +0.000 C 
ATOM      5  C   UNL     1       1.032  10.739  21.204  0.00  0.00    +0.000 C 
ATOM      6  N   UNL     1       0.704  10.067  19.936  0.00  0.00    +0.000 N 
ATOM      7  C   UNL     1      -0.713  10.218  19.541  0.00  0.00    +0.000 C 
ATOM      8  C   UNL     1      -1.069  11.715  19.440  0.00  0.00    +0.000 C 
ATOM      9  N   UNL     1      -2.580  13.001  21.711  0.00  0.00    +0.000 NA
ATOM     10  C   UNL     1      -3.525  13.831  22.231  0.00  0.00    +0.000 A 
ATOM     11  S   UNL     1      -5.009  13.069  22.587  0.00  0.00    +0.000 S 
ATOM     12  N   UNL     1      -3.215  15.223  22.366  0.00  0.00    +0.000 N 
ATOM     13  C   UNL     1      -2.007  15.723  21.780  0.00  0.00    +0.000 A 
ATOM     14  C   UNL     1      -1.656  17.178  22.007  0.00  0.00    +0.000 C 
ENDROOT
BRANCH   6  15
ATOM     15  C   UNL     1       1.440   8.995  19.462  0.00  0.00    +0.000 A 
ATOM     16  C   UNL     1       1.943   8.937  18.158  0.00  0.00    +0.000 A 
ATOM     17  C   UNL     1       2.611   7.801  17.680  0.00  0.00    +0.000 A 
ATOM     18  C   UNL     1       2.773   6.691  18.499  0.00  0.00    +0.000 A 
ATOM     19  C   UNL     1       2.291   6.720  19.798  0.00  0.00    +0.000 A 
ATOM     20  C   UNL     1       1.633   7.863  20.273  0.00  0.00    +0.000 A 
ENDBRANCH   6  15
BRANCH  12  21
ATOM     21  C   UNL     1      -4.225  16.117  22.932  0.00  0.00    +0.000 A 
ATOM     22  C   UNL     1      -4.292  16.383  24.310  0.00  0.00    +0.000 A 
ATOM     23  C   UNL     1      -5.296  17.198  24.850  0.00  0.00    +0.000 A 
ATOM     24  C   UNL     1      -6.205  17.835  24.010  0.00  0.00    +0.000 A 
ATOM     25  C   UNL     1      -6.133  17.625  22.639  0.00  0.00    +0.000 A 
ATOM     26  C   UNL     1      -5.184  16.741  22.112  0.00  0.00    +0.000 A 
ENDBRANCH  12  21
BRANCH   1  28
ATOM     27  C   UNL     1      -0.163  15.438  18.657  0.00  0.00    +0.000 C 
ATOM     28  C   UNL     1      -0.040  15.351  20.149  0.00  0.00    +0.000 C 
ATOM     29  O   UNL     1       1.077  15.585  20.627  0.00  0.00    +0.000 OA
ENDBRANCH   1  28
TORSDOF 3
ENDMDL
MODEL 7
REMARK VINA RESULT:      -5.8      3.274      5.070
REMARK  Name = 
REMARK  5 active torsions:
REMARK  status: ('A' for Active; 'I' for Inactive)
REMARK    1  A    between atoms: C_1  and  C_2
REMARK    2  A    between atoms: C_2  and  C_4
REMARK    3  A    between atoms: N_9  and  C_10
REMARK    4  A    between atoms: N_21  and  C_22
REMARK    5  A    between atoms: C_28  and  C_29
REMARK                            x       y       z     vdW  Elec       q    Type
REMARK                         _______ _______ _______ _____ _____    ______ ____
ROOT
ATOM      1  C   UNL     1      -2.315  12.953  20.240  0.00  0.00    +0.000 A 
ATOM      2  C   UNL     1      -1.281  13.850  20.867  0.00  0.00    +0.000 A 
ATOM      3  N   UNL     1       0.016  13.980  20.411  0.00  0.00    +0.000 N 
ATOM      4  C   UNL     1       0.366  14.382  19.045  0.00  0.00    +0.000 C 
ATOM      5  C   UNL     1       1.600  15.320  19.058  0.00  0.00    +0.000 C 
ATOM      6  N   UNL     1       2.703  14.651  19.764  0.00  0.00    +0.000 N 
ATOM      7  C   UNL     1       2.373  14.285  21.158  0.00  0.00    +0.000 C 
ATOM      8  C   UNL     1       1.124  13.381  21.176  0.00  0.00    +0.000 C 
ATOM      9  N   UNL     1      -1.538  14.602  21.896  0.00  0.00    +0.000 NA
ATOM     10  C   UNL     1      -2.753  14.604  22.511  0.00  0.00    +0.000 A 
ATOM     11  S   UNL     1      -2.766  15.370  24.034  0.00  0.00    +0.000 S 
ATOM     12  N   UNL     1      -3.845  13.932  21.873  0.00  0.00    +0.000 N 
ATOM     13  C   UNL     1      -3.582  13.128  20.716  0.00  0.00    +0.000 A 
ATOM     14  C   UNL     1      -4.761  12.497  20.006  0.00  0.00    +0.000 C 
ENDROOT
BRANCH   6  15
ATOM     15  C   UNL     1       4.025  14.829  19.395  0.00  0.00    +0.000 A 
ATOM     16  C   UNL     1       4.484  14.618  18.091  0.00  0.00    +0.000 A 
ATOM     17  C   UNL     1       5.845  14.722  17.766  0.00  0.00    +0.000 A 
ATOM     18  C   UNL     1       6.776  15.025  18.752  0.00  0.00    +0.000 A 
ATOM     19  C   UNL     1       6.350  15.246  20.052  0.00  0.00    +0.000 A 
ATOM     20  C   UNL     1       4.989  15.150  20.368  0.00  0.00    +0.000 A 
ENDBRANCH   6  15
BRANCH  12  21
ATOM     21  C   UNL     1      -5.154  13.938  22.527  0.00  0.00    +0.000 A 
ATOM     22  C   UNL     1      -6.103  14.943  22.276  0.00  0.00    +0.000 A 
ATOM     23  C   UNL     1      -7.333  14.970  22.948  0.00  0.00    +0.000 A 
ATOM     24  C   UNL     1      -7.675  13.943  23.821  0.00  0.00    +0.000 A 
ATOM     25  C   UNL     1      -6.772  12.913  24.053  0.00  0.00    +0.000 A 
ATOM     26  C   UNL     1      -5.510  12.936  23.448  0.00  0.00    +0.000 A 
ENDBRANCH  12  21
BRANCH   1  28
ATOM     27  C   UNL     1      -1.064  10.695  19.600  0.00  0.00    +0.000 C 
ATOM     28  C   UNL     1      -1.852  11.916  19.231  0.00  0.00    +0.000 C 
ATOM     29  O   UNL     1      -2.061  12.097  18.025  0.00  0.00    +0.000 OA
ENDBRANCH   1  28
TORSDOF 3
ENDMDL
MODEL 8
REMARK VINA RESULT:      -5.7      5.458      6.957
REMARK  Name = 
REMARK  5 active torsions:
REMARK  status: ('A' for Active; 'I' for Inactive)
REMARK    1  A    between atoms: C_1  and  C_2
REMARK    2  A    between atoms: C_2  and  C_4
REMARK    3  A    between atoms: N_9  and  C_10
REMARK    4  A    between atoms: N_21  and  C_22
REMARK    5  A    between atoms: C_28  and  C_29
REMARK                            x       y       z     vdW  Elec       q    Type
REMARK                         _______ _______ _______ _____ _____    ______ ____
ROOT
ATOM      1  C   UNL     1       2.424  15.821  20.675  0.00  0.00    +0.000 A 
ATOM      2  C   UNL     1       3.290  14.784  20.009  0.00  0.00    +0.000 A 
ATOM      3  N   UNL     1       4.582  15.010  19.576  0.00  0.00    +0.000 N 
ATOM      4  C   UNL     1       5.664  15.485  20.444  0.00  0.00    +0.000 C 
ATOM      5  C   UNL     1       6.995  14.779  20.083  0.00  0.00    +0.000 C 
ATOM      6  N   UNL     1       7.272  14.979  18.652  0.00  0.00    +0.000 N 
ATOM      7  C   UNL     1       6.206  14.459  17.769  0.00  0.00    +0.000 C 
ATOM      8  C   UNL     1       4.860  15.120  18.133  0.00  0.00    +0.000 C 
ATOM      9  N   UNL     1       2.888  13.565  19.803  0.00  0.00    +0.000 NA
ATOM     10  C   UNL     1       1.638  13.144  20.136  0.00  0.00    +0.000 A 
ATOM     11  S   UNL     1       1.199  11.642  19.459  0.00  0.00    +0.000 S 
ATOM     12  N   UNL     1       0.819  14.001  20.941  0.00  0.00    +0.000 N 
ATOM     13  C   UNL     1       1.265  15.336  21.207  0.00  0.00    +0.000 A 
ATOM     14  C   UNL     1       0.428  16.196  22.130  0.00  0.00    +0.000 C 
ENDROOT
BRANCH   6  15
ATOM     15  C   UNL     1       8.560  15.118  18.166  0.00  0.00    +0.000 A 
ATOM     16  C   UNL     1       9.076  16.339  17.719  0.00  0.00    +0.000 A 
ATOM     17  C   UNL     1      10.356  16.431  17.152  0.00  0.00    +0.000 A 
ATOM     18  C   UNL     1      11.137  15.292  17.006  0.00  0.00    +0.000 A 
ATOM     19  C   UNL     1      10.656  14.069  17.445  0.00  0.00    +0.000 A 
ATOM     20  C   UNL     1       9.381  13.985  18.020  0.00  0.00    +0.000 A 
ENDBRANCH   6  15
BRANCH  12  21
ATOM     21  C   UNL     1      -0.524  13.549  21.309  0.00  0.00    +0.000 A 
ATOM     22  C   UNL     1      -0.762  12.805  22.477  0.00  0.00    +0.000 A 
ATOM     23  C   UNL     1      -2.043  12.331  22.792  0.00  0.00    +0.000 A 
ATOM     24  C   UNL     1      -3.129  12.665  21.989  0.00  0.00    +0.000 A 
ATOM     25  C   UNL     1      -2.928  13.438  20.853  0.00  0.00    +0.000 A 
ATOM     26  C   UNL     1      -1.635  13.835  20.493  0.00  0.00    +0.000 A 
ENDBRANCH  12  21
BRANCH   1  28
ATOM     27  C   UNL     1       3.441  18.011  21.792  0.00  0.00    +0.000 C 
ATOM     28  C   UNL     1       2.869  17.273  20.619  0.00  0.00    +0.000 C 
ATOM     29  O   UNL     1       2.697  17.927  19.582  0.00  0.00    +0.000 OA
ENDBRANCH   1  28
TORSDOF 3
ENDMDL
MODEL 9
REMARK VINA RESULT:      -5.7      4.730      8.762
REMARK  Name = 
REMARK  5 active torsions:
REMARK  status: ('A' for Active; 'I' for Inactive)
REMARK    1  A    between atoms: C_1  and  C_2
REMARK    2  A    between atoms: C_2  and  C_4
REMARK    3  A    between atoms: N_9  and  C_10
REMARK    4  A    between atoms: N_21  and  C_22
REMARK    5  A    between atoms: C_28  and  C_29
REMARK                            x       y       z     vdW  Elec       q    Type
REMARK                         _______ _______ _______ _____ _____    ______ ____
ROOT
ATOM      1  C   UNL     1       1.339  16.142  19.179  0.00  0.00    +0.000 A 
ATOM      2  C   UNL     1       1.155  15.179  20.322  0.00  0.00    +0.000 A 
ATOM      3  N   UNL     1      -0.071  14.829  20.855  0.00  0.00    +0.000 N 
ATOM      4  C   UNL     1      -1.168  14.251  20.072  0.00  0.00    +0.000 C 
ATOM      5  C   UNL     1      -1.901  13.160  20.893  0.00  0.00    +0.000 C 
ATOM      6  N   UNL     1      -2.344  13.739  22.172  0.00  0.00    +0.000 N 
ATOM      7  C   UNL     1      -1.237  14.281  22.987  0.00  0.00    +0.000 C 
ATOM      8  C   UNL     1      -0.467  15.344  22.177  0.00  0.00    +0.000 C 
ATOM      9  N   UNL     1       2.152  14.574  20.896  0.00  0.00    +0.000 NA
ATOM     10  C   UNL     1       3.445  14.797  20.534  0.00  0.00    +0.000 A 
ATOM     11  S   UNL     1       4.596  14.193  21.636  0.00  0.00    +0.000 S 
ATOM     12  N   UNL     1       3.702  15.545  19.339  0.00  0.00    +0.000 N 
ATOM     13  C   UNL     1       2.606  16.189  18.676  0.00  0.00    +0.000 A 
ATOM     14  C   UNL     1       2.886  16.901  17.370  0.00  0.00    +0.000 C 
ENDROOT
BRANCH   6  15
ATOM     15  C   UNL     1      -3.522  13.347  22.785  0.00  0.00    +0.000 A 
ATOM     16  C   UNL     1      -4.785  13.659  22.271  0.00  0.00    +0.000 A 
ATOM     17  C   UNL     1      -5.960  13.323  22.960  0.00  0.00    +0.000 A 
ATOM     18  C   UNL     1      -5.888  12.681  24.189  0.00  0.00    +0.000 A 
ATOM     19  C   UNL     1      -4.651  12.353  24.721  0.00  0.00    +0.000 A 
ATOM     20  C   UNL     1      -3.481  12.683  24.023  0.00  0.00    +0.000 A 
ENDBRANCH   6  15
BRANCH  12  21
ATOM     21  C   UNL     1       5.090  15.781  18.942  0.00  0.00    +0.000 A 
ATOM     22  C   UNL     1       5.794  14.875  18.131  0.00  0.00    +0.000 A 
ATOM     23  C   UNL     1       7.140  15.083  17.801  0.00  0.00    +0.000 A 
ATOM     24  C   UNL     1       7.786  16.248  18.203  0.00  0.00    +0.000 A 
ATOM     25  C   UNL     1       7.100  17.181  18.968  0.00  0.00    +0.000 A 
ATOM     26  C   UNL     1       5.783  16.929  19.371  0.00  0.00    +0.000 A 
ENDBRANCH  12  21
BRANCH   1  28
ATOM     27  C   UNL     1      -0.303  18.205  19.533  0.00  0.00    +0.000 C 
ATOM     28  C   UNL     1       0.158  17.002  18.765  0.00  0.00    +0.000 C 
ATOM     29  O   UNL     1      -0.523  16.677  17.784  0.00  0.00    +0.000 OA
ENDBRANCH   1  28
TORSDOF 3
ENDMDL
