MODEL 1
REMARK VINA RESULT:      -6.8      0.000      0.000
REMARK  Name = 
REMARK  4 active torsions:
REMARK  status: ('A' for Active; 'I' for Inactive)
REMARK    1  A    between atoms: C_1  and  C_2
REMARK    2  A    between atoms: C_2  and  C_3
REMARK    3  A    between atoms: N_4  and  N_5
REMARK    4  A    between atoms: C_9  and  C_11
REMARK                            x       y       z     vdW  Elec       q    Type
REMARK                         _______ _______ _______ _____ _____    ______ ____
ROOT
ATOM      1  C   UNL     1       4.427   2.969  17.200  0.00  0.00    +0.000 C 
ATOM      2  C   UNL     1       4.329   4.470  17.092  0.00  0.00    +0.000 C 
ATOM      3  C   UNL     1       3.502   5.212  17.857  0.00  0.00    +0.000 C 
ATOM      4 CL   UNL     1       3.357   6.938  17.743  0.00  0.00    +0.000 Cl
ENDROOT
BRANCH   3   5
ATOM      5  C   UNL     1       2.640   4.620  18.897  0.00  0.00    +0.000 A 
ATOM      6  C   UNL     1       1.510   3.873  18.538  0.00  0.00    +0.000 A 
ATOM      7  C   UNL     1       0.699   3.301  19.521  0.00  0.00    +0.000 A 
ATOM      8  C   UNL     1       1.007   3.474  20.870  0.00  0.00    +0.000 A 
ATOM      9  C   UNL     1       2.125   4.222  21.238  0.00  0.00    +0.000 A 
ATOM     10  C   UNL     1       2.940   4.794  20.256  0.00  0.00    +0.000 A 
ENDBRANCH   3   5
BRANCH   2  11
ATOM     11  C   UNL     1       5.216   5.105  16.068  0.00  0.00    +0.000 C 
ATOM     12  N   UNL     1       6.455   4.760  15.926  0.00  0.00    +0.000 NA
BRANCH  12  13
ATOM     13  N   UNL     1       7.170   5.418  14.967  0.00  0.00    +0.000 N 
ATOM     14  C   UNL     1       7.288   4.919  13.704  0.00  0.00    +0.000 C 
ATOM     15  N   UNL     1       6.696   3.851  13.289  0.00  0.00    +0.000 NA
ATOM     16  N   UNL     1       8.076   5.621  12.864  0.00  0.00    +0.000 N 
ATOM     17  H   UNL     1       7.902   6.068  15.236  0.00  0.00    +0.000 HD
ATOM     18  H   UNL     1       6.179   3.528  14.124  0.00  0.00    +0.000 HD
ATOM     19  H   UNL     1       7.871   6.612  12.848  0.00  0.00    +0.000 HD
ATOM     20  H   UNL     1       7.971   5.231  11.930  0.00  0.00    +0.000 HD
ENDBRANCH  12  13
ENDBRANCH   2  11
TORSDOF 3
ENDMDL
MODEL 2
REMARK VINA RESULT:      -6.8      0.105      1.212
REMARK  Name = 
REMARK  4 active torsions:
REMARK  status: ('A' for Active; 'I' for Inactive)
REMARK    1  A    between atoms: C_1  and  C_2
REMARK    2  A    between atoms: C_2  and  C_3
REMARK    3  A    between atoms: N_4  and  N_5
REMARK    4  A    between atoms: C_9  and  C_11
REMARK                            x       y       z     vdW  Elec       q    Type
REMARK                         _______ _______ _______ _____ _____    ______ ____
ROOT
ATOM      1  C   UNL     1       4.545   2.998  17.289  0.00  0.00    +0.000 C 
ATOM      2  C   UNL     1       4.393   4.495  17.181  0.00  0.00    +0.000 C 
ATOM      3  C   UNL     1       3.514   5.201  17.921  0.00  0.00    +0.000 C 
ATOM      4 CL   UNL     1       3.305   6.921  17.807  0.00  0.00    +0.000 Cl
ENDROOT
BRANCH   3   5
ATOM      5  C   UNL     1       2.644   4.573  18.933  0.00  0.00    +0.000 A 
ATOM      6  C   UNL     1       2.928   4.719  20.298  0.00  0.00    +0.000 A 
ATOM      7  C   UNL     1       2.099   4.136  21.259  0.00  0.00    +0.000 A 
ATOM      8  C   UNL     1       0.982   3.400  20.865  0.00  0.00    +0.000 A 
ATOM      9  C   UNL     1       0.694   3.244  19.510  0.00  0.00    +0.000 A 
ATOM     10  C   UNL     1       1.521   3.827  18.546  0.00  0.00    +0.000 A 
ENDBRANCH   3   5
BRANCH   2  11
ATOM     11  C   UNL     1       5.286   5.168  16.188  0.00  0.00    +0.000 C 
ATOM     12  N   UNL     1       6.407   4.643  15.809  0.00  0.00    +0.000 NA
BRANCH  12  13
ATOM     13  N   UNL     1       7.144   5.355  14.906  0.00  0.00    +0.000 N 
ATOM     14  C   UNL     1       7.316   4.914  13.627  0.00  0.00    +0.000 C 
ATOM     15  N   UNL     1       6.759   3.855  13.146  0.00  0.00    +0.000 NA
ATOM     16  N   UNL     1       8.121   5.666  12.849  0.00  0.00    +0.000 N 
ATOM     17  H   UNL     1       7.854   6.004  15.230  0.00  0.00    +0.000 HD
ATOM     18  H   UNL     1       6.218   3.488  13.945  0.00  0.00    +0.000 HD
ATOM     19  H   UNL     1       7.898   6.652  12.868  0.00  0.00    +0.000 HD
ATOM     20  H   UNL     1       8.057   5.315  11.895  0.00  0.00    +0.000 HD
ENDBRANCH  12  13
ENDBRANCH   2  11
TORSDOF 3
ENDMDL
MODEL 3
REMARK VINA RESULT:      -6.7      1.252      1.327
REMARK  Name = 
REMARK  4 active torsions:
REMARK  status: ('A' for Active; 'I' for Inactive)
REMARK    1  A    between atoms: C_1  and  C_2
REMARK    2  A    between atoms: C_2  and  C_3
REMARK    3  A    between atoms: N_4  and  N_5
REMARK    4  A    between atoms: C_9  and  C_11
REMARK                            x       y       z     vdW  Elec       q    Type
REMARK                         _______ _______ _______ _____ _____    ______ ____
ROOT
ATOM      1  C   UNL     1       3.015   3.614  16.725  0.00  0.00    +0.000 C 
ATOM      2  C   UNL     1       4.088   4.466  17.359  0.00  0.00    +0.000 C 
ATOM      3  C   UNL     1       4.174   4.672  18.689  0.00  0.00    +0.000 C 
ATOM      4 CL   UNL     1       5.385   5.659  19.444  0.00  0.00    +0.000 Cl
ENDROOT
BRANCH   3   5
ATOM      5  C   UNL     1       3.244   4.051  19.650  0.00  0.00    +0.000 A 
ATOM      6  C   UNL     1       1.951   4.568  19.818  0.00  0.00    +0.000 A 
ATOM      7  C   UNL     1       1.064   3.974  20.719  0.00  0.00    +0.000 A 
ATOM      8  C   UNL     1       1.460   2.863  21.462  0.00  0.00    +0.000 A 
ATOM      9  C   UNL     1       2.746   2.345  21.307  0.00  0.00    +0.000 A 
ATOM     10  C   UNL     1       3.636   2.936  20.405  0.00  0.00    +0.000 A 
ENDBRANCH   3   5
BRANCH   2  11
ATOM     11  C   UNL     1       5.068   5.083  16.414  0.00  0.00    +0.000 C 
ATOM     12  N   UNL     1       6.252   4.590  16.235  0.00  0.00    +0.000 NA
BRANCH  12  13
ATOM     13  N   UNL     1       7.065   5.247  15.356  0.00  0.00    +0.000 N 
ATOM     14  C   UNL     1       7.211   4.817  14.070  0.00  0.00    +0.000 C 
ATOM     15  N   UNL     1       6.563   3.826  13.560  0.00  0.00    +0.000 NA
ATOM     16  N   UNL     1       8.094   5.505  13.317  0.00  0.00    +0.000 N 
ATOM     17  H   UNL     1       7.828   5.819  15.702  0.00  0.00    +0.000 HD
ATOM     18  H   UNL     1       5.979   3.495  14.346  0.00  0.00    +0.000 HD
ATOM     19  H   UNL     1       7.965   6.508  13.355  0.00  0.00    +0.000 HD
ATOM     20  H   UNL     1       8.010   5.181  12.356  0.00  0.00    +0.000 HD
ENDBRANCH  12  13
ENDBRANCH   2  11
TORSDOF 3
ENDMDL
MODEL 4
REMARK VINA RESULT:      -6.7      1.527      1.783
REMARK  Name = 
REMARK  4 active torsions:
REMARK  status: ('A' for Active; 'I' for Inactive)
REMARK    1  A    between atoms: C_1  and  C_2
REMARK    2  A    between atoms: C_2  and  C_3
REMARK    3  A    between atoms: N_4  and  N_5
REMARK    4  A    between atoms: C_9  and  C_11
REMARK                            x       y       z     vdW  Elec       q    Type
REMARK                         _______ _______ _______ _____ _____    ______ ____
ROOT
ATOM      1  C   UNL     1       5.839   5.440  19.392  0.00  0.00    +0.000 C 
ATOM      2  C   UNL     1       5.166   5.032  18.105  0.00  0.00    +0.000 C 
ATOM      3  C   UNL     1       4.024   4.315  18.067  0.00  0.00    +0.000 C 
ATOM      4 CL   UNL     1       3.236   3.817  16.603  0.00  0.00    +0.000 Cl
ENDROOT
BRANCH   3   5
ATOM      5  C   UNL     1       3.311   3.893  19.287  0.00  0.00    +0.000 A 
ATOM      6  C   UNL     1       3.729   2.757  19.993  0.00  0.00    +0.000 A 
ATOM      7  C   UNL     1       3.063   2.362  21.157  0.00  0.00    +0.000 A 
ATOM      8  C   UNL     1       1.972   3.096  21.620  0.00  0.00    +0.000 A 
ATOM      9  C   UNL     1       1.544   4.223  20.921  0.00  0.00    +0.000 A 
ATOM     10  C   UNL     1       2.209   4.622  19.758  0.00  0.00    +0.000 A 
ENDBRANCH   3   5
BRANCH   2  11
ATOM     11  C   UNL     1       5.846   5.473  16.849  0.00  0.00    +0.000 C 
ATOM     12  N   UNL     1       6.841   4.818  16.342  0.00  0.00    +0.000 NA
BRANCH  12  13
ATOM     13  N   UNL     1       7.390   5.323  15.198  0.00  0.00    +0.000 N 
ATOM     14  C   UNL     1       7.150   4.752  13.984  0.00  0.00    +0.000 C 
ATOM     15  N   UNL     1       6.350   3.757  13.798  0.00  0.00    +0.000 NA
ATOM     16  N   UNL     1       7.803   5.296  12.937  0.00  0.00    +0.000 N 
ATOM     17  H   UNL     1       8.239   5.878  15.246  0.00  0.00    +0.000 HD
ATOM     18  H   UNL     1       6.004   3.550  14.750  0.00  0.00    +0.000 HD
ATOM     19  H   UNL     1       7.724   6.304  12.889  0.00  0.00    +0.000 HD
ATOM     20  H   UNL     1       7.437   4.879  12.084  0.00  0.00    +0.000 HD
ENDBRANCH  12  13
ENDBRANCH   2  11
TORSDOF 3
ENDMDL
MODEL 5
REMARK VINA RESULT:      -6.7      1.210      1.452
REMARK  Name = 
REMARK  4 active torsions:
REMARK  status: ('A' for Active; 'I' for Inactive)
REMARK    1  A    between atoms: C_1  and  C_2
REMARK    2  A    between atoms: C_2  and  C_3
REMARK    3  A    between atoms: N_4  and  N_5
REMARK    4  A    between atoms: C_9  and  C_11
REMARK                            x       y       z     vdW  Elec       q    Type
REMARK                         _______ _______ _______ _____ _____    ______ ____
ROOT
ATOM      1  C   UNL     1       3.214   3.270  16.754  0.00  0.00    +0.000 C 
ATOM      2  C   UNL     1       4.132   4.301  17.362  0.00  0.00    +0.000 C 
ATOM      3  C   UNL     1       4.100   4.636  18.668  0.00  0.00    +0.000 C 
ATOM      4 CL   UNL     1       5.131   5.830  19.392  0.00  0.00    +0.000 Cl
ENDROOT
BRANCH   3   5
ATOM      5  C   UNL     1       3.185   3.994  19.630  0.00  0.00    +0.000 A 
ATOM      6  C   UNL     1       3.605   2.877  20.366  0.00  0.00    +0.000 A 
ATOM      7  C   UNL     1       2.744   2.274  21.288  0.00  0.00    +0.000 A 
ATOM      8  C   UNL     1       1.459   2.779  21.478  0.00  0.00    +0.000 A 
ATOM      9  C   UNL     1       1.030   3.885  20.745  0.00  0.00    +0.000 A 
ATOM     10  C   UNL     1       1.889   4.491  19.824  0.00  0.00    +0.000 A 
ENDBRANCH   3   5
BRANCH   2  11
ATOM     11  C   UNL     1       5.096   4.948  16.419  0.00  0.00    +0.000 C 
ATOM     12  N   UNL     1       6.299   4.499  16.255  0.00  0.00    +0.000 NA
BRANCH  12  13
ATOM     13  N   UNL     1       7.094   5.178  15.376  0.00  0.00    +0.000 N 
ATOM     14  C   UNL     1       7.199   4.794  14.073  0.00  0.00    +0.000 C 
ATOM     15  N   UNL     1       6.524   3.829  13.546  0.00  0.00    +0.000 NA
ATOM     16  N   UNL     1       8.067   5.499  13.319  0.00  0.00    +0.000 N 
ATOM     17  H   UNL     1       7.873   5.730  15.720  0.00  0.00    +0.000 HD
ATOM     18  H   UNL     1       5.960   3.476  14.336  0.00  0.00    +0.000 HD
ATOM     19  H   UNL     1       7.950   6.501  13.397  0.00  0.00    +0.000 HD
ATOM     20  H   UNL     1       7.951   5.211  12.350  0.00  0.00    +0.000 HD
ENDBRANCH  12  13
ENDBRANCH   2  11
TORSDOF 3
ENDMDL
MODEL 6
REMARK VINA RESULT:      -6.6      1.430      1.999
REMARK  Name = 
REMARK  4 active torsions:
REMARK  status: ('A' for Active; 'I' for Inactive)
REMARK    1  A    between atoms: C_1  and  C_2
REMARK    2  A    between atoms: C_2  and  C_3
REMARK    3  A    between atoms: N_4  and  N_5
REMARK    4  A    between atoms: C_9  and  C_11
REMARK                            x       y       z     vdW  Elec       q    Type
REMARK                         _______ _______ _______ _____ _____    ______ ____
ROOT
ATOM      1  C   UNL     1       3.641   6.491  18.488  0.00  0.00    +0.000 C 
ATOM      2  C   UNL     1       4.133   5.333  17.656  0.00  0.00    +0.000 C 
ATOM      3  C   UNL     1       3.809   4.050  17.915  0.00  0.00    +0.000 C 
ATOM      4 CL   UNL     1       4.373   2.697  16.986  0.00  0.00    +0.000 Cl
ENDROOT
BRANCH   3   5
ATOM      5  C   UNL     1       2.910   3.666  19.019  0.00  0.00    +0.000 A 
ATOM      6  C   UNL     1       3.437   3.157  20.215  0.00  0.00    +0.000 A 
ATOM      7  C   UNL     1       2.589   2.804  21.268  0.00  0.00    +0.000 A 
ATOM      8  C   UNL     1       1.209   2.953  21.133  0.00  0.00    +0.000 A 
ATOM      9  C   UNL     1       0.675   3.451  19.946  0.00  0.00    +0.000 A 
ATOM     10  C   UNL     1       1.521   3.807  18.891  0.00  0.00    +0.000 A 
ENDBRANCH   3   5
BRANCH   2  11
ATOM     11  C   UNL     1       5.020   5.692  16.506  0.00  0.00    +0.000 C 
ATOM     12  N   UNL     1       6.241   5.268  16.425  0.00  0.00    +0.000 NA
BRANCH  12  13
ATOM     13  N   UNL     1       6.959   5.670  15.335  0.00  0.00    +0.000 N 
ATOM     14  C   UNL     1       7.058   4.888  14.223  0.00  0.00    +0.000 C 
ATOM     15  N   UNL     1       6.445   3.764  14.072  0.00  0.00    +0.000 NA
ATOM     16  N   UNL     1       7.852   5.360  13.240  0.00  0.00    +0.000 N 
ATOM     17  H   UNL     1       7.704   6.352  15.443  0.00  0.00    +0.000 HD
ATOM     18  H   UNL     1       5.929   3.655  14.961  0.00  0.00    +0.000 HD
ATOM     19  H   UNL     1       7.663   6.323  12.994  0.00  0.00    +0.000 HD
ATOM     20  H   UNL     1       7.733   4.764  12.423  0.00  0.00    +0.000 HD
ENDBRANCH  12  13
ENDBRANCH   2  11
TORSDOF 3
ENDMDL
MODEL 7
REMARK VINA RESULT:      -6.6      1.458      1.733
REMARK  Name = 
REMARK  4 active torsions:
REMARK  status: ('A' for Active; 'I' for Inactive)
REMARK    1  A    between atoms: C_1  and  C_2
REMARK    2  A    between atoms: C_2  and  C_3
REMARK    3  A    between atoms: N_4  and  N_5
REMARK    4  A    between atoms: C_9  and  C_11
REMARK                            x       y       z     vdW  Elec       q    Type
REMARK                         _______ _______ _______ _____ _____    ______ ____
ROOT
ATOM      1  C   UNL     1       3.496   6.506  18.596  0.00  0.00    +0.000 C 
ATOM      2  C   UNL     1       4.061   5.357  17.797  0.00  0.00    +0.000 C 
ATOM      3  C   UNL     1       3.776   4.066  18.061  0.00  0.00    +0.000 C 
ATOM      4 CL   UNL     1       4.424   2.724  17.170  0.00  0.00    +0.000 Cl
ENDROOT
BRANCH   3   5
ATOM      5  C   UNL     1       2.854   3.661  19.139  0.00  0.00    +0.000 A 
ATOM      6  C   UNL     1       1.469   3.658  18.919  0.00  0.00    +0.000 A 
ATOM      7  C   UNL     1       0.594   3.263  19.934  0.00  0.00    +0.000 A 
ATOM      8  C   UNL     1       1.093   2.872  21.176  0.00  0.00    +0.000 A 
ATOM      9  C   UNL     1       2.468   2.878  21.406  0.00  0.00    +0.000 A 
ATOM     10  C   UNL     1       3.347   3.271  20.392  0.00  0.00    +0.000 A 
ENDBRANCH   3   5
BRANCH   2  11
ATOM     11  C   UNL     1       4.974   5.736  16.674  0.00  0.00    +0.000 C 
ATOM     12  N   UNL     1       6.208   5.345  16.633  0.00  0.00    +0.000 NA
BRANCH  12  13
ATOM     13  N   UNL     1       6.949   5.763  15.565  0.00  0.00    +0.000 N 
ATOM     14  C   UNL     1       7.122   4.972  14.469  0.00  0.00    +0.000 C 
ATOM     15  N   UNL     1       6.561   3.821  14.312  0.00  0.00    +0.000 NA
ATOM     16  N   UNL     1       7.931   5.464  13.509  0.00  0.00    +0.000 N 
ATOM     17  H   UNL     1       7.660   6.477  15.690  0.00  0.00    +0.000 HD
ATOM     18  H   UNL     1       6.017   3.702  15.182  0.00  0.00    +0.000 HD
ATOM     19  H   UNL     1       7.712   6.415  13.242  0.00  0.00    +0.000 HD
ATOM     20  H   UNL     1       7.867   4.853  12.697  0.00  0.00    +0.000 HD
ENDBRANCH  12  13
ENDBRANCH   2  11
TORSDOF 3
ENDMDL
MODEL 8
REMARK VINA RESULT:      -6.6      1.533      1.708
REMARK  Name = 
REMARK  4 active torsions:
REMARK  status: ('A' for Active; 'I' for Inactive)
REMARK    1  A    between atoms: C_1  and  C_2
REMARK    2  A    between atoms: C_2  and  C_3
REMARK    3  A    between atoms: N_4  and  N_5
REMARK    4  A    between atoms: C_9  and  C_11
REMARK                            x       y       z     vdW  Elec       q    Type
REMARK                         _______ _______ _______ _____ _____    ______ ____
ROOT
ATOM      1  C   UNL     1       5.713   5.439  19.316  0.00  0.00    +0.000 C 
ATOM      2  C   UNL     1       5.026   4.980  18.054  0.00  0.00    +0.000 C 
ATOM      3  C   UNL     1       3.898   4.240  18.058  0.00  0.00    +0.000 C 
ATOM      4 CL   UNL     1       3.095   3.683  16.624  0.00  0.00    +0.000 Cl
ENDROOT
BRANCH   3   5
ATOM      5  C   UNL     1       3.213   3.843  19.303  0.00  0.00    +0.000 A 
ATOM      6  C   UNL     1       2.089   4.552  19.747  0.00  0.00    +0.000 A 
ATOM      7  C   UNL     1       1.430   4.170  20.919  0.00  0.00    +0.000 A 
ATOM      8  C   UNL     1       1.892   3.082  21.658  0.00  0.00    +0.000 A 
ATOM      9  C   UNL     1       3.014   2.374  21.227  0.00  0.00    +0.000 A 
ATOM     10  C   UNL     1       3.674   2.752  20.054  0.00  0.00    +0.000 A 
ENDBRANCH   3   5
BRANCH   2  11
ATOM     11  C   UNL     1       5.676   5.395  16.773  0.00  0.00    +0.000 C 
ATOM     12  N   UNL     1       6.889   5.050  16.477  0.00  0.00    +0.000 NA
BRANCH  12  13
ATOM     13  N   UNL     1       7.381   5.498  15.285  0.00  0.00    +0.000 N 
ATOM     14  C   UNL     1       7.162   4.815  14.126  0.00  0.00    +0.000 C 
ATOM     15  N   UNL     1       6.433   3.754  14.038  0.00  0.00    +0.000 NA
ATOM     16  N   UNL     1       7.756   5.317  13.025  0.00  0.00    +0.000 N 
ATOM     17  H   UNL     1       8.188   6.113  15.269  0.00  0.00    +0.000 HD
ATOM     18  H   UNL     1       6.119   3.601  15.010  0.00  0.00    +0.000 HD
ATOM     19  H   UNL     1       7.604   6.309  12.898  0.00  0.00    +0.000 HD
ATOM     20  H   UNL     1       7.407   4.807  12.216  0.00  0.00    +0.000 HD
ENDBRANCH  12  13
ENDBRANCH   2  11
TORSDOF 3
ENDMDL
MODEL 9
REMARK VINA RESULT:      -6.5      1.481      1.791
REMARK  Name = 
REMARK  4 active torsions:
REMARK  status: ('A' for Active; 'I' for Inactive)
REMARK    1  A    between atoms: C_1  and  C_2
REMARK    2  A    between atoms: C_2  and  C_3
REMARK    3  A    between atoms: N_4  and  N_5
REMARK    4  A    between atoms: C_9  and  C_11
REMARK                            x       y       z     vdW  Elec       q    Type
REMARK                         _______ _______ _______ _____ _____    ______ ____
ROOT
ATOM      1  C   UNL     1       2.661   3.141  16.796  0.00  0.00    +0.000 C 
ATOM      2  C   UNL     1       3.895   3.925  17.166  0.00  0.00    +0.000 C 
ATOM      3  C   UNL     1       4.194   4.272  18.434  0.00  0.00    +0.000 C 
ATOM      4 CL   UNL     1       5.597   5.188  18.888  0.00  0.00    +0.000 Cl
ENDROOT
BRANCH   3   5
ATOM      5  C   UNL     1       3.355   3.882  19.583  0.00  0.00    +0.000 A 
ATOM      6  C   UNL     1       2.237   4.652  19.935  0.00  0.00    +0.000 A 
ATOM      7  C   UNL     1       1.432   4.278  21.014  0.00  0.00    +0.000 A 
ATOM      8  C   UNL     1       1.740   3.136  21.752  0.00  0.00    +0.000 A 
ATOM      9  C   UNL     1       2.853   2.368  21.415  0.00  0.00    +0.000 A 
ATOM     10  C   UNL     1       3.659   2.738  20.334  0.00  0.00    +0.000 A 
ENDBRANCH   3   5
BRANCH   2  11
ATOM     11  C   UNL     1       4.786   4.308  16.027  0.00  0.00    +0.000 C 
ATOM     12  N   UNL     1       5.828   3.609  15.707  0.00  0.00    +0.000 NA
BRANCH  12  13
ATOM     13  N   UNL     1       6.573   4.062  14.657  0.00  0.00    +0.000 N 
ATOM     14  C   UNL     1       7.346   5.180  14.766  0.00  0.00    +0.000 C 
ATOM     15  N   UNL     1       7.497   5.852  15.858  0.00  0.00    +0.000 NA
ATOM     16  N   UNL     1       7.981   5.570  13.642  0.00  0.00    +0.000 N 
ATOM     17  H   UNL     1       6.311   3.819  13.707  0.00  0.00    +0.000 HD
ATOM     18  H   UNL     1       6.906   5.340  16.534  0.00  0.00    +0.000 HD
ATOM     19  H   UNL     1       8.483   4.822  13.180  0.00  0.00    +0.000 HD
ATOM     20  H   UNL     1       8.624   6.320  13.885  0.00  0.00    +0.000 HD
ENDBRANCH  12  13
ENDBRANCH   2  11
TORSDOF 3
ENDMDL
