MODEL 1
REMARK VINA RESULT:      -9.9      0.000      0.000
REMARK  Name = 
REMARK  5 active torsions:
REMARK  status: ('A' for Active; 'I' for Inactive)
REMARK    1  A    between atoms: C_1  and  N_2
REMARK    2  A    between atoms: N_5  and  C_6
REMARK    3  A    between atoms: C_9  and  N_10
REMARK    4  A    between atoms: N_10  and  C_11
REMARK    5  A    between atoms: C_25  and  C_26
REMARK                            x       y       z     vdW  Elec       q    Type
REMARK                         _______ _______ _______ _____ _____    ______ ____
ROOT
ATOM      1  N   UNL     1       2.923   7.143  19.494  0.00  0.00    +0.000 N 
ATOM      2  H   UNL     1       3.183   7.160  20.475  0.00  0.00    +0.000 HD
ENDROOT
BRANCH   1   3
ATOM      3  C   UNL     1       3.078   5.862  18.865  0.00  0.00    +0.000 A 
ATOM      4  C   UNL     1       2.487   4.694  19.450  0.00  0.00    +0.000 A 
ATOM      5  C   UNL     1       1.616   4.693  20.574  0.00  0.00    +0.000 A 
ATOM      6  C   UNL     1       1.237   3.515  21.214  0.00  0.00    +0.000 A 
ATOM      7  C   UNL     1       1.642   2.302  20.688  0.00  0.00    +0.000 A 
ATOM      8  C   UNL     1       2.394   2.285  19.512  0.00  0.00    +0.000 A 
ATOM      9  C   UNL     1       2.824   3.452  18.891  0.00  0.00    +0.000 A 
ATOM     10  N   UNL     1       3.581   3.327  17.796  0.00  0.00    +0.000 NA
ATOM     11  C   UNL     1       4.118   4.414  17.228  0.00  0.00    +0.000 A 
ATOM     12  C   UNL     1       4.916   4.208  16.118  0.00  0.00    +0.000 A 
ATOM     13  C   UNL     1       5.586   5.249  15.479  0.00  0.00    +0.000 A 
ATOM     14  C   UNL     1       5.451   6.542  15.970  0.00  0.00    +0.000 A 
ATOM     15  C   UNL     1       4.632   6.775  17.077  0.00  0.00    +0.000 A 
ATOM     16  C   UNL     1       3.932   5.720  17.727  0.00  0.00    +0.000 A 
ENDBRANCH   1   3
BRANCH   1  20
ATOM     17  C   UNL     1       0.108  10.192  18.563  0.00  0.00    +0.000 A 
ATOM     18  C   UNL     1       0.963   9.685  17.593  0.00  0.00    +0.000 A 
ATOM     19  C   UNL     1       1.843   8.653  17.900  0.00  0.00    +0.000 A 
ATOM     20  C   UNL     1       1.958   8.142  19.200  0.00  0.00    +0.000 A 
ATOM     21  C   UNL     1       1.166   8.720  20.213  0.00  0.00    +0.000 A 
ATOM     22  C   UNL     1       1.228   8.279  21.650  0.00  0.00    +0.000 C 
ATOM     23  C   UNL     1       0.237   9.734  19.878  0.00  0.00    +0.000 A 
BRANCH  17  28
ATOM     24  C   UNL     1      -4.312  11.665  17.154  0.00  0.00    +0.000 C 
ATOM     25  N   UNL     1      -2.965  11.883  17.624  0.00  0.00    +0.000 N 
ATOM     26  C   UNL     1      -2.160  10.775  17.788  0.00  0.00    +0.000 C 
ATOM     27  O   UNL     1      -2.575   9.644  17.570  0.00  0.00    +0.000 OA
ATOM     28  N   UNL     1      -0.908  11.121  18.255  0.00  0.00    +0.000 N 
ATOM     29  H   UNL     1      -2.496  12.721  17.318  0.00  0.00    +0.000 HD
ATOM     30  H   UNL     1      -0.847  12.029  18.691  0.00  0.00    +0.000 HD
ENDBRANCH  17  28
ENDBRANCH   1  20
TORSDOF 3
ENDMDL
MODEL 2
REMARK VINA RESULT:      -9.8      0.412      3.487
REMARK  Name = 
REMARK  5 active torsions:
REMARK  status: ('A' for Active; 'I' for Inactive)
REMARK    1  A    between atoms: C_1  and  N_2
REMARK    2  A    between atoms: N_5  and  C_6
REMARK    3  A    between atoms: C_9  and  N_10
REMARK    4  A    between atoms: N_10  and  C_11
REMARK    5  A    between atoms: C_25  and  C_26
REMARK                            x       y       z     vdW  Elec       q    Type
REMARK                         _______ _______ _______ _____ _____    ______ ____
ROOT
ATOM      1  N   UNL     1       2.974   7.006  19.619  0.00  0.00    +0.000 N 
ATOM      2  H   UNL     1       3.118   6.974  20.623  0.00  0.00    +0.000 HD
ENDROOT
BRANCH   1   3
ATOM      3  C   UNL     1       3.213   5.758  18.950  0.00  0.00    +0.000 A 
ATOM      4  C   UNL     1       4.149   5.688  17.866  0.00  0.00    +0.000 A 
ATOM      5  C   UNL     1       4.998   6.749  17.448  0.00  0.00    +0.000 A 
ATOM      6  C   UNL     1       5.737   6.683  16.268  0.00  0.00    +0.000 A 
ATOM      7  C   UNL     1       5.719   5.517  15.527  0.00  0.00    +0.000 A 
ATOM      8  C   UNL     1       4.986   4.423  15.991  0.00  0.00    +0.000 A 
ATOM      9  C   UNL     1       4.203   4.490  17.138  0.00  0.00    +0.000 A 
ATOM     10  N   UNL     1       3.502   3.402  17.472  0.00  0.00    +0.000 NA
ATOM     11  C   UNL     1       2.643   3.450  18.497  0.00  0.00    +0.000 A 
ATOM     12  C   UNL     1       1.927   2.298  18.766  0.00  0.00    +0.000 A 
ATOM     13  C   UNL     1       0.955   2.241  19.763  0.00  0.00    +0.000 A 
ATOM     14  C   UNL     1       0.691   3.379  20.515  0.00  0.00    +0.000 A 
ATOM     15  C   UNL     1       1.418   4.547  20.275  0.00  0.00    +0.000 A 
ATOM     16  C   UNL     1       2.423   4.610  19.270  0.00  0.00    +0.000 A 
ENDBRANCH   1   3
BRANCH   1  20
ATOM     17  C   UNL     1       0.258  10.082  18.504  0.00  0.00    +0.000 A 
ATOM     18  C   UNL     1       1.124   9.520  17.576  0.00  0.00    +0.000 A 
ATOM     19  C   UNL     1       1.971   8.480  17.943  0.00  0.00    +0.000 A 
ATOM     20  C   UNL     1       2.042   8.016  19.264  0.00  0.00    +0.000 A 
ATOM     21  C   UNL     1       1.239   8.649  20.234  0.00  0.00    +0.000 A 
ATOM     22  C   UNL     1       1.254   8.260  21.688  0.00  0.00    +0.000 C 
ATOM     23  C   UNL     1       0.343   9.671  19.838  0.00  0.00    +0.000 A 
BRANCH  17  28
ATOM     24  C   UNL     1      -4.146  11.615  17.110  0.00  0.00    +0.000 C 
ATOM     25  N   UNL     1      -2.773  11.814  17.504  0.00  0.00    +0.000 N 
ATOM     26  C   UNL     1      -2.011  10.692  17.755  0.00  0.00    +0.000 C 
ATOM     27  O   UNL     1      -2.486   9.565  17.675  0.00  0.00    +0.000 OA
ATOM     28  N   UNL     1      -0.727  11.023  18.136  0.00  0.00    +0.000 N 
ATOM     29  H   UNL     1      -2.279  12.591  17.093  0.00  0.00    +0.000 HD
ATOM     30  H   UNL     1      -0.607  11.968  18.470  0.00  0.00    +0.000 HD
ENDBRANCH  17  28
ENDBRANCH   1  20
TORSDOF 3
ENDMDL
MODEL 3
REMARK VINA RESULT:      -9.2      1.794      1.854
REMARK  Name = 
REMARK  5 active torsions:
REMARK  status: ('A' for Active; 'I' for Inactive)
REMARK    1  A    between atoms: C_1  and  N_2
REMARK    2  A    between atoms: N_5  and  C_6
REMARK    3  A    between atoms: C_9  and  N_10
REMARK    4  A    between atoms: N_10  and  C_11
REMARK    5  A    between atoms: C_25  and  C_26
REMARK                            x       y       z     vdW  Elec       q    Type
REMARK                         _______ _______ _______ _____ _____    ______ ____
ROOT
ATOM      1  N   UNL     1       2.931   6.819  19.511  0.00  0.00    +0.000 N 
ATOM      2  H   UNL     1       2.977   6.621  20.504  0.00  0.00    +0.000 HD
ENDROOT
BRANCH   1   3
ATOM      3  C   UNL     1       3.040   5.659  18.672  0.00  0.00    +0.000 A 
ATOM      4  C   UNL     1       2.254   4.493  18.948  0.00  0.00    +0.000 A 
ATOM      5  C   UNL     1       1.237   4.406  19.938  0.00  0.00    +0.000 A 
ATOM      6  C   UNL     1       0.651   3.192  20.291  0.00  0.00    +0.000 A 
ATOM      7  C   UNL     1       0.998   2.049  19.596  0.00  0.00    +0.000 A 
ATOM      8  C   UNL     1       1.904   2.141  18.538  0.00  0.00    +0.000 A 
ATOM      9  C   UNL     1       2.537   3.335  18.208  0.00  0.00    +0.000 A 
ATOM     10  N   UNL     1       3.424   3.307  17.208  0.00  0.00    +0.000 NA
ATOM     11  C   UNL     1       4.146   4.399  16.927  0.00  0.00    +0.000 A 
ATOM     12  C   UNL     1       5.069   4.289  15.902  0.00  0.00    +0.000 A 
ATOM     13  C   UNL     1       5.927   5.333  15.559  0.00  0.00    +0.000 A 
ATOM     14  C   UNL     1       5.859   6.525  16.268  0.00  0.00    +0.000 A 
ATOM     15  C   UNL     1       4.919   6.664  17.291  0.00  0.00    +0.000 A 
ATOM     16  C   UNL     1       4.028   5.610  17.640  0.00  0.00    +0.000 A 
ENDBRANCH   1   3
BRANCH   1  20
ATOM     17  C   UNL     1       0.821  10.425  18.719  0.00  0.00    +0.000 A 
ATOM     18  C   UNL     1       1.748   9.924  17.815  0.00  0.00    +0.000 A 
ATOM     19  C   UNL     1       2.394   8.718  18.064  0.00  0.00    +0.000 A 
ATOM     20  C   UNL     1       2.197   8.007  19.256  0.00  0.00    +0.000 A 
ATOM     21  C   UNL     1       1.333   8.559  20.224  0.00  0.00    +0.000 A 
ATOM     22  C   UNL     1       1.070   7.905  21.553  0.00  0.00    +0.000 C 
ATOM     23  C   UNL     1       0.643   9.761  19.937  0.00  0.00    +0.000 A 
BRANCH  17  28
ATOM     24  C   UNL     1      -0.382  15.142  18.708  0.00  0.00    +0.000 C 
ATOM     25  N   UNL     1      -0.587  13.754  18.369  0.00  0.00    +0.000 N 
ATOM     26  C   UNL     1       0.333  12.840  18.839  0.00  0.00    +0.000 C 
ATOM     27  O   UNL     1       1.305  13.190  19.496  0.00  0.00    +0.000 OA
ATOM     28  N   UNL     1       0.028  11.557  18.431  0.00  0.00    +0.000 N 
ATOM     29  H   UNL     1      -1.539  13.425  18.314  0.00  0.00    +0.000 HD
ATOM     30  H   UNL     1      -0.594  11.492  17.639  0.00  0.00    +0.000 HD
ENDBRANCH  17  28
ENDBRANCH   1  20
TORSDOF 3
ENDMDL
MODEL 4
REMARK VINA RESULT:      -9.0      1.806      3.889
REMARK  Name = 
REMARK  5 active torsions:
REMARK  status: ('A' for Active; 'I' for Inactive)
REMARK    1  A    between atoms: C_1  and  N_2
REMARK    2  A    between atoms: N_5  and  C_6
REMARK    3  A    between atoms: C_9  and  N_10
REMARK    4  A    between atoms: N_10  and  C_11
REMARK    5  A    between atoms: C_25  and  C_26
REMARK                            x       y       z     vdW  Elec       q    Type
REMARK                         _______ _______ _______ _____ _____    ______ ____
ROOT
ATOM      1  N   UNL     1       3.065   6.701  19.644  0.00  0.00    +0.000 N 
ATOM      2  H   UNL     1       3.075   6.527  20.644  0.00  0.00    +0.000 HD
ENDROOT
BRANCH   1   3
ATOM      3  C   UNL     1       3.234   5.523  18.840  0.00  0.00    +0.000 A 
ATOM      4  C   UNL     1       4.196   5.505  17.779  0.00  0.00    +0.000 A 
ATOM      5  C   UNL     1       5.135   6.538  17.507  0.00  0.00    +0.000 A 
ATOM      6  C   UNL     1       5.905   6.551  16.347  0.00  0.00    +0.000 A 
ATOM      7  C   UNL     1       5.826   5.482  15.474  0.00  0.00    +0.000 A 
ATOM      8  C   UNL     1       5.000   4.401  15.790  0.00  0.00    +0.000 A 
ATOM      9  C   UNL     1       4.186   4.397  16.918  0.00  0.00    +0.000 A 
ATOM     10  N   UNL     1       3.397   3.335  17.106  0.00  0.00    +0.000 NA
ATOM     11  C   UNL     1       2.510   3.332  18.109  0.00  0.00    +0.000 A 
ATOM     12  C   UNL     1       1.703   2.215  18.225  0.00  0.00    +0.000 A 
ATOM     13  C   UNL     1       0.697   2.120  19.184  0.00  0.00    +0.000 A 
ATOM     14  C   UNL     1       0.493   3.182  20.057  0.00  0.00    +0.000 A 
ATOM     15  C   UNL     1       1.312   4.310  19.972  0.00  0.00    +0.000 A 
ATOM     16  C   UNL     1       2.351   4.410  19.005  0.00  0.00    +0.000 A 
ENDBRANCH   1   3
BRANCH   1  20
ATOM     17  C   UNL     1       0.911  10.237  18.675  0.00  0.00    +0.000 A 
ATOM     18  C   UNL     1       1.863   9.717  17.807  0.00  0.00    +0.000 A 
ATOM     19  C   UNL     1       2.523   8.532  18.115  0.00  0.00    +0.000 A 
ATOM     20  C   UNL     1       2.316   7.865  19.330  0.00  0.00    +0.000 A 
ATOM     21  C   UNL     1       1.426   8.440  20.260  0.00  0.00    +0.000 A 
ATOM     22  C   UNL     1       1.150   7.833  21.609  0.00  0.00    +0.000 C 
ATOM     23  C   UNL     1       0.722   9.618  19.914  0.00  0.00    +0.000 A 
BRANCH  17  28
ATOM     24  C   UNL     1      -0.474  14.903  18.622  0.00  0.00    +0.000 C 
ATOM     25  N   UNL     1      -0.588  13.515  18.242  0.00  0.00    +0.000 N 
ATOM     26  C   UNL     1       0.317  12.628  18.785  0.00  0.00    +0.000 C 
ATOM     27  O   UNL     1       1.206  13.002  19.541  0.00  0.00    +0.000 OA
ATOM     28  N   UNL     1       0.106  11.343  18.328  0.00  0.00    +0.000 N 
ATOM     29  H   UNL     1      -1.516  13.151  18.088  0.00  0.00    +0.000 HD
ATOM     30  H   UNL     1      -0.432  11.271  17.478  0.00  0.00    +0.000 HD
ENDBRANCH  17  28
ENDBRANCH   1  20
TORSDOF 3
ENDMDL
MODEL 5
REMARK VINA RESULT:      -8.7      2.022      2.486
REMARK  Name = 
REMARK  5 active torsions:
REMARK  status: ('A' for Active; 'I' for Inactive)
REMARK    1  A    between atoms: C_1  and  N_2
REMARK    2  A    between atoms: N_5  and  C_6
REMARK    3  A    between atoms: C_9  and  N_10
REMARK    4  A    between atoms: N_10  and  C_11
REMARK    5  A    between atoms: C_25  and  C_26
REMARK                            x       y       z     vdW  Elec       q    Type
REMARK                         _______ _______ _______ _____ _____    ______ ____
ROOT
ATOM      1  N   UNL     1       3.101   6.795  19.747  0.00  0.00    +0.000 N 
ATOM      2  H   UNL     1       3.602   6.607  20.609  0.00  0.00    +0.000 HD
ENDROOT
BRANCH   1   3
ATOM      3  C   UNL     1       3.103   5.704  18.814  0.00  0.00    +0.000 A 
ATOM      4  C   UNL     1       2.243   4.576  19.020  0.00  0.00    +0.000 A 
ATOM      5  C   UNL     1       1.249   4.478  20.031  0.00  0.00    +0.000 A 
ATOM      6  C   UNL     1       0.586   3.284  20.304  0.00  0.00    +0.000 A 
ATOM      7  C   UNL     1       0.832   2.181  19.508  0.00  0.00    +0.000 A 
ATOM      8  C   UNL     1       1.714   2.297  18.432  0.00  0.00    +0.000 A 
ATOM      9  C   UNL     1       2.422   3.467  18.179  0.00  0.00    +0.000 A 
ATOM     10  N   UNL     1       3.278   3.461  17.152  0.00  0.00    +0.000 NA
ATOM     11  C   UNL     1       4.069   4.519  16.937  0.00  0.00    +0.000 A 
ATOM     12  C   UNL     1       4.954   4.432  15.878  0.00  0.00    +0.000 A 
ATOM     13  C   UNL     1       5.876   5.437  15.593  0.00  0.00    +0.000 A 
ATOM     14  C   UNL     1       5.912   6.569  16.398  0.00  0.00    +0.000 A 
ATOM     15  C   UNL     1       5.012   6.687  17.460  0.00  0.00    +0.000 A 
ATOM     16  C   UNL     1       4.058   5.673  17.750  0.00  0.00    +0.000 A 
ENDBRANCH   1   3
BRANCH   1  20
ATOM     17  C   UNL     1      -0.013   9.625  20.370  0.00  0.00    +0.000 A 
ATOM     18  C   UNL     1       0.292   8.670  21.332  0.00  0.00    +0.000 A 
ATOM     19  C   UNL     1       1.345   7.784  21.136  0.00  0.00    +0.000 A 
ATOM     20  C   UNL     1       2.083   7.765  19.944  0.00  0.00    +0.000 A 
ATOM     21  C   UNL     1       1.716   8.664  18.922  0.00  0.00    +0.000 A 
ATOM     22  C   UNL     1       2.412   8.712  17.588  0.00  0.00    +0.000 C 
ATOM     23  C   UNL     1       0.675   9.595  19.153  0.00  0.00    +0.000 A 
BRANCH  17  28
ATOM     24  C   UNL     1      -1.694  13.851  22.101  0.00  0.00    +0.000 C 
ATOM     25  N   UNL     1      -1.812  12.619  21.360  0.00  0.00    +0.000 N 
ATOM     26  C   UNL     1      -0.724  11.771  21.353  0.00  0.00    +0.000 C 
ATOM     27  O   UNL     1       0.318  12.062  21.929  0.00  0.00    +0.000 OA
ATOM     28  N   UNL     1      -0.963  10.642  20.598  0.00  0.00    +0.000 N 
ATOM     29  H   UNL     1      -2.714  12.168  21.348  0.00  0.00    +0.000 HD
ATOM     30  H   UNL     1      -1.721  10.719  19.936  0.00  0.00    +0.000 HD
ENDBRANCH  17  28
ENDBRANCH   1  20
TORSDOF 3
ENDMDL
MODEL 6
REMARK VINA RESULT:      -8.6      1.226      1.226
REMARK  Name = 
REMARK  5 active torsions:
REMARK  status: ('A' for Active; 'I' for Inactive)
REMARK    1  A    between atoms: C_1  and  N_2
REMARK    2  A    between atoms: N_5  and  C_6
REMARK    3  A    between atoms: C_9  and  N_10
REMARK    4  A    between atoms: N_10  and  C_11
REMARK    5  A    between atoms: C_25  and  C_26
REMARK                            x       y       z     vdW  Elec       q    Type
REMARK                         _______ _______ _______ _____ _____    ______ ____
ROOT
ATOM      1  N   UNL     1       2.960   7.148  19.475  0.00  0.00    +0.000 N 
ATOM      2  H   UNL     1       3.327   7.150  20.421  0.00  0.00    +0.000 HD
ENDROOT
BRANCH   1   3
ATOM      3  C   UNL     1       3.069   5.884  18.803  0.00  0.00    +0.000 A 
ATOM      4  C   UNL     1       2.442   4.718  19.352  0.00  0.00    +0.000 A 
ATOM      5  C   UNL     1       1.577   4.708  20.480  0.00  0.00    +0.000 A 
ATOM      6  C   UNL     1       1.161   3.523  21.083  0.00  0.00    +0.000 A 
ATOM      7  C   UNL     1       1.522   2.316  20.514  0.00  0.00    +0.000 A 
ATOM      8  C   UNL     1       2.269   2.312  19.335  0.00  0.00    +0.000 A 
ATOM      9  C   UNL     1       2.735   3.485  18.750  0.00  0.00    +0.000 A 
ATOM     10  N   UNL     1       3.482   3.371  17.647  0.00  0.00    +0.000 NA
ATOM     11  C   UNL     1       4.052   4.458  17.113  0.00  0.00    +0.000 A 
ATOM     12  C   UNL     1       4.839   4.262  15.992  0.00  0.00    +0.000 A 
ATOM     13  C   UNL     1       5.540   5.301  15.384  0.00  0.00    +0.000 A 
ATOM     14  C   UNL     1       5.451   6.581  15.919  0.00  0.00    +0.000 A 
ATOM     15  C   UNL     1       4.645   6.804  17.037  0.00  0.00    +0.000 A 
ATOM     16  C   UNL     1       3.913   5.752  17.656  0.00  0.00    +0.000 A 
ENDBRANCH   1   3
BRANCH   1  20
ATOM     17  C   UNL     1       0.002  10.156  18.932  0.00  0.00    +0.000 A 
ATOM     18  C   UNL     1       0.774   9.708  17.868  0.00  0.00    +0.000 A 
ATOM     19  C   UNL     1       1.702   8.689  18.050  0.00  0.00    +0.000 A 
ATOM     20  C   UNL     1       1.950   8.133  19.312  0.00  0.00    +0.000 A 
ATOM     21  C   UNL     1       1.243   8.650  20.417  0.00  0.00    +0.000 A 
ATOM     22  C   UNL     1       1.450   8.157  21.823  0.00  0.00    +0.000 C 
ATOM     23  C   UNL     1       0.264   9.652  20.210  0.00  0.00    +0.000 A 
BRANCH  17  28
ATOM     24  C   UNL     1      -3.371  13.386  20.300  0.00  0.00    +0.000 C 
ATOM     25  N   UNL     1      -2.647  12.607  19.325  0.00  0.00    +0.000 N 
ATOM     26  C   UNL     1      -1.683  11.738  19.791  0.00  0.00    +0.000 C 
ATOM     27  O   UNL     1      -1.428  11.646  20.986  0.00  0.00    +0.000 OA
ATOM     28  N   UNL     1      -1.058  11.070  18.758  0.00  0.00    +0.000 N 
ATOM     29  H   UNL     1      -3.152  12.300  18.508  0.00  0.00    +0.000 HD
ATOM     30  H   UNL     1      -1.150  11.499  17.849  0.00  0.00    +0.000 HD
ENDBRANCH  17  28
ENDBRANCH   1  20
TORSDOF 3
ENDMDL
MODEL 7
REMARK VINA RESULT:      -8.4      1.237      3.678
REMARK  Name = 
REMARK  5 active torsions:
REMARK  status: ('A' for Active; 'I' for Inactive)
REMARK    1  A    between atoms: C_1  and  N_2
REMARK    2  A    between atoms: N_5  and  C_6
REMARK    3  A    between atoms: C_9  and  N_10
REMARK    4  A    between atoms: N_10  and  C_11
REMARK    5  A    between atoms: C_25  and  C_26
REMARK                            x       y       z     vdW  Elec       q    Type
REMARK                         _______ _______ _______ _____ _____    ______ ____
ROOT
ATOM      1  N   UNL     1       3.102   6.986  19.520  0.00  0.00    +0.000 N 
ATOM      2  H   UNL     1       3.391   6.955  20.492  0.00  0.00    +0.000 HD
ENDROOT
BRANCH   1   3
ATOM      3  C   UNL     1       3.271   5.746  18.816  0.00  0.00    +0.000 A 
ATOM      4  C   UNL     1       4.177   5.663  17.708  0.00  0.00    +0.000 A 
ATOM      5  C   UNL     1       5.062   6.696  17.295  0.00  0.00    +0.000 A 
ATOM      6  C   UNL     1       5.770   6.629  16.097  0.00  0.00    +0.000 A 
ATOM      7  C   UNL     1       5.684   5.483  15.328  0.00  0.00    +0.000 A 
ATOM      8  C   UNL     1       4.916   4.410  15.784  0.00  0.00    +0.000 A 
ATOM      9  C   UNL     1       4.163   4.482  16.951  0.00  0.00    +0.000 A 
ATOM     10  N   UNL     1       3.423   3.417  17.276  0.00  0.00    +0.000 NA
ATOM     11  C   UNL     1       2.592   3.476  18.323  0.00  0.00    +0.000 A 
ATOM     12  C   UNL     1       1.833   2.349  18.581  0.00  0.00    +0.000 A 
ATOM     13  C   UNL     1       0.882   2.309  19.600  0.00  0.00    +0.000 A 
ATOM     14  C   UNL     1       0.685   3.438  20.385  0.00  0.00    +0.000 A 
ATOM     15  C   UNL     1       1.456   4.579  20.155  0.00  0.00    +0.000 A 
ATOM     16  C   UNL     1       2.440   4.625  19.127  0.00  0.00    +0.000 A 
ENDBRANCH   1   3
BRANCH   1  20
ATOM     17  C   UNL     1       0.180  10.000  18.842  0.00  0.00    +0.000 A 
ATOM     18  C   UNL     1       1.008   9.561  17.817  0.00  0.00    +0.000 A 
ATOM     19  C   UNL     1       1.924   8.539  18.042  0.00  0.00    +0.000 A 
ATOM     20  C   UNL     1       2.103   7.972  19.311  0.00  0.00    +0.000 A 
ATOM     21  C   UNL     1       1.337   8.482  20.379  0.00  0.00    +0.000 A 
ATOM     22  C   UNL     1       1.467   7.976  21.791  0.00  0.00    +0.000 C 
ATOM     23  C   UNL     1       0.372   9.486  20.128  0.00  0.00    +0.000 A 
BRANCH  17  28
ATOM     24  C   UNL     1      -3.253  13.233  20.050  0.00  0.00    +0.000 C 
ATOM     25  N   UNL     1      -2.482  12.456  19.110  0.00  0.00    +0.000 N 
ATOM     26  C   UNL     1      -1.544  11.583  19.621  0.00  0.00    +0.000 C 
ATOM     27  O   UNL     1      -1.349  11.487  20.826  0.00  0.00    +0.000 OA
ATOM     28  N   UNL     1      -0.869  10.917  18.618  0.00  0.00    +0.000 N 
ATOM     29  H   UNL     1      -2.945  12.152  18.267  0.00  0.00    +0.000 HD
ATOM     30  H   UNL     1      -0.914  11.349  17.707  0.00  0.00    +0.000 HD
ENDBRANCH  17  28
ENDBRANCH   1  20
TORSDOF 3
ENDMDL
MODEL 8
REMARK VINA RESULT:      -8.3      2.010      4.205
REMARK  Name = 
REMARK  5 active torsions:
REMARK  status: ('A' for Active; 'I' for Inactive)
REMARK    1  A    between atoms: C_1  and  N_2
REMARK    2  A    between atoms: N_5  and  C_6
REMARK    3  A    between atoms: C_9  and  N_10
REMARK    4  A    between atoms: N_10  and  C_11
REMARK    5  A    between atoms: C_25  and  C_26
REMARK                            x       y       z     vdW  Elec       q    Type
REMARK                         _______ _______ _______ _____ _____    ______ ____
ROOT
ATOM      1  N   UNL     1       3.350   6.653  19.830  0.00  0.00    +0.000 N 
ATOM      2  H   UNL     1       3.845   6.539  20.708  0.00  0.00    +0.000 HD
ENDROOT
BRANCH   1   3
ATOM      3  C   UNL     1       3.395   5.501  18.974  0.00  0.00    +0.000 A 
ATOM      4  C   UNL     1       4.308   5.456  17.871  0.00  0.00    +0.000 A 
ATOM      5  C   UNL     1       5.310   6.427  17.596  0.00  0.00    +0.000 A 
ATOM      6  C   UNL     1       6.029   6.431  16.403  0.00  0.00    +0.000 A 
ATOM      7  C   UNL     1       5.832   5.407  15.495  0.00  0.00    +0.000 A 
ATOM      8  C   UNL     1       4.941   4.379  15.807  0.00  0.00    +0.000 A 
ATOM      9  C   UNL     1       4.178   4.388  16.969  0.00  0.00    +0.000 A 
ATOM     10  N   UNL     1       3.318   3.380  17.152  0.00  0.00    +0.000 NA
ATOM     11  C   UNL     1       2.478   3.401  18.194  0.00  0.00    +0.000 A 
ATOM     12  C   UNL     1       1.594   2.343  18.303  0.00  0.00    +0.000 A 
ATOM     13  C   UNL     1       0.625   2.283  19.303  0.00  0.00    +0.000 A 
ATOM     14  C   UNL     1       0.539   3.320  20.224  0.00  0.00    +0.000 A 
ATOM     15  C   UNL     1       1.436   4.387  20.145  0.00  0.00    +0.000 A 
ATOM     16  C   UNL     1       2.439   4.450  19.137  0.00  0.00    +0.000 A 
ENDBRANCH   1   3
BRANCH   1  20
ATOM     17  C   UNL     1       0.153   9.431  20.213  0.00  0.00    +0.000 A 
ATOM     18  C   UNL     1       0.438   8.522  21.224  0.00  0.00    +0.000 A 
ATOM     19  C   UNL     1       1.518   7.654  21.105  0.00  0.00    +0.000 A 
ATOM     20  C   UNL     1       2.305   7.606  19.946  0.00  0.00    +0.000 A 
ATOM     21  C   UNL     1       1.961   8.456  18.875  0.00  0.00    +0.000 A 
ATOM     22  C   UNL     1       2.710   8.469  17.570  0.00  0.00    +0.000 C 
ATOM     23  C   UNL     1       0.891   9.371  19.027  0.00  0.00    +0.000 A 
BRANCH  17  28
ATOM     24  C   UNL     1      -1.726  13.632  21.798  0.00  0.00    +0.000 C 
ATOM     25  N   UNL     1      -1.765  12.398  21.051  0.00  0.00    +0.000 N 
ATOM     26  C   UNL     1      -0.668  11.567  21.133  0.00  0.00    +0.000 C 
ATOM     27  O   UNL     1       0.319  11.873  21.792  0.00  0.00    +0.000 OA
ATOM     28  N   UNL     1      -0.828  10.434  20.362  0.00  0.00    +0.000 N 
ATOM     29  H   UNL     1      -2.657  11.934  20.966  0.00  0.00    +0.000 HD
ATOM     30  H   UNL     1      -1.530  10.500  19.641  0.00  0.00    +0.000 HD
ENDBRANCH  17  28
ENDBRANCH   1  20
TORSDOF 3
ENDMDL
MODEL 9
REMARK VINA RESULT:      -8.3      1.160      1.754
REMARK  Name = 
REMARK  5 active torsions:
REMARK  status: ('A' for Active; 'I' for Inactive)
REMARK    1  A    between atoms: C_1  and  N_2
REMARK    2  A    between atoms: N_5  and  C_6
REMARK    3  A    between atoms: C_9  and  N_10
REMARK    4  A    between atoms: N_10  and  C_11
REMARK    5  A    between atoms: C_25  and  C_26
REMARK                            x       y       z     vdW  Elec       q    Type
REMARK                         _______ _______ _______ _____ _____    ______ ____
ROOT
ATOM      1  N   UNL     1       3.342   6.561  19.743  0.00  0.00    +0.000 N 
ATOM      2  H   UNL     1       3.631   6.337  20.689  0.00  0.00    +0.000 HD
ENDROOT
BRANCH   1   3
ATOM      3  C   UNL     1       3.487   5.479  18.810  0.00  0.00    +0.000 A 
ATOM      4  C   UNL     1       2.559   4.388  18.821  0.00  0.00    +0.000 A 
ATOM      5  C   UNL     1       1.380   4.323  19.613  0.00  0.00    +0.000 A 
ATOM      6  C   UNL     1       0.629   3.155  19.727  0.00  0.00    +0.000 A 
ATOM      7  C   UNL     1       0.984   2.050  18.976  0.00  0.00    +0.000 A 
ATOM      8  C   UNL     1       2.067   2.139  18.099  0.00  0.00    +0.000 A 
ATOM      9  C   UNL     1       2.857   3.280  18.013  0.00  0.00    +0.000 A 
ATOM     10  N   UNL     1       3.900   3.247  17.177  0.00  0.00    +0.000 NA
ATOM     11  C   UNL     1       4.759   4.273  17.142  0.00  0.00    +0.000 A 
ATOM     12  C   UNL     1       5.833   4.157  16.278  0.00  0.00    +0.000 A 
ATOM     13  C   UNL     1       6.833   5.126  16.200  0.00  0.00    +0.000 A 
ATOM     14  C   UNL     1       6.753   6.247  17.016  0.00  0.00    +0.000 A 
ATOM     15  C   UNL     1       5.665   6.394  17.880  0.00  0.00    +0.000 A 
ATOM     16  C   UNL     1       4.632   5.418  17.956  0.00  0.00    +0.000 A 
ENDBRANCH   1   3
BRANCH   1  20
ATOM     17  C   UNL     1       0.334   9.568  19.752  0.00  0.00    +0.000 A 
ATOM     18  C   UNL     1       0.503   8.720  20.839  0.00  0.00    +0.000 A 
ATOM     19  C   UNL     1       1.523   7.775  20.842  0.00  0.00    +0.000 A 
ATOM     20  C   UNL     1       2.361   7.588  19.734  0.00  0.00    +0.000 A 
ATOM     21  C   UNL     1       2.132   8.376  18.588  0.00  0.00    +0.000 A 
ATOM     22  C   UNL     1       2.945   8.242  17.329  0.00  0.00    +0.000 C 
ATOM     23  C   UNL     1       1.124   9.370  18.616  0.00  0.00    +0.000 A 
BRANCH  17  28
ATOM     24  C   UNL     1      -3.715  12.004  18.585  0.00  0.00    +0.000 C 
ATOM     25  N   UNL     1      -2.467  11.831  19.289  0.00  0.00    +0.000 N 
ATOM     26  C   UNL     1      -1.739  10.690  19.027  0.00  0.00    +0.000 C 
ATOM     27  O   UNL     1      -2.146   9.836  18.248  0.00  0.00    +0.000 OA
ATOM     28  N   UNL     1      -0.580  10.642  19.775  0.00  0.00    +0.000 N 
ATOM     29  H   UNL     1      -1.924  12.659  19.481  0.00  0.00    +0.000 HD
ATOM     30  H   UNL     1      -0.568  11.239  20.589  0.00  0.00    +0.000 HD
ENDBRANCH  17  28
ENDBRANCH   1  20
TORSDOF 3
ENDMDL
