MODEL 1
REMARK VINA RESULT:      -7.9      0.000      0.000
REMARK  Name = 
REMARK  6 active torsions:
REMARK  status: ('A' for Active; 'I' for Inactive)
REMARK    1  A    between atoms: C_2  and  C_3
REMARK    2  A    between atoms: C_6  and  O_7
REMARK    3  A    between atoms: O_7  and  C_8
REMARK    4  A    between atoms: C_8  and  C_9
REMARK    5  A    between atoms: N_12  and  C_13
REMARK    6  A    between atoms: C_13  and  C_14
REMARK                            x       y       z     vdW  Elec       q    Type
REMARK                         _______ _______ _______ _____ _____    ______ ____
ROOT
ATOM      1  C   UNL     1       7.335   5.865  17.714  0.00  0.00    +0.000 C 
ATOM      2  C   UNL     1       6.692   5.477  19.050  0.00  0.00    +0.000 C 
ATOM      3  C   UNL     1       5.205   5.153  18.891  0.00  0.00    +0.000 C 
ATOM      4  N   UNL     1       4.443   6.259  18.283  0.00  0.00    +0.000 NA
ATOM      5  C   UNL     1       5.045   6.750  17.032  0.00  0.00    +0.000 C 
ATOM      6  C   UNL     1       6.546   7.051  17.146  0.00  0.00    +0.000 C 
ENDROOT
BRANCH   1   7
ATOM      7  C   UNL     1       7.377   4.690  16.719  0.00  0.00    +0.000 C 
BRANCH   7   8
ATOM      8  O   UNL     1       7.740   5.164  15.420  0.00  0.00    +0.000 OA
BRANCH   8  12
ATOM      9  C   UNL     1       5.246   3.704  12.408  0.00  0.00    +0.000 A 
ATOM     10  C   UNL     1       4.833   3.764  13.743  0.00  0.00    +0.000 A 
ATOM     11  C   UNL     1       5.699   4.264  14.720  0.00  0.00    +0.000 A 
ATOM     12  C   UNL     1       6.985   4.687  14.381  0.00  0.00    +0.000 A 
ATOM     13  C   UNL     1       7.390   4.639  13.045  0.00  0.00    +0.000 A 
ATOM     14  C   UNL     1       6.525   4.148  12.062  0.00  0.00    +0.000 A 
BRANCH   9  16
ATOM     15  N   UNL     1       3.651   2.783  10.579  0.00  0.00    +0.000 NA
ATOM     16  C   UNL     1       4.363   3.195  11.397  0.00  0.00    +0.000 C 
ENDBRANCH   9  16
ENDBRANCH   8  12
ENDBRANCH   7   8
ENDBRANCH   1   7
BRANCH   4  17
ATOM     17  C   UNL     1       3.040   5.854  18.030  0.00  0.00    +0.000 C 
BRANCH  17  18
ATOM     18  C   UNL     1       2.480   4.883  19.054  0.00  0.00    +0.000 A 
ATOM     19  C   UNL     1       1.996   3.626  18.657  0.00  0.00    +0.000 A 
ATOM     20  C   UNL     1       1.416   2.764  19.592  0.00  0.00    +0.000 A 
ATOM     21  C   UNL     1       1.337   3.150  20.924  0.00  0.00    +0.000 A 
ATOM     22  F   UNL     1       0.760   2.334  21.816  0.00  0.00    +0.000 F 
ATOM     23  C   UNL     1       1.843   4.373  21.346  0.00  0.00    +0.000 A 
ATOM     24  C   UNL     1       2.414   5.240  20.412  0.00  0.00    +0.000 A 
ENDBRANCH  17  18
ENDBRANCH   4  17
TORSDOF 6
ENDMDL
MODEL 2
REMARK VINA RESULT:      -7.9      0.900      1.384
REMARK  Name = 
REMARK  6 active torsions:
REMARK  status: ('A' for Active; 'I' for Inactive)
REMARK    1  A    between atoms: C_2  and  C_3
REMARK    2  A    between atoms: C_6  and  O_7
REMARK    3  A    between atoms: O_7  and  C_8
REMARK    4  A    between atoms: C_8  and  C_9
REMARK    5  A    between atoms: N_12  and  C_13
REMARK    6  A    between atoms: C_13  and  C_14
REMARK                            x       y       z     vdW  Elec       q    Type
REMARK                         _______ _______ _______ _____ _____    ______ ____
ROOT
ATOM      1  C   UNL     1       7.359   5.785  17.912  0.00  0.00    +0.000 C 
ATOM      2  C   UNL     1       6.610   5.562  19.230  0.00  0.00    +0.000 C 
ATOM      3  C   UNL     1       5.097   5.484  19.016  0.00  0.00    +0.000 C 
ATOM      4  N   UNL     1       4.555   6.676  18.339  0.00  0.00    +0.000 NA
ATOM      5  C   UNL     1       5.278   7.011  17.101  0.00  0.00    +0.000 C 
ATOM      6  C   UNL     1       6.803   7.062  17.271  0.00  0.00    +0.000 C 
ENDROOT
BRANCH   1   7
ATOM      7  C   UNL     1       7.241   4.581  16.958  0.00  0.00    +0.000 C 
BRANCH   7   8
ATOM      8  O   UNL     1       7.759   4.927  15.671  0.00  0.00    +0.000 OA
BRANCH   8  12
ATOM      9  C   UNL     1       5.252   3.719  12.560  0.00  0.00    +0.000 A 
ATOM     10  C   UNL     1       4.819   3.741  13.889  0.00  0.00    +0.000 A 
ATOM     11  C   UNL     1       5.690   4.156  14.901  0.00  0.00    +0.000 A 
ATOM     12  C   UNL     1       7.001   4.531  14.600  0.00  0.00    +0.000 A 
ATOM     13  C   UNL     1       7.426   4.523  13.270  0.00  0.00    +0.000 A 
ATOM     14  C   UNL     1       6.557   4.116  12.253  0.00  0.00    +0.000 A 
BRANCH   9  16
ATOM     15  N   UNL     1       3.646   2.954  10.669  0.00  0.00    +0.000 NA
ATOM     16  C   UNL     1       4.364   3.297  11.514  0.00  0.00    +0.000 C 
ENDBRANCH   9  16
ENDBRANCH   8  12
ENDBRANCH   7   8
ENDBRANCH   1   7
BRANCH   4  17
ATOM     17  C   UNL     1       3.114   6.501  18.037  0.00  0.00    +0.000 C 
BRANCH  17  18
ATOM     18  C   UNL     1       2.591   5.100  18.299  0.00  0.00    +0.000 A 
ATOM     19  C   UNL     1       1.857   4.817  19.462  0.00  0.00    +0.000 A 
ATOM     20  C   UNL     1       1.439   3.511  19.735  0.00  0.00    +0.000 A 
ATOM     21  C   UNL     1       1.737   2.494  18.837  0.00  0.00    +0.000 A 
ATOM     22  F   UNL     1       1.357   1.239  19.110  0.00  0.00    +0.000 F 
ATOM     23  C   UNL     1       2.430   2.757  17.662  0.00  0.00    +0.000 A 
ATOM     24  C   UNL     1       2.857   4.059  17.392  0.00  0.00    +0.000 A 
ENDBRANCH  17  18
ENDBRANCH   4  17
TORSDOF 6
ENDMDL
MODEL 3
REMARK VINA RESULT:      -7.8      0.266      1.417
REMARK  Name = 
REMARK  6 active torsions:
REMARK  status: ('A' for Active; 'I' for Inactive)
REMARK    1  A    between atoms: C_2  and  C_3
REMARK    2  A    between atoms: C_6  and  O_7
REMARK    3  A    between atoms: O_7  and  C_8
REMARK    4  A    between atoms: C_8  and  C_9
REMARK    5  A    between atoms: N_12  and  C_13
REMARK    6  A    between atoms: C_13  and  C_14
REMARK                            x       y       z     vdW  Elec       q    Type
REMARK                         _______ _______ _______ _____ _____    ______ ____
ROOT
ATOM      1  C   UNL     1       7.489   5.844  17.910  0.00  0.00    +0.000 C 
ATOM      2  C   UNL     1       6.721   5.415  19.164  0.00  0.00    +0.000 C 
ATOM      3  C   UNL     1       5.242   5.162  18.864  0.00  0.00    +0.000 C 
ATOM      4  N   UNL     1       4.576   6.328  18.256  0.00  0.00    +0.000 NA
ATOM      5  C   UNL     1       5.301   6.858  17.089  0.00  0.00    +0.000 C 
ATOM      6  C   UNL     1       6.797   7.090  17.344  0.00  0.00    +0.000 C 
ENDROOT
BRANCH   1   7
ATOM      7  C   UNL     1       7.572   4.721  16.858  0.00  0.00    +0.000 C 
BRANCH   7   8
ATOM      8  O   UNL     1       7.680   5.287  15.549  0.00  0.00    +0.000 OA
BRANCH   8  12
ATOM      9  C   UNL     1       5.289   3.691  12.522  0.00  0.00    +0.000 A 
ATOM     10  C   UNL     1       6.597   4.120  12.279  0.00  0.00    +0.000 A 
ATOM     11  C   UNL     1       7.366   4.645  13.322  0.00  0.00    +0.000 A 
ATOM     12  C   UNL     1       6.832   4.767  14.607  0.00  0.00    +0.000 A 
ATOM     13  C   UNL     1       5.529   4.324  14.850  0.00  0.00    +0.000 A 
ATOM     14  C   UNL     1       4.759   3.790  13.812  0.00  0.00    +0.000 A 
BRANCH   9  16
ATOM     15  N   UNL     1       3.849   2.711  10.597  0.00  0.00    +0.000 NA
ATOM     16  C   UNL     1       4.493   3.148  11.458  0.00  0.00    +0.000 C 
ENDBRANCH   9  16
ENDBRANCH   8  12
ENDBRANCH   7   8
ENDBRANCH   1   7
BRANCH   4  17
ATOM     17  C   UNL     1       3.185   5.996  17.865  0.00  0.00    +0.000 C 
BRANCH  17  18
ATOM     18  C   UNL     1       2.457   5.108  18.858  0.00  0.00    +0.000 A 
ATOM     19  C   UNL     1       2.436   5.431  20.225  0.00  0.00    +0.000 A 
ATOM     20  C   UNL     1       1.825   4.575  21.145  0.00  0.00    +0.000 A 
ATOM     21  C   UNL     1       1.221   3.407  20.698  0.00  0.00    +0.000 A 
ATOM     22  F   UNL     1       0.657   2.574  21.583  0.00  0.00    +0.000 F 
ATOM     23  C   UNL     1       1.197   3.085  19.347  0.00  0.00    +0.000 A 
ATOM     24  C   UNL     1       1.814   3.935  18.426  0.00  0.00    +0.000 A 
ENDBRANCH  17  18
ENDBRANCH   4  17
TORSDOF 6
ENDMDL
MODEL 4
REMARK VINA RESULT:      -7.6      4.135      6.984
REMARK  Name = 
REMARK  6 active torsions:
REMARK  status: ('A' for Active; 'I' for Inactive)
REMARK    1  A    between atoms: C_2  and  C_3
REMARK    2  A    between atoms: C_6  and  O_7
REMARK    3  A    between atoms: O_7  and  C_8
REMARK    4  A    between atoms: C_8  and  C_9
REMARK    5  A    between atoms: N_12  and  C_13
REMARK    6  A    between atoms: C_13  and  C_14
REMARK                            x       y       z     vdW  Elec       q    Type
REMARK                         _______ _______ _______ _____ _____    ______ ____
ROOT
ATOM      1  C   UNL     1       7.542   6.848  17.245  0.00  0.00    +0.000 C 
ATOM      2  C   UNL     1       6.293   6.452  16.452  0.00  0.00    +0.000 C 
ATOM      3  C   UNL     1       5.044   6.424  17.336  0.00  0.00    +0.000 C 
ATOM      4  N   UNL     1       5.191   5.531  18.500  0.00  0.00    +0.000 NA
ATOM      5  C   UNL     1       6.418   5.791  19.272  0.00  0.00    +0.000 C 
ATOM      6  C   UNL     1       7.686   5.861  18.410  0.00  0.00    +0.000 C 
ENDROOT
BRANCH   1   7
ATOM      7  C   UNL     1       7.483   8.303  17.746  0.00  0.00    +0.000 C 
BRANCH   7   8
ATOM      8  O   UNL     1       8.631   8.588  18.550  0.00  0.00    +0.000 OA
BRANCH   8  12
ATOM      9  C   UNL     1       9.677  12.574  19.219  0.00  0.00    +0.000 A 
ATOM     10  C   UNL     1       9.892  11.584  20.182  0.00  0.00    +0.000 A 
ATOM     11  C   UNL     1       9.531  10.260  19.917  0.00  0.00    +0.000 A 
ATOM     12  C   UNL     1       8.934   9.916  18.701  0.00  0.00    +0.000 A 
ATOM     13  C   UNL     1       8.734  10.905  17.735  0.00  0.00    +0.000 A 
ATOM     14  C   UNL     1       9.100  12.229  17.993  0.00  0.00    +0.000 A 
BRANCH   9  16
ATOM     15  N   UNL     1      10.347  15.036  19.696  0.00  0.00    +0.000 NA
ATOM     16  C   UNL     1      10.047  13.936  19.482  0.00  0.00    +0.000 C 
ENDBRANCH   9  16
ENDBRANCH   8  12
ENDBRANCH   7   8
ENDBRANCH   1   7
BRANCH   4  17
ATOM     17  C   UNL     1       4.013   5.634  19.395  0.00  0.00    +0.000 C 
BRANCH  17  18
ATOM     18  C   UNL     1       2.952   4.577  19.148  0.00  0.00    +0.000 A 
ATOM     19  C   UNL     1       1.824   4.489  19.981  0.00  0.00    +0.000 A 
ATOM     20  C   UNL     1       0.886   3.470  19.795  0.00  0.00    +0.000 A 
ATOM     21  C   UNL     1       1.063   2.554  18.767  0.00  0.00    +0.000 A 
ATOM     22  F   UNL     1       0.176   1.563  18.604  0.00  0.00    +0.000 F 
ATOM     23  C   UNL     1       2.151   2.644  17.907  0.00  0.00    +0.000 A 
ATOM     24  C   UNL     1       3.095   3.655  18.097  0.00  0.00    +0.000 A 
ENDBRANCH  17  18
ENDBRANCH   4  17
TORSDOF 6
ENDMDL
MODEL 5
REMARK VINA RESULT:      -7.6      3.691      5.348
REMARK  Name = 
REMARK  6 active torsions:
REMARK  status: ('A' for Active; 'I' for Inactive)
REMARK    1  A    between atoms: C_2  and  C_3
REMARK    2  A    between atoms: C_6  and  O_7
REMARK    3  A    between atoms: O_7  and  C_8
REMARK    4  A    between atoms: C_8  and  C_9
REMARK    5  A    between atoms: N_12  and  C_13
REMARK    6  A    between atoms: C_13  and  C_14
REMARK                            x       y       z     vdW  Elec       q    Type
REMARK                         _______ _______ _______ _____ _____    ______ ____
ROOT
ATOM      1  C   UNL     1       3.207   2.427  17.819  0.00  0.00    +0.000 C 
ATOM      2  C   UNL     1       1.736   2.523  18.240  0.00  0.00    +0.000 C 
ATOM      3  C   UNL     1       1.476   3.751  19.115  0.00  0.00    +0.000 C 
ATOM      4  N   UNL     1       2.333   3.788  20.314  0.00  0.00    +0.000 NA
ATOM      5  C   UNL     1       3.762   3.616  20.003  0.00  0.00    +0.000 C 
ATOM      6  C   UNL     1       4.056   2.413  19.096  0.00  0.00    +0.000 C 
ENDROOT
BRANCH   1   7
ATOM      7  C   UNL     1       3.625   3.574  16.879  0.00  0.00    +0.000 C 
BRANCH   7   8
ATOM      8  O   UNL     1       5.024   3.487  16.597  0.00  0.00    +0.000 OA
BRANCH   8  12
ATOM      9  C   UNL     1       7.119   6.983  17.501  0.00  0.00    +0.000 A 
ATOM     10  C   UNL     1       6.044   6.978  16.608  0.00  0.00    +0.000 A 
ATOM     11  C   UNL     1       5.366   5.786  16.335  0.00  0.00    +0.000 A 
ATOM     12  C   UNL     1       5.767   4.589  16.933  0.00  0.00    +0.000 A 
ATOM     13  C   UNL     1       6.832   4.599  17.836  0.00  0.00    +0.000 A 
ATOM     14  C   UNL     1       7.508   5.790  18.118  0.00  0.00    +0.000 A 
BRANCH   9  16
ATOM     15  N   UNL     1       8.386   9.188  18.021  0.00  0.00    +0.000 NA
ATOM     16  C   UNL     1       7.819   8.203  17.789  0.00  0.00    +0.000 C 
ENDBRANCH   9  16
ENDBRANCH   8  12
ENDBRANCH   7   8
ENDBRANCH   1   7
BRANCH   4  17
ATOM     17  C   UNL     1       2.138   5.053  21.061  0.00  0.00    +0.000 C 
BRANCH  17  18
ATOM     18  C   UNL     1       2.056   6.287  20.180  0.00  0.00    +0.000 A 
ATOM     19  C   UNL     1       2.630   6.289  18.898  0.00  0.00    +0.000 A 
ATOM     20  C   UNL     1       2.615   7.449  18.119  0.00  0.00    +0.000 A 
ATOM     21  C   UNL     1       2.011   8.599  18.611  0.00  0.00    +0.000 A 
ATOM     22  F   UNL     1       2.018   9.717  17.874  0.00  0.00    +0.000 F 
ATOM     23  C   UNL     1       1.405   8.609  19.861  0.00  0.00    +0.000 A 
ATOM     24  C   UNL     1       1.426   7.454  20.646  0.00  0.00    +0.000 A 
ENDBRANCH  17  18
ENDBRANCH   4  17
TORSDOF 6
ENDMDL
MODEL 6
REMARK VINA RESULT:      -7.5      3.770      7.263
REMARK  Name = 
REMARK  6 active torsions:
REMARK  status: ('A' for Active; 'I' for Inactive)
REMARK    1  A    between atoms: C_2  and  C_3
REMARK    2  A    between atoms: C_6  and  O_7
REMARK    3  A    between atoms: O_7  and  C_8
REMARK    4  A    between atoms: C_8  and  C_9
REMARK    5  A    between atoms: N_12  and  C_13
REMARK    6  A    between atoms: C_13  and  C_14
REMARK                            x       y       z     vdW  Elec       q    Type
REMARK                         _______ _______ _______ _____ _____    ______ ____
ROOT
ATOM      1  C   UNL     1       2.113   2.826  19.868  0.00  0.00    +0.000 C 
ATOM      2  C   UNL     1       3.627   2.941  20.077  0.00  0.00    +0.000 C 
ATOM      3  C   UNL     1       4.299   3.712  18.940  0.00  0.00    +0.000 C 
ATOM      4  N   UNL     1       4.030   3.124  17.615  0.00  0.00    +0.000 NA
ATOM      5  C   UNL     1       2.595   2.901  17.368  0.00  0.00    +0.000 C 
ATOM      6  C   UNL     1       1.880   2.160  18.507  0.00  0.00    +0.000 C 
ENDROOT
BRANCH   1   7
ATOM      7  C   UNL     1       1.403   4.190  19.955  0.00  0.00    +0.000 C 
BRANCH   7   8
ATOM      8  O   UNL     1       2.320   5.190  20.408  0.00  0.00    +0.000 OA
BRANCH   8  12
ATOM      9  C   UNL     1       1.533   9.126  19.262  0.00  0.00    +0.000 A 
ATOM     10  C   UNL     1       1.181   8.642  20.525  0.00  0.00    +0.000 A 
ATOM     11  C   UNL     1       1.467   7.317  20.871  0.00  0.00    +0.000 A 
ATOM     12  C   UNL     1       2.083   6.461  19.956  0.00  0.00    +0.000 A 
ATOM     13  C   UNL     1       2.446   6.951  18.699  0.00  0.00    +0.000 A 
ATOM     14  C   UNL     1       2.170   8.277  18.351  0.00  0.00    +0.000 A 
BRANCH   9  16
ATOM     15  N   UNL     1       1.013  11.583  18.607  0.00  0.00    +0.000 NA
ATOM     16  C   UNL     1       1.246  10.485  18.899  0.00  0.00    +0.000 C 
ENDBRANCH   9  16
ENDBRANCH   8  12
ENDBRANCH   7   8
ENDBRANCH   1   7
BRANCH   4  17
ATOM     17  C   UNL     1       4.590   3.974  16.537  0.00  0.00    +0.000 C 
BRANCH  17  18
ATOM     18  C   UNL     1       5.649   4.955  17.008  0.00  0.00    +0.000 A 
ATOM     19  C   UNL     1       6.810   4.498  17.652  0.00  0.00    +0.000 A 
ATOM     20  C   UNL     1       7.748   5.408  18.148  0.00  0.00    +0.000 A 
ATOM     21  C   UNL     1       7.536   6.771  17.983  0.00  0.00    +0.000 A 
ATOM     22  F   UNL     1       8.423   7.643  18.479  0.00  0.00    +0.000 F 
ATOM     23  C   UNL     1       6.413   7.244  17.316  0.00  0.00    +0.000 A 
ATOM     24  C   UNL     1       5.469   6.337  16.828  0.00  0.00    +0.000 A 
ENDBRANCH  17  18
ENDBRANCH   4  17
TORSDOF 6
ENDMDL
MODEL 7
REMARK VINA RESULT:      -7.5      3.652      5.401
REMARK  Name = 
REMARK  6 active torsions:
REMARK  status: ('A' for Active; 'I' for Inactive)
REMARK    1  A    between atoms: C_2  and  C_3
REMARK    2  A    between atoms: C_6  and  O_7
REMARK    3  A    between atoms: O_7  and  C_8
REMARK    4  A    between atoms: C_8  and  C_9
REMARK    5  A    between atoms: N_12  and  C_13
REMARK    6  A    between atoms: C_13  and  C_14
REMARK                            x       y       z     vdW  Elec       q    Type
REMARK                         _______ _______ _______ _____ _____    ______ ____
ROOT
ATOM      1  C   UNL     1       2.195   2.116  18.226  0.00  0.00    +0.000 C 
ATOM      2  C   UNL     1       0.848   2.653  18.720  0.00  0.00    +0.000 C 
ATOM      3  C   UNL     1       1.008   3.966  19.490  0.00  0.00    +0.000 C 
ATOM      4  N   UNL     1       1.937   3.848  20.629  0.00  0.00    +0.000 NA
ATOM      5  C   UNL     1       3.233   3.257  20.254  0.00  0.00    +0.000 C 
ATOM      6  C   UNL     1       3.108   1.957  19.448  0.00  0.00    +0.000 C 
ENDROOT
BRANCH   1   7
ATOM      7  C   UNL     1       2.837   3.026  17.161  0.00  0.00    +0.000 C 
BRANCH   7   8
ATOM      8  O   UNL     1       4.261   2.901  17.207  0.00  0.00    +0.000 OA
BRANCH   8  12
ATOM      9  C   UNL     1       6.510   6.416  17.319  0.00  0.00    +0.000 A 
ATOM     10  C   UNL     1       6.502   5.511  18.385  0.00  0.00    +0.000 A 
ATOM     11  C   UNL     1       5.738   4.343  18.305  0.00  0.00    +0.000 A 
ATOM     12  C   UNL     1       4.961   4.078  17.175  0.00  0.00    +0.000 A 
ATOM     13  C   UNL     1       4.982   4.977  16.106  0.00  0.00    +0.000 A 
ATOM     14  C   UNL     1       5.751   6.142  16.177  0.00  0.00    +0.000 A 
BRANCH   9  16
ATOM     15  N   UNL     1       7.928   8.586  17.450  0.00  0.00    +0.000 NA
ATOM     16  C   UNL     1       7.295   7.616  17.390  0.00  0.00    +0.000 C 
ENDBRANCH   9  16
ENDBRANCH   8  12
ENDBRANCH   7   8
ENDBRANCH   1   7
BRANCH   4  17
ATOM     17  C   UNL     1       2.161   5.168  21.265  0.00  0.00    +0.000 C 
BRANCH  17  18
ATOM     18  C   UNL     1       2.097   6.339  20.301  0.00  0.00    +0.000 A 
ATOM     19  C   UNL     1       2.780   6.293  19.075  0.00  0.00    +0.000 A 
ATOM     20  C   UNL     1       2.778   7.401  18.222  0.00  0.00    +0.000 A 
ATOM     21  C   UNL     1       2.079   8.545  18.585  0.00  0.00    +0.000 A 
ATOM     22  F   UNL     1       2.096   9.614  17.779  0.00  0.00    +0.000 F 
ATOM     23  C   UNL     1       1.365   8.599  19.776  0.00  0.00    +0.000 A 
ATOM     24  C   UNL     1       1.373   7.497  20.634  0.00  0.00    +0.000 A 
ENDBRANCH  17  18
ENDBRANCH   4  17
TORSDOF 6
ENDMDL
MODEL 8
REMARK VINA RESULT:      -7.5      3.830      6.666
REMARK  Name = 
REMARK  6 active torsions:
REMARK  status: ('A' for Active; 'I' for Inactive)
REMARK    1  A    between atoms: C_2  and  C_3
REMARK    2  A    between atoms: C_6  and  O_7
REMARK    3  A    between atoms: O_7  and  C_8
REMARK    4  A    between atoms: C_8  and  C_9
REMARK    5  A    between atoms: N_12  and  C_13
REMARK    6  A    between atoms: C_13  and  C_14
REMARK                            x       y       z     vdW  Elec       q    Type
REMARK                         _______ _______ _______ _____ _____    ______ ____
ROOT
ATOM      1  C   UNL     1       7.656   6.312  17.595  0.00  0.00    +0.000 C 
ATOM      2  C   UNL     1       6.949   5.796  16.337  0.00  0.00    +0.000 C 
ATOM      3  C   UNL     1       5.433   5.989  16.419  0.00  0.00    +0.000 C 
ATOM      4  N   UNL     1       4.842   5.354  17.611  0.00  0.00    +0.000 NA
ATOM      5  C   UNL     1       5.522   5.733  18.861  0.00  0.00    +0.000 C 
ATOM      6  C   UNL     1       7.049   5.585  18.801  0.00  0.00    +0.000 C 
ENDROOT
BRANCH   1   7
ATOM      7  C   UNL     1       7.545   7.841  17.746  0.00  0.00    +0.000 C 
BRANCH   7   8
ATOM      8  O   UNL     1       8.567   8.320  18.624  0.00  0.00    +0.000 OA
BRANCH   8  12
ATOM      9  C   UNL     1       9.272  12.427  18.861  0.00  0.00    +0.000 A 
ATOM     10  C   UNL     1       9.685  11.549  19.868  0.00  0.00    +0.000 A 
ATOM     11  C   UNL     1       9.432  10.179  19.748  0.00  0.00    +0.000 A 
ATOM     12  C   UNL     1       8.750   9.678  18.637  0.00  0.00    +0.000 A 
ATOM     13  C   UNL     1       8.352  10.555  17.626  0.00  0.00    +0.000 A 
ATOM     14  C   UNL     1       8.609  11.925  17.737  0.00  0.00    +0.000 A 
BRANCH   9  16
ATOM     15  N   UNL     1       9.737  14.973  19.068  0.00  0.00    +0.000 NA
ATOM     16  C   UNL     1       9.530  13.835  18.974  0.00  0.00    +0.000 C 
ENDBRANCH   9  16
ENDBRANCH   8  12
ENDBRANCH   7   8
ENDBRANCH   1   7
BRANCH   4  17
ATOM     17  C   UNL     1       3.398   5.675  17.717  0.00  0.00    +0.000 C 
BRANCH  17  18
ATOM     18  C   UNL     1       2.656   4.857  18.758  0.00  0.00    +0.000 A 
ATOM     19  C   UNL     1       2.243   5.442  19.966  0.00  0.00    +0.000 A 
ATOM     20  C   UNL     1       1.622   4.669  20.951  0.00  0.00    +0.000 A 
ATOM     21  C   UNL     1       1.398   3.317  20.721  0.00  0.00    +0.000 A 
ATOM     22  F   UNL     1       0.825   2.571  21.675  0.00  0.00    +0.000 F 
ATOM     23  C   UNL     1       1.764   2.725  19.519  0.00  0.00    +0.000 A 
ATOM     24  C   UNL     1       2.392   3.494  18.537  0.00  0.00    +0.000 A 
ENDBRANCH  17  18
ENDBRANCH   4  17
TORSDOF 6
ENDMDL
MODEL 9
REMARK VINA RESULT:      -7.4      3.805      7.346
REMARK  Name = 
REMARK  6 active torsions:
REMARK  status: ('A' for Active; 'I' for Inactive)
REMARK    1  A    between atoms: C_2  and  C_3
REMARK    2  A    between atoms: C_6  and  O_7
REMARK    3  A    between atoms: O_7  and  C_8
REMARK    4  A    between atoms: C_8  and  C_9
REMARK    5  A    between atoms: N_12  and  C_13
REMARK    6  A    between atoms: C_13  and  C_14
REMARK                            x       y       z     vdW  Elec       q    Type
REMARK                         _______ _______ _______ _____ _____    ______ ____
ROOT
ATOM      1  C   UNL     1       2.104   2.832  19.800  0.00  0.00    +0.000 C 
ATOM      2  C   UNL     1       3.609   2.934  20.070  0.00  0.00    +0.000 C 
ATOM      3  C   UNL     1       4.333   3.703  18.963  0.00  0.00    +0.000 C 
ATOM      4  N   UNL     1       4.112   3.120  17.627  0.00  0.00    +0.000 NA
ATOM      5  C   UNL     1       2.687   2.909  17.321  0.00  0.00    +0.000 C 
ATOM      6  C   UNL     1       1.921   2.171  18.428  0.00  0.00    +0.000 C 
ENDROOT
BRANCH   1   7
ATOM      7  C   UNL     1       1.401   4.201  19.861  0.00  0.00    +0.000 C 
BRANCH   7   8
ATOM      8  O   UNL     1       2.260   5.162  20.481  0.00  0.00    +0.000 OA
BRANCH   8  12
ATOM      9  C   UNL     1       1.580   9.098  19.266  0.00  0.00    +0.000 A 
ATOM     10  C   UNL     1       2.207   8.167  18.433  0.00  0.00    +0.000 A 
ATOM     11  C   UNL     1       2.412   6.857  18.877  0.00  0.00    +0.000 A 
ATOM     12  C   UNL     1       2.015   6.471  20.159  0.00  0.00    +0.000 A 
ATOM     13  C   UNL     1       1.376   7.399  20.984  0.00  0.00    +0.000 A 
ATOM     14  C   UNL     1       1.161   8.708  20.542  0.00  0.00    +0.000 A 
BRANCH   9  16
ATOM     15  N   UNL     1       1.186  11.533  18.457  0.00  0.00    +0.000 NA
ATOM     16  C   UNL     1       1.362  10.444  18.818  0.00  0.00    +0.000 C 
ENDBRANCH   9  16
ENDBRANCH   8  12
ENDBRANCH   7   8
ENDBRANCH   1   7
BRANCH   4  17
ATOM     17  C   UNL     1       4.723   3.968  16.575  0.00  0.00    +0.000 C 
BRANCH  17  18
ATOM     18  C   UNL     1       5.691   5.011  17.103  0.00  0.00    +0.000 A 
ATOM     19  C   UNL     1       5.478   6.377  16.853  0.00  0.00    +0.000 A 
ATOM     20  C   UNL     1       6.409   7.328  17.280  0.00  0.00    +0.000 A 
ATOM     21  C   UNL     1       7.540   6.917  17.972  0.00  0.00    +0.000 A 
ATOM     22  F   UNL     1       8.444   7.826  18.360  0.00  0.00    +0.000 F 
ATOM     23  C   UNL     1       7.753   5.575  18.264  0.00  0.00    +0.000 A 
ATOM     24  C   UNL     1       6.829   4.622  17.831  0.00  0.00    +0.000 A 
ENDBRANCH  17  18
ENDBRANCH   4  17
TORSDOF 6
ENDMDL
