MODEL 1
REMARK VINA RESULT:      -7.6      0.000      0.000
REMARK  Name = 
REMARK  4 active torsions:
REMARK  status: ('A' for Active; 'I' for Inactive)
REMARK    1  A    between atoms: N_1  and  C_2
REMARK    2  A    between atoms: N_6  and  C_7
REMARK    3  A    between atoms: C_12  and  C_13
REMARK    4  A    between atoms: N_19  and  O_20
REMARK                            x       y       z     vdW  Elec       q    Type
REMARK                         _______ _______ _______ _____ _____    ______ ____
ROOT
ATOM      1  C   UNL     1       0.658   9.197  21.005  0.00  0.00    +0.000 C 
ATOM      2  C   UNL     1       1.505   7.908  21.101  0.00  0.00    +0.000 C 
ATOM      3  C   UNL     1       2.170   7.550  19.840  0.00  0.00    +0.000 A 
ATOM      4  C   UNL     1       2.928   6.461  19.490  0.00  0.00    +0.000 A 
ATOM      5  N   UNL     1       3.334   6.663  18.184  0.00  0.00    +0.000 N 
ATOM      6  N   UNL     1       2.809   7.803  17.676  0.00  0.00    +0.000 NA
ATOM      7  C   UNL     1       2.141   8.345  18.696  0.00  0.00    +0.000 A 
ATOM      8  N   UNL     1       1.482   9.546  18.652  0.00  0.00    +0.000 N 
ATOM      9  C   UNL     1       0.737  10.052  19.687  0.00  0.00    +0.000 C 
ATOM     10  O   UNL     1       0.125  11.123  19.614  0.00  0.00    +0.000 OA
ENDROOT
BRANCH   5  11
ATOM     11  C   UNL     1       4.085   5.773  17.378  0.00  0.00    +0.000 A 
ATOM     12  C   UNL     1       5.259   6.280  16.773  0.00  0.00    +0.000 A 
ATOM     13  C   UNL     1       6.100   5.454  16.042  0.00  0.00    +0.000 A 
ATOM     14  C   UNL     1       5.790   4.109  15.894  0.00  0.00    +0.000 A 
ATOM     15  C   UNL     1       4.621   3.603  16.466  0.00  0.00    +0.000 A 
ATOM     16  C   UNL     1       3.733   4.417  17.207  0.00  0.00    +0.000 A 
BRANCH  16  17
ATOM     17  C   UNL     1       2.449   3.740  17.658  0.00  0.00    +0.000 C 
ATOM     18  F   UNL     1       1.273   4.362  17.408  0.00  0.00    +0.000 F 
ATOM     19  F   UNL     1       2.309   2.525  17.036  0.00  0.00    +0.000 F 
ATOM     20  F   UNL     1       2.462   3.453  18.990  0.00  0.00    +0.000 F 
ENDBRANCH  16  17
ENDBRANCH   5  11
BRANCH   1  21
ATOM     21  N   UNL     1      -0.761   8.903  21.315  0.00  0.00    +0.000 NA
ATOM     22  H   UNL     1      -1.181   8.336  20.582  0.00  0.00    +0.000 HD
ATOM     23  H   UNL     1      -1.295   9.770  21.374  0.00  0.00    +0.000 HD
ENDBRANCH   1  21
BRANCH   8  24
ATOM     24  O   UNL     1       1.563  10.265  17.442  0.00  0.00    +0.000 OA
ATOM     25  H   UNL     1       2.171  10.992  17.684  0.00  0.00    +0.000 HD
ENDBRANCH   8  24
TORSDOF 4
ENDMDL
MODEL 2
REMARK VINA RESULT:      -7.6      1.600      2.191
REMARK  Name = 
REMARK  4 active torsions:
REMARK  status: ('A' for Active; 'I' for Inactive)
REMARK    1  A    between atoms: N_1  and  C_2
REMARK    2  A    between atoms: N_6  and  C_7
REMARK    3  A    between atoms: C_12  and  C_13
REMARK    4  A    between atoms: N_19  and  O_20
REMARK                            x       y       z     vdW  Elec       q    Type
REMARK                         _______ _______ _______ _____ _____    ______ ____
ROOT
ATOM      1  C   UNL     1       0.137  10.712  19.543  0.00  0.00    +0.000 C 
ATOM      2  C   UNL     1       0.596  10.077  18.211  0.00  0.00    +0.000 C 
ATOM      3  C   UNL     1       1.458   8.901  18.392  0.00  0.00    +0.000 A 
ATOM      4  C   UNL     1       2.129   8.118  17.485  0.00  0.00    +0.000 A 
ATOM      5  N   UNL     1       2.755   7.121  18.208  0.00  0.00    +0.000 N 
ATOM      6  N   UNL     1       2.563   7.282  19.539  0.00  0.00    +0.000 NA
ATOM      7  C   UNL     1       1.749   8.335  19.632  0.00  0.00    +0.000 A 
ATOM      8  N   UNL     1       1.245   8.836  20.803  0.00  0.00    +0.000 N 
ATOM      9  C   UNL     1       0.471   9.966  20.887  0.00  0.00    +0.000 C 
ATOM     10  O   UNL     1       0.053  10.417  21.959  0.00  0.00    +0.000 OA
ENDROOT
BRANCH   5  11
ATOM     11  C   UNL     1       3.614   6.114  17.704  0.00  0.00    +0.000 A 
ATOM     12  C   UNL     1       4.895   6.517  17.261  0.00  0.00    +0.000 A 
ATOM     13  C   UNL     1       5.831   5.584  16.836  0.00  0.00    +0.000 A 
ATOM     14  C   UNL     1       5.510   4.233  16.839  0.00  0.00    +0.000 A 
ATOM     15  C   UNL     1       4.240   3.827  17.251  0.00  0.00    +0.000 A 
ATOM     16  C   UNL     1       3.256   4.748  17.678  0.00  0.00    +0.000 A 
BRANCH  16  17
ATOM     17  C   UNL     1       1.890   4.154  17.977  0.00  0.00    +0.000 C 
ATOM     18  F   UNL     1       1.380   4.307  19.222  0.00  0.00    +0.000 F 
ATOM     19  F   UNL     1       0.938   4.720  17.167  0.00  0.00    +0.000 F 
ATOM     20  F   UNL     1       1.839   2.821  17.697  0.00  0.00    +0.000 F 
ENDBRANCH  16  17
ENDBRANCH   5  11
BRANCH   1  21
ATOM     21  N   UNL     1       0.606  12.116  19.631  0.00  0.00    +0.000 NA
ATOM     22  H   UNL     1       1.097  12.386  18.781  0.00  0.00    +0.000 HD
ATOM     23  H   UNL     1       1.258  12.221  20.407  0.00  0.00    +0.000 HD
ENDBRANCH   1  21
BRANCH   8  24
ATOM     24  O   UNL     1       1.591   8.147  21.984  0.00  0.00    +0.000 OA
ATOM     25  H   UNL     1       1.454   8.836  22.664  0.00  0.00    +0.000 HD
ENDBRANCH   8  24
TORSDOF 4
ENDMDL
MODEL 3
REMARK VINA RESULT:      -7.5      4.778      5.511
REMARK  Name = 
REMARK  4 active torsions:
REMARK  status: ('A' for Active; 'I' for Inactive)
REMARK    1  A    between atoms: N_1  and  C_2
REMARK    2  A    between atoms: N_6  and  C_7
REMARK    3  A    between atoms: C_12  and  C_13
REMARK    4  A    between atoms: N_19  and  O_20
REMARK                            x       y       z     vdW  Elec       q    Type
REMARK                         _______ _______ _______ _____ _____    ______ ____
ROOT
ATOM      1  C   UNL     1       1.367   3.205  19.976  0.00  0.00    +0.000 C 
ATOM      2  C   UNL     1       1.442   3.619  18.490  0.00  0.00    +0.000 C 
ATOM      3  C   UNL     1       2.814   3.673  17.966  0.00  0.00    +0.000 A 
ATOM      4  C   UNL     1       3.307   4.068  16.747  0.00  0.00    +0.000 A 
ATOM      5  N   UNL     1       4.674   3.871  16.790  0.00  0.00    +0.000 N 
ATOM      6  N   UNL     1       5.071   3.433  18.008  0.00  0.00    +0.000 NA
ATOM      7  C   UNL     1       3.937   3.282  18.693  0.00  0.00    +0.000 A 
ATOM      8  N   UNL     1       3.852   2.806  19.975  0.00  0.00    +0.000 N 
ATOM      9  C   UNL     1       2.685   2.729  20.692  0.00  0.00    +0.000 C 
ATOM     10  O   UNL     1       2.637   2.326  21.859  0.00  0.00    +0.000 OA
ENDROOT
BRANCH   5  11
ATOM     11  C   UNL     1       5.613   4.195  15.780  0.00  0.00    +0.000 A 
ATOM     12  C   UNL     1       5.488   3.526  14.540  0.00  0.00    +0.000 A 
ATOM     13  C   UNL     1       6.308   3.848  13.468  0.00  0.00    +0.000 A 
ATOM     14  C   UNL     1       7.272   4.837  13.608  0.00  0.00    +0.000 A 
ATOM     15  C   UNL     1       7.421   5.487  14.836  0.00  0.00    +0.000 A 
ATOM     16  C   UNL     1       6.612   5.178  15.954  0.00  0.00    +0.000 A 
BRANCH  16  17
ATOM     17  C   UNL     1       6.983   5.888  17.245  0.00  0.00    +0.000 C 
ATOM     18  F   UNL     1       7.654   5.191  18.191  0.00  0.00    +0.000 F 
ATOM     19  F   UNL     1       7.809   6.951  16.981  0.00  0.00    +0.000 F 
ATOM     20  F   UNL     1       5.896   6.433  17.860  0.00  0.00    +0.000 F 
ENDBRANCH  16  17
ENDBRANCH   5  11
BRANCH   1  21
ATOM     21  N   UNL     1       0.734   4.280  20.778  0.00  0.00    +0.000 NA
ATOM     22  H   UNL     1       0.741   4.043  21.768  0.00  0.00    +0.000 HD
ATOM     23  H   UNL     1      -0.239   4.399  20.499  0.00  0.00    +0.000 HD
ENDBRANCH   1  21
BRANCH   8  24
ATOM     24  O   UNL     1       5.062   2.413  20.582  0.00  0.00    +0.000 OA
ATOM     25  H   UNL     1       5.261   1.580  20.110  0.00  0.00    +0.000 HD
ENDBRANCH   8  24
TORSDOF 4
ENDMDL
MODEL 4
REMARK VINA RESULT:      -7.5      2.032      2.735
REMARK  Name = 
REMARK  4 active torsions:
REMARK  status: ('A' for Active; 'I' for Inactive)
REMARK    1  A    between atoms: N_1  and  C_2
REMARK    2  A    between atoms: N_6  and  C_7
REMARK    3  A    between atoms: C_12  and  C_13
REMARK    4  A    between atoms: N_19  and  O_20
REMARK                            x       y       z     vdW  Elec       q    Type
REMARK                         _______ _______ _______ _____ _____    ______ ____
ROOT
ATOM      1  C   UNL     1       0.830  10.045  21.094  0.00  0.00    +0.000 C 
ATOM      2  C   UNL     1       1.169   8.625  21.597  0.00  0.00    +0.000 C 
ATOM      3  C   UNL     1       1.585   7.709  20.526  0.00  0.00    +0.000 A 
ATOM      4  C   UNL     1       1.884   6.369  20.541  0.00  0.00    +0.000 A 
ATOM      5  N   UNL     1       2.255   6.031  19.253  0.00  0.00    +0.000 N 
ATOM      6  N   UNL     1       2.137   7.086  18.413  0.00  0.00    +0.000 NA
ATOM      7  C   UNL     1       1.770   8.098  19.201  0.00  0.00    +0.000 A 
ATOM      8  N   UNL     1       1.577   9.389  18.782  0.00  0.00    +0.000 N 
ATOM      9  C   UNL     1       1.126  10.401  19.590  0.00  0.00    +0.000 C 
ATOM     10  O   UNL     1       0.930  11.551  19.183  0.00  0.00    +0.000 OA
ENDROOT
BRANCH   5  11
ATOM     11  C   UNL     1       2.591   4.741  18.774  0.00  0.00    +0.000 A 
ATOM     12  C   UNL     1       1.559   3.774  18.738  0.00  0.00    +0.000 A 
ATOM     13  C   UNL     1       1.778   2.514  18.200  0.00  0.00    +0.000 A 
ATOM     14  C   UNL     1       3.028   2.188  17.692  0.00  0.00    +0.000 A 
ATOM     15  C   UNL     1       4.061   3.126  17.746  0.00  0.00    +0.000 A 
ATOM     16  C   UNL     1       3.879   4.416  18.298  0.00  0.00    +0.000 A 
BRANCH  16  17
ATOM     17  C   UNL     1       5.133   5.269  18.390  0.00  0.00    +0.000 C 
ATOM     18  F   UNL     1       5.132   6.480  17.782  0.00  0.00    +0.000 F 
ATOM     19  F   UNL     1       5.409   5.567  19.700  0.00  0.00    +0.000 F 
ATOM     20  F   UNL     1       6.236   4.609  17.939  0.00  0.00    +0.000 F 
ENDBRANCH  16  17
ENDBRANCH   5  11
BRANCH   1  21
ATOM     21  N   UNL     1      -0.580  10.380  21.409  0.00  0.00    +0.000 NA
ATOM     22  H   UNL     1      -0.834  11.281  21.012  0.00  0.00    +0.000 HD
ATOM     23  H   UNL     1      -0.708  10.444  22.418  0.00  0.00    +0.000 HD
ENDBRANCH   1  21
BRANCH   8  24
ATOM     24  O   UNL     1       1.833   9.654  17.421  0.00  0.00    +0.000 OA
ATOM     25  H   UNL     1       1.084   9.201  16.986  0.00  0.00    +0.000 HD
ENDBRANCH   8  24
TORSDOF 4
ENDMDL
MODEL 5
REMARK VINA RESULT:      -7.1      2.166      2.892
REMARK  Name = 
REMARK  4 active torsions:
REMARK  status: ('A' for Active; 'I' for Inactive)
REMARK    1  A    between atoms: N_1  and  C_2
REMARK    2  A    between atoms: N_6  and  C_7
REMARK    3  A    between atoms: C_12  and  C_13
REMARK    4  A    between atoms: N_19  and  O_20
REMARK                            x       y       z     vdW  Elec       q    Type
REMARK                         _______ _______ _______ _____ _____    ______ ____
ROOT
ATOM      1  C   UNL     1       1.017  10.475  18.567  0.00  0.00    +0.000 C 
ATOM      2  C   UNL     1       1.584   9.353  17.669  0.00  0.00    +0.000 C 
ATOM      3  C   UNL     1       1.988   8.154  18.416  0.00  0.00    +0.000 A 
ATOM      4  C   UNL     1       2.602   6.994  18.011  0.00  0.00    +0.000 A 
ATOM      5  N   UNL     1       2.705   6.189  19.130  0.00  0.00    +0.000 N 
ATOM      6  N   UNL     1       2.245   6.820  20.236  0.00  0.00    +0.000 NA
ATOM      7  C   UNL     1       1.781   7.986  19.784  0.00  0.00    +0.000 A 
ATOM      8  N   UNL     1       1.172   8.941  20.556  0.00  0.00    +0.000 N 
ATOM      9  C   UNL     1       0.770  10.167  20.090  0.00  0.00    +0.000 C 
ATOM     10  O   UNL     1       0.251  11.024  20.812  0.00  0.00    +0.000 OA
ENDROOT
BRANCH   5  11
ATOM     11  C   UNL     1       3.326   4.918  19.210  0.00  0.00    +0.000 A 
ATOM     12  C   UNL     1       4.738   4.891  19.286  0.00  0.00    +0.000 A 
ATOM     13  C   UNL     1       5.422   3.695  19.457  0.00  0.00    +0.000 A 
ATOM     14  C   UNL     1       4.716   2.504  19.552  0.00  0.00    +0.000 A 
ATOM     15  C   UNL     1       3.323   2.517  19.453  0.00  0.00    +0.000 A 
ATOM     16  C   UNL     1       2.593   3.713  19.266  0.00  0.00    +0.000 A 
BRANCH  16  17
ATOM     17  C   UNL     1       1.098   3.540  19.058  0.00  0.00    +0.000 C 
ATOM     18  F   UNL     1       0.593   2.284  19.037  0.00  0.00    +0.000 F 
ATOM     19  F   UNL     1       0.403   4.149  20.071  0.00  0.00    +0.000 F 
ATOM     20  F   UNL     1       0.665   4.151  17.919  0.00  0.00    +0.000 F 
ENDBRANCH  16  17
ENDBRANCH   5  11
BRANCH   1  21
ATOM     21  N   UNL     1       1.841  11.700  18.441  0.00  0.00    +0.000 NA
ATOM     22  H   UNL     1       2.119  12.044  19.358  0.00  0.00    +0.000 HD
ATOM     23  H   UNL     1       1.306  12.439  17.987  0.00  0.00    +0.000 HD
ENDBRANCH   1  21
BRANCH   8  24
ATOM     24  O   UNL     1       0.994   8.628  21.920  0.00  0.00    +0.000 OA
ATOM     25  H   UNL     1       0.245   9.209  22.160  0.00  0.00    +0.000 HD
ENDBRANCH   8  24
TORSDOF 4
ENDMDL
MODEL 6
REMARK VINA RESULT:      -7.1      3.979      6.651
REMARK  Name = 
REMARK  4 active torsions:
REMARK  status: ('A' for Active; 'I' for Inactive)
REMARK    1  A    between atoms: N_1  and  C_2
REMARK    2  A    between atoms: N_6  and  C_7
REMARK    3  A    between atoms: C_12  and  C_13
REMARK    4  A    between atoms: N_19  and  O_20
REMARK                            x       y       z     vdW  Elec       q    Type
REMARK                         _______ _______ _______ _____ _____    ______ ____
ROOT
ATOM      1  C   UNL     1       6.062   4.405  13.873  0.00  0.00    +0.000 C 
ATOM      2  C   UNL     1       4.693   3.974  14.444  0.00  0.00    +0.000 C 
ATOM      3  C   UNL     1       4.599   4.110  15.904  0.00  0.00    +0.000 A 
ATOM      4  C   UNL     1       3.607   3.764  16.787  0.00  0.00    +0.000 A 
ATOM      5  N   UNL     1       4.036   4.160  18.040  0.00  0.00    +0.000 N 
ATOM      6  N   UNL     1       5.286   4.679  17.992  0.00  0.00    +0.000 NA
ATOM      7  C   UNL     1       5.597   4.678  16.695  0.00  0.00    +0.000 A 
ATOM      8  N   UNL     1       6.764   5.164  16.167  0.00  0.00    +0.000 N 
ATOM      9  C   UNL     1       7.100   5.086  14.839  0.00  0.00    +0.000 C 
ATOM     10  O   UNL     1       8.172   5.504  14.391  0.00  0.00    +0.000 OA
ENDROOT
BRANCH   5  11
ATOM     11  C   UNL     1       3.369   3.955  19.273  0.00  0.00    +0.000 A 
ATOM     12  C   UNL     1       3.445   2.662  19.843  0.00  0.00    +0.000 A 
ATOM     13  C   UNL     1       2.897   2.399  21.090  0.00  0.00    +0.000 A 
ATOM     14  C   UNL     1       2.260   3.412  21.794  0.00  0.00    +0.000 A 
ATOM     15  C   UNL     1       2.158   4.685  21.229  0.00  0.00    +0.000 A 
ATOM     16  C   UNL     1       2.693   4.989  19.955  0.00  0.00    +0.000 A 
BRANCH  16  17
ATOM     17  C   UNL     1       2.390   6.384  19.436  0.00  0.00    +0.000 C 
ATOM     18  F   UNL     1       3.430   7.205  19.156  0.00  0.00    +0.000 F 
ATOM     19  F   UNL     1       1.708   6.312  18.249  0.00  0.00    +0.000 F 
ATOM     20  F   UNL     1       1.565   7.074  20.274  0.00  0.00    +0.000 F 
ENDBRANCH  16  17
ENDBRANCH   5  11
BRANCH   1  21
ATOM     21  N   UNL     1       6.711   3.268  13.178  0.00  0.00    +0.000 NA
ATOM     22  H   UNL     1       6.250   2.391  13.412  0.00  0.00    +0.000 HD
ATOM     23  H   UNL     1       7.685   3.188  13.468  0.00  0.00    +0.000 HD
ENDBRANCH   1  21
BRANCH   8  24
ATOM     24  O   UNL     1       7.672   5.744  17.076  0.00  0.00    +0.000 OA
ATOM     25  H   UNL     1       8.068   4.953  17.494  0.00  0.00    +0.000 HD
ENDBRANCH   8  24
TORSDOF 4
ENDMDL
MODEL 7
REMARK VINA RESULT:      -7.1      0.587      1.020
REMARK  Name = 
REMARK  4 active torsions:
REMARK  status: ('A' for Active; 'I' for Inactive)
REMARK    1  A    between atoms: N_1  and  C_2
REMARK    2  A    between atoms: N_6  and  C_7
REMARK    3  A    between atoms: C_12  and  C_13
REMARK    4  A    between atoms: N_19  and  O_20
REMARK                            x       y       z     vdW  Elec       q    Type
REMARK                         _______ _______ _______ _____ _____    ______ ____
ROOT
ATOM      1  C   UNL     1       0.613   9.801  20.952  0.00  0.00    +0.000 C 
ATOM      2  C   UNL     1       1.254   8.403  21.103  0.00  0.00    +0.000 C 
ATOM      3  C   UNL     1       1.960   7.951  19.897  0.00  0.00    +0.000 A 
ATOM      4  C   UNL     1       2.577   6.762  19.597  0.00  0.00    +0.000 A 
ATOM      5  N   UNL     1       3.115   6.902  18.331  0.00  0.00    +0.000 N 
ATOM      6  N   UNL     1       2.803   8.105  17.794  0.00  0.00    +0.000 NA
ATOM      7  C   UNL     1       2.141   8.740  18.762  0.00  0.00    +0.000 A 
ATOM      8  N   UNL     1       1.668  10.023  18.679  0.00  0.00    +0.000 N 
ATOM      9  C   UNL     1       0.923  10.635  19.655  0.00  0.00    +0.000 C 
ATOM     10  O   UNL     1       0.481  11.783  19.544  0.00  0.00    +0.000 OA
ENDROOT
BRANCH   5  11
ATOM     11  C   UNL     1       3.792   5.911  17.579  0.00  0.00    +0.000 A 
ATOM     12  C   UNL     1       5.014   6.281  16.971  0.00  0.00    +0.000 A 
ATOM     13  C   UNL     1       5.786   5.349  16.292  0.00  0.00    +0.000 A 
ATOM     14  C   UNL     1       5.357   4.032  16.201  0.00  0.00    +0.000 A 
ATOM     15  C   UNL     1       4.140   3.661  16.776  0.00  0.00    +0.000 A 
ATOM     16  C   UNL     1       3.320   4.585  17.465  0.00  0.00    +0.000 A 
BRANCH  16  17
ATOM     17  C   UNL     1       1.975   4.048  17.924  0.00  0.00    +0.000 C 
ATOM     18  F   UNL     1       1.694   2.743  17.701  0.00  0.00    +0.000 F 
ATOM     19  F   UNL     1       1.852   4.176  19.284  0.00  0.00    +0.000 F 
ATOM     20  F   UNL     1       0.935   4.763  17.409  0.00  0.00    +0.000 F 
ENDBRANCH  16  17
ENDBRANCH   5  11
BRANCH   1  21
ATOM     21  N   UNL     1      -0.854   9.718  21.144  0.00  0.00    +0.000 NA
ATOM     22  H   UNL     1      -1.261  10.648  21.222  0.00  0.00    +0.000 HD
ATOM     23  H   UNL     1      -1.069   9.218  22.006  0.00  0.00    +0.000 HD
ENDBRANCH   1  21
BRANCH   8  24
ATOM     24  O   UNL     1       1.952  10.722  17.487  0.00  0.00    +0.000 OA
ATOM     25  H   UNL     1       1.084  10.706  17.036  0.00  0.00    +0.000 HD
ENDBRANCH   8  24
TORSDOF 4
ENDMDL
MODEL 8
REMARK VINA RESULT:      -7.1      2.438      3.316
REMARK  Name = 
REMARK  4 active torsions:
REMARK  status: ('A' for Active; 'I' for Inactive)
REMARK    1  A    between atoms: N_1  and  C_2
REMARK    2  A    between atoms: N_6  and  C_7
REMARK    3  A    between atoms: C_12  and  C_13
REMARK    4  A    between atoms: N_19  and  O_20
REMARK                            x       y       z     vdW  Elec       q    Type
REMARK                         _______ _______ _______ _____ _____    ______ ____
ROOT
ATOM      1  C   UNL     1       0.947  11.084  19.309  0.00  0.00    +0.000 C 
ATOM      2  C   UNL     1       1.245  10.219  18.064  0.00  0.00    +0.000 C 
ATOM      3  C   UNL     1       1.721   8.867  18.392  0.00  0.00    +0.000 A 
ATOM      4  C   UNL     1       2.165   7.842  17.594  0.00  0.00    +0.000 A 
ATOM      5  N   UNL     1       2.449   6.781  18.433  0.00  0.00    +0.000 N 
ATOM      6  N   UNL     1       2.267   7.118  19.732  0.00  0.00    +0.000 NA
ATOM      7  C   UNL     1       1.793   8.364  19.689  0.00  0.00    +0.000 A 
ATOM      8  N   UNL     1       1.417   9.099  20.783  0.00  0.00    +0.000 N 
ATOM      9  C   UNL     1       1.003  10.405  20.727  0.00  0.00    +0.000 C 
ATOM     10  O   UNL     1       0.699  11.058  21.731  0.00  0.00    +0.000 OA
ENDROOT
BRANCH   5  11
ATOM     11  C   UNL     1       2.993   5.526  18.065  0.00  0.00    +0.000 A 
ATOM     12  C   UNL     1       2.315   4.369  18.514  0.00  0.00    +0.000 A 
ATOM     13  C   UNL     1       2.728   3.103  18.126  0.00  0.00    +0.000 A 
ATOM     14  C   UNL     1       3.825   2.961  17.287  0.00  0.00    +0.000 A 
ATOM     15  C   UNL     1       4.517   4.095  16.858  0.00  0.00    +0.000 A 
ATOM     16  C   UNL     1       4.134   5.401  17.243  0.00  0.00    +0.000 A 
BRANCH  16  17
ATOM     17  C   UNL     1       5.063   6.515  16.789  0.00  0.00    +0.000 C 
ATOM     18  F   UNL     1       5.326   7.524  17.653  0.00  0.00    +0.000 F 
ATOM     19  F   UNL     1       6.304   6.009  16.498  0.00  0.00    +0.000 F 
ATOM     20  F   UNL     1       4.639   7.095  15.631  0.00  0.00    +0.000 F 
ENDBRANCH  16  17
ENDBRANCH   5  11
BRANCH   1  21
ATOM     21  N   UNL     1       1.802  12.295  19.310  0.00  0.00    +0.000 NA
ATOM     22  H   UNL     1       1.392  13.026  18.732  0.00  0.00    +0.000 HD
ATOM     23  H   UNL     1       2.719  12.079  18.923  0.00  0.00    +0.000 HD
ENDBRANCH   1  21
BRANCH   8  24
ATOM     24  O   UNL     1       1.506   8.455  22.035  0.00  0.00    +0.000 OA
ATOM     25  H   UNL     1       1.289   7.531  21.799  0.00  0.00    +0.000 HD
ENDBRANCH   8  24
TORSDOF 4
ENDMDL
MODEL 9
REMARK VINA RESULT:      -7.0      1.676      2.174
REMARK  Name = 
REMARK  4 active torsions:
REMARK  status: ('A' for Active; 'I' for Inactive)
REMARK    1  A    between atoms: N_1  and  C_2
REMARK    2  A    between atoms: N_6  and  C_7
REMARK    3  A    between atoms: C_12  and  C_13
REMARK    4  A    between atoms: N_19  and  O_20
REMARK                            x       y       z     vdW  Elec       q    Type
REMARK                         _______ _______ _______ _____ _____    ______ ____
ROOT
ATOM      1  C   UNL     1       0.808  10.219  21.078  0.00  0.00    +0.000 C 
ATOM      2  C   UNL     1       1.248   8.821  21.567  0.00  0.00    +0.000 C 
ATOM      3  C   UNL     1       1.685   7.933  20.480  0.00  0.00    +0.000 A 
ATOM      4  C   UNL     1       2.065   6.614  20.481  0.00  0.00    +0.000 A 
ATOM      5  N   UNL     1       2.417   6.301  19.182  0.00  0.00    +0.000 N 
ATOM      6  N   UNL     1       2.210   7.349  18.350  0.00  0.00    +0.000 NA
ATOM      7  C   UNL     1       1.806   8.336  19.151  0.00  0.00    +0.000 A 
ATOM      8  N   UNL     1       1.524   9.613  18.743  0.00  0.00    +0.000 N 
ATOM      9  C   UNL     1       1.036  10.595  19.568  0.00  0.00    +0.000 C 
ATOM     10  O   UNL     1       0.759  11.731  19.171  0.00  0.00    +0.000 OA
ENDROOT
BRANCH   5  11
ATOM     11  C   UNL     1       2.815   5.035  18.689  0.00  0.00    +0.000 A 
ATOM     12  C   UNL     1       3.606   5.015  17.517  0.00  0.00    +0.000 A 
ATOM     13  C   UNL     1       4.114   3.825  17.017  0.00  0.00    +0.000 A 
ATOM     14  C   UNL     1       3.843   2.630  17.669  0.00  0.00    +0.000 A 
ATOM     15  C   UNL     1       3.042   2.635  18.813  0.00  0.00    +0.000 A 
ATOM     16  C   UNL     1       2.496   3.826  19.345  0.00  0.00    +0.000 A 
BRANCH  16  17
ATOM     17  C   UNL     1       1.550   3.643  20.520  0.00  0.00    +0.000 C 
ATOM     18  F   UNL     1       1.916   4.145  21.723  0.00  0.00    +0.000 F 
ATOM     19  F   UNL     1       0.352   4.259  20.265  0.00  0.00    +0.000 F 
ATOM     20  F   UNL     1       1.235   2.333  20.725  0.00  0.00    +0.000 F 
ENDBRANCH  16  17
ENDBRANCH   5  11
BRANCH   1  21
ATOM     21  N   UNL     1      -0.609  10.467  21.438  0.00  0.00    +0.000 NA
ATOM     22  H   UNL     1      -1.148   9.605  21.394  0.00  0.00    +0.000 HD
ATOM     23  H   UNL     1      -1.029  11.123  20.780  0.00  0.00    +0.000 HD
ENDBRANCH   1  21
BRANCH   8  24
ATOM     24  O   UNL     1       1.722   9.895  17.376  0.00  0.00    +0.000 OA
ATOM     25  H   UNL     1       2.696   9.972  17.328  0.00  0.00    +0.000 HD
ENDBRANCH   8  24
TORSDOF 4
ENDMDL
