MODEL 1
REMARK VINA RESULT:      -7.2      0.000      0.000
REMARK  Name = 
REMARK  2 active torsions:
REMARK  status: ('A' for Active; 'I' for Inactive)
REMARK    1  A    between atoms: C_4  and  C_5
REMARK    2  A    between atoms: C_14  and  O_15
REMARK                            x       y       z     vdW  Elec       q    Type
REMARK                         _______ _______ _______ _____ _____    ______ ____
ROOT
ATOM      1  O   UNL     1       4.319   6.131  16.901  0.00  0.00    +0.000 OA
ATOM      2  C   UNL     1       3.440   6.030  17.747  0.00  0.00    +0.000 C 
ATOM      3  C   UNL     1       2.755   7.216  18.341  0.00  0.00    +0.000 C 
ATOM      4  C   UNL     1       2.441   8.241  17.532  0.00  0.00    +0.000 C 
ATOM      5  C   UNL     1       2.405   7.054  19.783  0.00  0.00    +0.000 C 
ATOM      6  C   UNL     1       1.443   5.889  19.921  0.00  0.00    +0.000 C 
ATOM      7  C   UNL     1       1.947   4.635  19.245  0.00  0.00    +0.000 A 
ATOM      8  C   UNL     1       1.421   3.377  19.564  0.00  0.00    +0.000 A 
ATOM      9  C   UNL     1       1.893   2.222  18.946  0.00  0.00    +0.000 A 
ATOM     10  C   UNL     1       2.902   2.300  17.986  0.00  0.00    +0.000 A 
ATOM     11  C   UNL     1       3.421   3.544  17.628  0.00  0.00    +0.000 A 
ATOM     12  C   UNL     1       2.938   4.709  18.238  0.00  0.00    +0.000 A 
ENDROOT
BRANCH   4  13
ATOM     13  C   UNL     1       1.620   9.374  17.948  0.00  0.00    +0.000 A 
ATOM     14  C   UNL     1       0.235   9.255  18.029  0.00  0.00    +0.000 A 
ATOM     15  C   UNL     1      -0.480  10.324  18.540  0.00  0.00    +0.000 A 
ATOM     16  N   UNL     1       0.083  11.484  18.940  0.00  0.00    +0.000 NA
ATOM     17  C   UNL     1       1.424  11.588  18.810  0.00  0.00    +0.000 A 
ATOM     18  C   UNL     1       2.227  10.577  18.311  0.00  0.00    +0.000 A 
ENDBRANCH   4  13
BRANCH   8  19
ATOM     19  O   UNL     1       0.417   3.198  20.473  0.00  0.00    +0.000 OA
ATOM     20  H   UNL     1       0.650   2.503  21.103  0.00  0.00    +0.000 HD
ENDBRANCH   8  19
TORSDOF 2
ENDMDL
MODEL 2
REMARK VINA RESULT:      -7.1      0.322      1.123
REMARK  Name = 
REMARK  2 active torsions:
REMARK  status: ('A' for Active; 'I' for Inactive)
REMARK    1  A    between atoms: C_4  and  C_5
REMARK    2  A    between atoms: C_14  and  O_15
REMARK                            x       y       z     vdW  Elec       q    Type
REMARK                         _______ _______ _______ _____ _____    ______ ____
ROOT
ATOM      1  O   UNL     1       4.272   6.491  16.972  0.00  0.00    +0.000 OA
ATOM      2  C   UNL     1       3.407   6.326  17.824  0.00  0.00    +0.000 C 
ATOM      3  C   UNL     1       2.657   7.460  18.439  0.00  0.00    +0.000 C 
ATOM      4  C   UNL     1       2.275   8.476  17.648  0.00  0.00    +0.000 C 
ATOM      5  C   UNL     1       2.329   7.257  19.881  0.00  0.00    +0.000 C 
ATOM      6  C   UNL     1       1.440   6.035  20.010  0.00  0.00    +0.000 C 
ATOM      7  C   UNL     1       2.013   4.823  19.312  0.00  0.00    +0.000 A 
ATOM      8  C   UNL     1       1.566   3.531  19.617  0.00  0.00    +0.000 A 
ATOM      9  C   UNL     1       2.102   2.415  18.979  0.00  0.00    +0.000 A 
ATOM     10  C   UNL     1       3.097   2.568  18.013  0.00  0.00    +0.000 A 
ATOM     11  C   UNL     1       3.537   3.846  17.669  0.00  0.00    +0.000 A 
ATOM     12  C   UNL     1       2.989   4.971  18.299  0.00  0.00    +0.000 A 
ENDROOT
BRANCH   4  13
ATOM     13  C   UNL     1       1.391   9.551  18.086  0.00  0.00    +0.000 A 
ATOM     14  C   UNL     1       1.913  10.754  18.552  0.00  0.00    +0.000 A 
ATOM     15  C   UNL     1       1.028  11.778  18.842  0.00  0.00    +0.000 A 
ATOM     16  N   UNL     1      -0.313  11.670  18.723  0.00  0.00    +0.000 NA
ATOM     17  C   UNL     1      -0.794  10.478  18.309  0.00  0.00    +0.000 A 
ATOM     18  C   UNL     1       0.007   9.394  17.995  0.00  0.00    +0.000 A 
ENDBRANCH   4  13
BRANCH   8  19
ATOM     19  O   UNL     1       0.583   3.279  20.531  0.00  0.00    +0.000 OA
ATOM     20  H   UNL     1      -0.109   2.728  20.142  0.00  0.00    +0.000 HD
ENDBRANCH   8  19
TORSDOF 2
ENDMDL
MODEL 3
REMARK VINA RESULT:      -6.9      4.590      5.668
REMARK  Name = 
REMARK  2 active torsions:
REMARK  status: ('A' for Active; 'I' for Inactive)
REMARK    1  A    between atoms: C_4  and  C_5
REMARK    2  A    between atoms: C_14  and  O_15
REMARK                            x       y       z     vdW  Elec       q    Type
REMARK                         _______ _______ _______ _____ _____    ______ ____
ROOT
ATOM      1  O   UNL     1       1.138   4.397  17.360  0.00  0.00    +0.000 OA
ATOM      2  C   UNL     1       2.109   3.859  17.878  0.00  0.00    +0.000 C 
ATOM      3  C   UNL     1       3.434   3.762  17.195  0.00  0.00    +0.000 C 
ATOM      4  C   UNL     1       3.868   4.821  16.493  0.00  0.00    +0.000 C 
ATOM      5  C   UNL     1       4.170   2.496  17.482  0.00  0.00    +0.000 C 
ATOM      6  C   UNL     1       4.448   2.422  18.972  0.00  0.00    +0.000 C 
ATOM      7  C   UNL     1       3.207   2.638  19.806  0.00  0.00    +0.000 A 
ATOM      8  C   UNL     1       3.158   2.243  21.149  0.00  0.00    +0.000 A 
ATOM      9  C   UNL     1       2.009   2.434  21.914  0.00  0.00    +0.000 A 
ATOM     10  C   UNL     1       0.882   3.033  21.351  0.00  0.00    +0.000 A 
ATOM     11  C   UNL     1       0.916   3.464  20.025  0.00  0.00    +0.000 A 
ATOM     12  C   UNL     1       2.075   3.285  19.258  0.00  0.00    +0.000 A 
ENDROOT
BRANCH   4  13
ATOM     13  C   UNL     1       5.211   4.920  15.931  0.00  0.00    +0.000 A 
ATOM     14  C   UNL     1       5.470   4.491  14.632  0.00  0.00    +0.000 A 
ATOM     15  C   UNL     1       6.733   4.718  14.112  0.00  0.00    +0.000 A 
ATOM     16  N   UNL     1       7.735   5.307  14.800  0.00  0.00    +0.000 NA
ATOM     17  C   UNL     1       7.468   5.674  16.072  0.00  0.00    +0.000 A 
ATOM     18  C   UNL     1       6.239   5.492  16.681  0.00  0.00    +0.000 A 
ENDBRANCH   4  13
BRANCH   8  19
ATOM     19  O   UNL     1       4.215   1.669  21.797  0.00  0.00    +0.000 OA
ATOM     20  H   UNL     1       4.067   1.667  22.751  0.00  0.00    +0.000 HD
ENDBRANCH   8  19
TORSDOF 2
ENDMDL
MODEL 4
REMARK VINA RESULT:      -6.9      4.526      5.656
REMARK  Name = 
REMARK  2 active torsions:
REMARK  status: ('A' for Active; 'I' for Inactive)
REMARK    1  A    between atoms: C_4  and  C_5
REMARK    2  A    between atoms: C_14  and  O_15
REMARK                            x       y       z     vdW  Elec       q    Type
REMARK                         _______ _______ _______ _____ _____    ______ ____
ROOT
ATOM      1  O   UNL     1       1.071   4.421  17.396  0.00  0.00    +0.000 OA
ATOM      2  C   UNL     1       2.066   3.909  17.894  0.00  0.00    +0.000 C 
ATOM      3  C   UNL     1       3.387   3.876  17.198  0.00  0.00    +0.000 C 
ATOM      4  C   UNL     1       3.774   4.965  16.516  0.00  0.00    +0.000 C 
ATOM      5  C   UNL     1       4.173   2.633  17.451  0.00  0.00    +0.000 C 
ATOM      6  C   UNL     1       4.467   2.538  18.936  0.00  0.00    +0.000 C 
ATOM      7  C   UNL     1       3.227   2.688  19.786  0.00  0.00    +0.000 A 
ATOM      8  C   UNL     1       3.205   2.264  21.121  0.00  0.00    +0.000 A 
ATOM      9  C   UNL     1       2.058   2.395  21.899  0.00  0.00    +0.000 A 
ATOM     10  C   UNL     1       0.904   2.963  21.359  0.00  0.00    +0.000 A 
ATOM     11  C   UNL     1       0.909   3.423  20.043  0.00  0.00    +0.000 A 
ATOM     12  C   UNL     1       2.067   3.304  19.262  0.00  0.00    +0.000 A 
ENDROOT
BRANCH   4  13
ATOM     13  C   UNL     1       5.108   5.127  15.944  0.00  0.00    +0.000 A 
ATOM     14  C   UNL     1       6.113   5.771  16.660  0.00  0.00    +0.000 A 
ATOM     15  C   UNL     1       7.387   5.791  16.117  0.00  0.00    +0.000 A 
ATOM     16  N   UNL     1       7.703   5.246  14.922  0.00  0.00    +0.000 NA
ATOM     17  C   UNL     1       6.699   4.666  14.230  0.00  0.00    +0.000 A 
ATOM     18  C   UNL     1       5.395   4.594  14.687  0.00  0.00    +0.000 A 
ENDBRANCH   4  13
BRANCH   8  19
ATOM     19  O   UNL     1       4.289   1.716  21.746  0.00  0.00    +0.000 OA
ATOM     20  H   UNL     1       4.020   0.973  22.302  0.00  0.00    +0.000 HD
ENDBRANCH   8  19
TORSDOF 2
ENDMDL
MODEL 5
REMARK VINA RESULT:      -6.8      4.360      6.830
REMARK  Name = 
REMARK  2 active torsions:
REMARK  status: ('A' for Active; 'I' for Inactive)
REMARK    1  A    between atoms: C_4  and  C_5
REMARK    2  A    between atoms: C_14  and  O_15
REMARK                            x       y       z     vdW  Elec       q    Type
REMARK                         _______ _______ _______ _____ _____    ______ ____
ROOT
ATOM      1  O   UNL     1       5.327   3.662  18.732  0.00  0.00    +0.000 OA
ATOM      2  C   UNL     1       5.047   4.660  18.080  0.00  0.00    +0.000 C 
ATOM      3  C   UNL     1       5.662   4.952  16.751  0.00  0.00    +0.000 C 
ATOM      4  C   UNL     1       5.844   3.933  15.896  0.00  0.00    +0.000 C 
ATOM      5  C   UNL     1       5.903   6.404  16.502  0.00  0.00    +0.000 C 
ATOM      6  C   UNL     1       4.571   7.129  16.528  0.00  0.00    +0.000 C 
ATOM      7  C   UNL     1       3.766   6.823  17.769  0.00  0.00    +0.000 A 
ATOM      8  C   UNL     1       2.711   7.652  18.173  0.00  0.00    +0.000 A 
ATOM      9  C   UNL     1       1.977   7.373  19.323  0.00  0.00    +0.000 A 
ATOM     10  C   UNL     1       2.277   6.251  20.094  0.00  0.00    +0.000 A 
ATOM     11  C   UNL     1       3.302   5.392  19.696  0.00  0.00    +0.000 A 
ATOM     12  C   UNL     1       4.033   5.663  18.532  0.00  0.00    +0.000 A 
ENDROOT
BRANCH   4  13
ATOM     13  C   UNL     1       6.268   4.109  14.510  0.00  0.00    +0.000 A 
ATOM     14  C   UNL     1       7.335   4.945  14.195  0.00  0.00    +0.000 A 
ATOM     15  C   UNL     1       7.766   4.980  12.880  0.00  0.00    +0.000 A 
ATOM     16  N   UNL     1       7.195   4.273  11.882  0.00  0.00    +0.000 NA
ATOM     17  C   UNL     1       6.134   3.504  12.209  0.00  0.00    +0.000 A 
ATOM     18  C   UNL     1       5.629   3.399  13.493  0.00  0.00    +0.000 A 
ENDBRANCH   4  13
BRANCH   8  19
ATOM     19  O   UNL     1       2.326   8.762  17.475  0.00  0.00    +0.000 OA
ATOM     20  H   UNL     1       1.426   8.657  17.142  0.00  0.00    +0.000 HD
ENDBRANCH   8  19
TORSDOF 2
ENDMDL
MODEL 6
REMARK VINA RESULT:      -6.6      1.013      1.098
REMARK  Name = 
REMARK  2 active torsions:
REMARK  status: ('A' for Active; 'I' for Inactive)
REMARK    1  A    between atoms: C_4  and  C_5
REMARK    2  A    between atoms: C_14  and  O_15
REMARK                            x       y       z     vdW  Elec       q    Type
REMARK                         _______ _______ _______ _____ _____    ______ ____
ROOT
ATOM      1  O   UNL     1       3.969   6.328  17.140  0.00  0.00    +0.000 OA
ATOM      2  C   UNL     1       3.173   6.065  18.033  0.00  0.00    +0.000 C 
ATOM      3  C   UNL     1       2.518   7.120  18.862  0.00  0.00    +0.000 C 
ATOM      4  C   UNL     1       2.108   8.245  18.254  0.00  0.00    +0.000 C 
ATOM      5  C   UNL     1       2.305   6.725  20.285  0.00  0.00    +0.000 C 
ATOM      6  C   UNL     1       1.387   5.517  20.322  0.00  0.00    +0.000 C 
ATOM      7  C   UNL     1       1.855   4.402  19.417  0.00  0.00    +0.000 A 
ATOM      8  C   UNL     1       1.389   3.091  19.579  0.00  0.00    +0.000 A 
ATOM      9  C   UNL     1       1.831   2.063  18.750  0.00  0.00    +0.000 A 
ATOM     10  C   UNL     1       2.746   2.326  17.730  0.00  0.00    +0.000 A 
ATOM     11  C   UNL     1       3.201   3.629  17.528  0.00  0.00    +0.000 A 
ATOM     12  C   UNL     1       2.748   4.667  18.352  0.00  0.00    +0.000 A 
ENDROOT
BRANCH   4  13
ATOM     13  C   UNL     1       1.302   9.269  18.911  0.00  0.00    +0.000 A 
ATOM     14  C   UNL     1       0.731  10.303  18.174  0.00  0.00    +0.000 A 
ATOM     15  C   UNL     1      -0.118  11.177  18.832  0.00  0.00    +0.000 A 
ATOM     16  N   UNL     1      -0.404  11.100  20.149  0.00  0.00    +0.000 NA
ATOM     17  C   UNL     1       0.197  10.113  20.847  0.00  0.00    +0.000 A 
ATOM     18  C   UNL     1       1.060   9.190  20.283  0.00  0.00    +0.000 A 
ENDBRANCH   4  13
BRANCH   8  19
ATOM     19  O   UNL     1       0.478   2.737  20.532  0.00  0.00    +0.000 OA
ATOM     20  H   UNL     1      -0.082   2.016  20.215  0.00  0.00    +0.000 HD
ENDBRANCH   8  19
TORSDOF 2
ENDMDL
MODEL 7
REMARK VINA RESULT:      -6.6      3.219      6.649
REMARK  Name = 
REMARK  2 active torsions:
REMARK  status: ('A' for Active; 'I' for Inactive)
REMARK    1  A    between atoms: C_4  and  C_5
REMARK    2  A    between atoms: C_14  and  O_15
REMARK                            x       y       z     vdW  Elec       q    Type
REMARK                         _______ _______ _______ _____ _____    ______ ____
ROOT
ATOM      1  O   UNL     1       1.651   8.572  21.889  0.00  0.00    +0.000 OA
ATOM      2  C   UNL     1       1.406   8.686  20.694  0.00  0.00    +0.000 C 
ATOM      3  C   UNL     1       2.054   7.831  19.655  0.00  0.00    +0.000 C 
ATOM      4  C   UNL     1       2.229   6.528  19.922  0.00  0.00    +0.000 C 
ATOM      5  C   UNL     1       2.333   8.544  18.374  0.00  0.00    +0.000 C 
ATOM      6  C   UNL     1       1.018   9.016  17.783  0.00  0.00    +0.000 C 
ATOM      7  C   UNL     1       0.182   9.794  18.773  0.00  0.00    +0.000 A 
ATOM      8  C   UNL     1      -0.861  10.626  18.346  0.00  0.00    +0.000 A 
ATOM      9  C   UNL     1      -1.624  11.349  19.259  0.00  0.00    +0.000 A 
ATOM     10  C   UNL     1      -1.365  11.250  20.626  0.00  0.00    +0.000 A 
ATOM     11  C   UNL     1      -0.353  10.404  21.079  0.00  0.00    +0.000 A 
ATOM     12  C   UNL     1       0.407   9.665  20.163  0.00  0.00    +0.000 A 
ENDROOT
BRANCH   4  13
ATOM     13  C   UNL     1       2.684   5.555  18.933  0.00  0.00    +0.000 A 
ATOM     14  C   UNL     1       4.043   5.349  18.713  0.00  0.00    +0.000 A 
ATOM     15  C   UNL     1       4.414   4.332  17.850  0.00  0.00    +0.000 A 
ATOM     16  N   UNL     1       3.536   3.549  17.188  0.00  0.00    +0.000 NA
ATOM     17  C   UNL     1       2.224   3.800  17.388  0.00  0.00    +0.000 A 
ATOM     18  C   UNL     1       1.752   4.790  18.230  0.00  0.00    +0.000 A 
ENDBRANCH   4  13
BRANCH   8  19
ATOM     19  O   UNL     1      -1.206  10.773  17.033  0.00  0.00    +0.000 OA
ATOM     20  H   UNL     1      -0.929  10.003  16.520  0.00  0.00    +0.000 HD
ENDBRANCH   8  19
TORSDOF 2
ENDMDL
MODEL 8
REMARK VINA RESULT:      -6.6      4.343      6.772
REMARK  Name = 
REMARK  2 active torsions:
REMARK  status: ('A' for Active; 'I' for Inactive)
REMARK    1  A    between atoms: C_4  and  C_5
REMARK    2  A    between atoms: C_14  and  O_15
REMARK                            x       y       z     vdW  Elec       q    Type
REMARK                         _______ _______ _______ _____ _____    ______ ____
ROOT
ATOM      1  O   UNL     1       5.267   3.633  18.728  0.00  0.00    +0.000 OA
ATOM      2  C   UNL     1       5.042   4.634  18.059  0.00  0.00    +0.000 C 
ATOM      3  C   UNL     1       5.703   4.888  16.746  0.00  0.00    +0.000 C 
ATOM      4  C   UNL     1       5.872   3.854  15.906  0.00  0.00    +0.000 C 
ATOM      5  C   UNL     1       6.004   6.327  16.488  0.00  0.00    +0.000 C 
ATOM      6  C   UNL     1       4.699   7.101  16.469  0.00  0.00    +0.000 C 
ATOM      7  C   UNL     1       3.849   6.838  17.691  0.00  0.00    +0.000 A 
ATOM      8  C   UNL     1       2.815   7.709  18.056  0.00  0.00    +0.000 A 
ATOM      9  C   UNL     1       2.039   7.470  19.188  0.00  0.00    +0.000 A 
ATOM     10  C   UNL     1       2.277   6.345  19.978  0.00  0.00    +0.000 A 
ATOM     11  C   UNL     1       3.280   5.446  19.618  0.00  0.00    +0.000 A 
ATOM     12  C   UNL     1       4.053   5.677  18.473  0.00  0.00    +0.000 A 
ENDROOT
BRANCH   4  13
ATOM     13  C   UNL     1       6.340   3.999  14.531  0.00  0.00    +0.000 A 
ATOM     14  C   UNL     1       5.707   3.323  13.492  0.00  0.00    +0.000 A 
ATOM     15  C   UNL     1       6.119   3.590  12.197  0.00  0.00    +0.000 A 
ATOM     16  N   UNL     1       7.115   4.446  11.886  0.00  0.00    +0.000 NA
ATOM     17  C   UNL     1       7.740   5.055  12.917  0.00  0.00    +0.000 A 
ATOM     18  C   UNL     1       7.402   4.857  14.244  0.00  0.00    +0.000 A 
ENDBRANCH   4  13
BRANCH   8  19
ATOM     19  O   UNL     1       2.490   8.823  17.337  0.00  0.00    +0.000 OA
ATOM     20  H   UNL     1       1.531   8.937  17.302  0.00  0.00    +0.000 HD
ENDBRANCH   8  19
TORSDOF 2
ENDMDL
MODEL 9
REMARK VINA RESULT:      -6.6      3.196      6.557
REMARK  Name = 
REMARK  2 active torsions:
REMARK  status: ('A' for Active; 'I' for Inactive)
REMARK    1  A    between atoms: C_4  and  C_5
REMARK    2  A    between atoms: C_14  and  O_15
REMARK                            x       y       z     vdW  Elec       q    Type
REMARK                         _______ _______ _______ _____ _____    ______ ____
ROOT
ATOM      1  O   UNL     1       1.646   8.625  21.962  0.00  0.00    +0.000 OA
ATOM      2  C   UNL     1       1.399   8.687  20.764  0.00  0.00    +0.000 C 
ATOM      3  C   UNL     1       2.022   7.767  19.766  0.00  0.00    +0.000 C 
ATOM      4  C   UNL     1       2.168   6.474  20.096  0.00  0.00    +0.000 C 
ATOM      5  C   UNL     1       2.312   8.409  18.451  0.00  0.00    +0.000 C 
ATOM      6  C   UNL     1       1.006   8.883  17.842  0.00  0.00    +0.000 C 
ATOM      7  C   UNL     1       0.193   9.728  18.795  0.00  0.00    +0.000 A 
ATOM      8  C   UNL     1      -0.832  10.563  18.332  0.00  0.00    +0.000 A 
ATOM      9  C   UNL     1      -1.574  11.348  19.211  0.00  0.00    +0.000 A 
ATOM     10  C   UNL     1      -1.311  11.309  20.580  0.00  0.00    +0.000 A 
ATOM     11  C   UNL     1      -0.317  10.462  21.071  0.00  0.00    +0.000 A 
ATOM     12  C   UNL     1       0.421   9.661  20.189  0.00  0.00    +0.000 A 
ENDROOT
BRANCH   4  13
ATOM     13  C   UNL     1       2.595   5.444  19.154  0.00  0.00    +0.000 A 
ATOM     14  C   UNL     1       1.658   4.725  18.417  0.00  0.00    +0.000 A 
ATOM     15  C   UNL     1       2.125   3.845  17.455  0.00  0.00    +0.000 A 
ATOM     16  N   UNL     1       3.434   3.625  17.209  0.00  0.00    +0.000 NA
ATOM     17  C   UNL     1       4.320   4.304  17.969  0.00  0.00    +0.000 A 
ATOM     18  C   UNL     1       3.955   5.206  18.953  0.00  0.00    +0.000 A 
ENDBRANCH   4  13
BRANCH   8  19
ATOM     19  O   UNL     1      -1.179  10.654  17.014  0.00  0.00    +0.000 OA
ATOM     20  H   UNL     1      -1.853  11.336  16.887  0.00  0.00    +0.000 HD
ENDBRANCH   8  19
TORSDOF 2
ENDMDL
