MODEL 1
REMARK VINA RESULT:      -7.8      0.000      0.000
REMARK  Name = 
REMARK  2 active torsions:
REMARK  status: ('A' for Active; 'I' for Inactive)
REMARK    1  A    between atoms: C_5  and  C_6
REMARK    2  A    between atoms: C_8  and  C_9
REMARK                            x       y       z     vdW  Elec       q    Type
REMARK                         _______ _______ _______ _____ _____    ______ ____
ROOT
ATOM      1  C   UNL     1       2.775   3.079  20.894  0.00  0.00    +0.000 A 
ATOM      2  C   UNL     1       3.770   2.706  20.007  0.00  0.00    +0.000 A 
ATOM      3  C   UNL     1       4.205   3.617  19.043  0.00  0.00    +0.000 A 
ATOM      4  C   UNL     1       3.649   4.922  18.944  0.00  0.00    +0.000 A 
ATOM      5  C   UNL     1       4.044   5.909  17.996  0.00  0.00    +0.000 A 
ATOM      6  C   UNL     1       3.429   7.167  18.026  0.00  0.00    +0.000 A 
ATOM      7  C   UNL     1       2.455   7.405  18.971  0.00  0.00    +0.000 A 
ATOM      8  N   UNL     1       2.058   6.492  19.876  0.00  0.00    +0.000 NA
ATOM      9  C   UNL     1       2.641   5.284  19.865  0.00  0.00    +0.000 A 
ATOM     10  C   UNL     1       2.223   4.359  20.813  0.00  0.00    +0.000 A 
ENDROOT
BRANCH   5  11
ATOM     11  C   UNL     1       5.066   5.651  16.984  0.00  0.00    +0.000 A 
ATOM     12  N   UNL     1       5.069   4.827  15.958  0.00  0.00    +0.000 NA
ATOM     13  C   UNL     1       6.316   5.016  15.423  0.00  0.00    +0.000 A 
ATOM     14  N   UNL     1       7.069   5.920  16.061  0.00  0.00    +0.000 NA
ATOM     15  O   UNL     1       6.238   6.349  17.101  0.00  0.00    +0.000 OA
BRANCH  13  16
ATOM     16  C   UNL     1       6.803   4.256  14.251  0.00  0.00    +0.000 C 
ATOM     17  C   UNL     1       5.700   3.696  13.374  0.00  0.00    +0.000 C 
ATOM     18  C   UNL     1       6.411   3.480  12.056  0.00  0.00    +0.000 C 
ATOM     19  O   UNL     1       7.474   4.440  11.981  0.00  0.00    +0.000 OA
ATOM     20  C   UNL     1       7.578   5.099  13.255  0.00  0.00    +0.000 C 
ENDBRANCH  13  16
ENDBRANCH   5  11
TORSDOF 2
ENDMDL
MODEL 2
REMARK VINA RESULT:      -7.7      1.272      1.272
REMARK  Name = 
REMARK  2 active torsions:
REMARK  status: ('A' for Active; 'I' for Inactive)
REMARK    1  A    between atoms: C_5  and  C_6
REMARK    2  A    between atoms: C_8  and  C_9
REMARK                            x       y       z     vdW  Elec       q    Type
REMARK                         _______ _______ _______ _____ _____    ______ ____
ROOT
ATOM      1  C   UNL     1       1.091   2.257  19.410  0.00  0.00    +0.000 A 
ATOM      2  C   UNL     1       1.918   2.062  18.317  0.00  0.00    +0.000 A 
ATOM      3  C   UNL     1       2.690   3.124  17.844  0.00  0.00    +0.000 A 
ATOM      4  C   UNL     1       2.648   4.409  18.454  0.00  0.00    +0.000 A 
ATOM      5  C   UNL     1       3.409   5.537  18.036  0.00  0.00    +0.000 A 
ATOM      6  C   UNL     1       3.290   6.739  18.745  0.00  0.00    +0.000 A 
ATOM      7  C   UNL     1       2.431   6.791  19.820  0.00  0.00    +0.000 A 
ATOM      8  N   UNL     1       1.696   5.744  20.236  0.00  0.00    +0.000 NA
ATOM      9  C   UNL     1       1.803   4.583  19.572  0.00  0.00    +0.000 A 
ATOM     10  C   UNL     1       1.042   3.511  20.023  0.00  0.00    +0.000 A 
ENDROOT
BRANCH   5  11
ATOM     11  C   UNL     1       4.308   5.486  16.884  0.00  0.00    +0.000 A 
ATOM     12  N   UNL     1       4.755   4.462  16.190  0.00  0.00    +0.000 NA
ATOM     13  C   UNL     1       5.583   5.057  15.275  0.00  0.00    +0.000 A 
ATOM     14  N   UNL     1       5.653   6.391  15.366  0.00  0.00    +0.000 NA
ATOM     15  O   UNL     1       4.802   6.682  16.436  0.00  0.00    +0.000 OA
BRANCH  13  16
ATOM     16  C   UNL     1       6.362   4.283  14.284  0.00  0.00    +0.000 C 
ATOM     17  C   UNL     1       5.518   3.633  13.205  0.00  0.00    +0.000 C 
ATOM     18  C   UNL     1       6.525   3.408  12.097  0.00  0.00    +0.000 C 
ATOM     19  O   UNL     1       7.532   4.420  12.223  0.00  0.00    +0.000 OA
ATOM     20  C   UNL     1       7.309   5.130  13.454  0.00  0.00    +0.000 C 
ENDBRANCH  13  16
ENDBRANCH   5  11
TORSDOF 2
ENDMDL
MODEL 3
REMARK VINA RESULT:      -7.7      3.239      7.058
REMARK  Name = 
REMARK  2 active torsions:
REMARK  status: ('A' for Active; 'I' for Inactive)
REMARK    1  A    between atoms: C_5  and  C_6
REMARK    2  A    between atoms: C_8  and  C_9
REMARK                            x       y       z     vdW  Elec       q    Type
REMARK                         _______ _______ _______ _____ _____    ______ ____
ROOT
ATOM      1  C   UNL     1       2.521   2.441  18.093  0.00  0.00    +0.000 A 
ATOM      2  C   UNL     1       1.597   3.380  18.519  0.00  0.00    +0.000 A 
ATOM      3  C   UNL     1       1.920   4.736  18.456  0.00  0.00    +0.000 A 
ATOM      4  C   UNL     1       3.179   5.183  17.968  0.00  0.00    +0.000 A 
ATOM      5  C   UNL     1       3.579   6.546  17.865  0.00  0.00    +0.000 A 
ATOM      6  C   UNL     1       4.842   6.847  17.341  0.00  0.00    +0.000 A 
ATOM      7  C   UNL     1       5.660   5.810  16.948  0.00  0.00    +0.000 A 
ATOM      8  N   UNL     1       5.312   4.514  17.037  0.00  0.00    +0.000 NA
ATOM      9  C   UNL     1       4.103   4.208  17.531  0.00  0.00    +0.000 A 
ATOM     10  C   UNL     1       3.760   2.864  17.607  0.00  0.00    +0.000 A 
ENDROOT
BRANCH   5  11
ATOM     11  C   UNL     1       2.717   7.644  18.298  0.00  0.00    +0.000 A 
ATOM     12  N   UNL     1       2.071   7.834  19.428  0.00  0.00    +0.000 NA
ATOM     13  C   UNL     1       1.415   9.016  19.205  0.00  0.00    +0.000 A 
ATOM     14  N   UNL     1       1.637   9.562  18.004  0.00  0.00    +0.000 NA
ATOM     15  O   UNL     1       2.508   8.653  17.396  0.00  0.00    +0.000 OA
BRANCH  13  16
ATOM     16  C   UNL     1       0.507   9.623  20.202  0.00  0.00    +0.000 C 
ATOM     17  C   UNL     1       0.257   8.757  21.421  0.00  0.00    +0.000 C 
ATOM     18  C   UNL     1      -0.200   9.767  22.450  0.00  0.00    +0.000 C 
ATOM     19  O   UNL     1       0.411  11.021  22.118  0.00  0.00    +0.000 OA
ATOM     20  C   UNL     1       1.057  10.886  20.841  0.00  0.00    +0.000 C 
ENDBRANCH  13  16
ENDBRANCH   5  11
TORSDOF 2
ENDMDL
MODEL 4
REMARK VINA RESULT:      -7.7      2.194      2.959
REMARK  Name = 
REMARK  2 active torsions:
REMARK  status: ('A' for Active; 'I' for Inactive)
REMARK    1  A    between atoms: C_5  and  C_6
REMARK    2  A    between atoms: C_8  and  C_9
REMARK                            x       y       z     vdW  Elec       q    Type
REMARK                         _______ _______ _______ _____ _____    ______ ____
ROOT
ATOM      1  C   UNL     1       2.982   3.550  18.939  0.00  0.00    +0.000 A 
ATOM      2  C   UNL     1       3.060   3.355  17.570  0.00  0.00    +0.000 A 
ATOM      3  C   UNL     1       4.198   3.780  16.883  0.00  0.00    +0.000 A 
ATOM      4  C   UNL     1       5.282   4.414  17.549  0.00  0.00    +0.000 A 
ATOM      5  C   UNL     1       6.477   4.867  16.921  0.00  0.00    +0.000 A 
ATOM      6  C   UNL     1       7.479   5.453  17.704  0.00  0.00    +0.000 A 
ATOM      7  C   UNL     1       7.270   5.579  19.060  0.00  0.00    +0.000 A 
ATOM      8  N   UNL     1       6.152   5.165  19.682  0.00  0.00    +0.000 NA
ATOM      9  C   UNL     1       5.184   4.596  18.947  0.00  0.00    +0.000 A 
ATOM     10  C   UNL     1       4.041   4.167  19.610  0.00  0.00    +0.000 A 
ENDROOT
BRANCH   5  11
ATOM     11  C   UNL     1       6.690   4.748  15.479  0.00  0.00    +0.000 A 
ATOM     12  N   UNL     1       6.132   3.954  14.592  0.00  0.00    +0.000 NA
ATOM     13  C   UNL     1       6.779   4.294  13.434  0.00  0.00    +0.000 A 
ATOM     14  N   UNL     1       7.692   5.263  13.565  0.00  0.00    +0.000 NA
ATOM     15  O   UNL     1       7.635   5.572  14.928  0.00  0.00    +0.000 OA
BRANCH  13  16
ATOM     16  C   UNL     1       6.510   3.621  12.144  0.00  0.00    +0.000 C 
ATOM     17  C   UNL     1       7.473   2.495  11.821  0.00  0.00    +0.000 C 
ATOM     18  C   UNL     1       6.691   1.677  10.816  0.00  0.00    +0.000 C 
ATOM     19  O   UNL     1       5.299   1.864  11.105  0.00  0.00    +0.000 OA
ATOM     20  C   UNL     1       5.177   2.897  12.098  0.00  0.00    +0.000 C 
ENDBRANCH  13  16
ENDBRANCH   5  11
TORSDOF 2
ENDMDL
MODEL 5
REMARK VINA RESULT:      -7.4      3.495      6.891
REMARK  Name = 
REMARK  2 active torsions:
REMARK  status: ('A' for Active; 'I' for Inactive)
REMARK    1  A    between atoms: C_5  and  C_6
REMARK    2  A    between atoms: C_8  and  C_9
REMARK                            x       y       z     vdW  Elec       q    Type
REMARK                         _______ _______ _______ _____ _____    ______ ____
ROOT
ATOM      1  C   UNL     1       2.291   2.334  17.943  0.00  0.00    +0.000 A 
ATOM      2  C   UNL     1       1.382   3.263  18.420  0.00  0.00    +0.000 A 
ATOM      3  C   UNL     1       1.721   4.617  18.414  0.00  0.00    +0.000 A 
ATOM      4  C   UNL     1       2.981   5.071  17.933  0.00  0.00    +0.000 A 
ATOM      5  C   UNL     1       3.396   6.432  17.887  0.00  0.00    +0.000 A 
ATOM      6  C   UNL     1       4.658   6.742  17.363  0.00  0.00    +0.000 A 
ATOM      7  C   UNL     1       5.459   5.714  16.916  0.00  0.00    +0.000 A 
ATOM      8  N   UNL     1       5.096   4.419  16.950  0.00  0.00    +0.000 NA
ATOM      9  C   UNL     1       3.889   4.105  17.444  0.00  0.00    +0.000 A 
ATOM     10  C   UNL     1       3.530   2.763  17.462  0.00  0.00    +0.000 A 
ENDROOT
BRANCH   5  11
ATOM     11  C   UNL     1       2.552   7.520  18.377  0.00  0.00    +0.000 A 
ATOM     12  N   UNL     1       2.006   8.535  17.743  0.00  0.00    +0.000 NA
ATOM     13  C   UNL     1       1.374   9.215  18.749  0.00  0.00    +0.000 A 
ATOM     14  N   UNL     1       1.496   8.662  19.962  0.00  0.00    +0.000 NA
ATOM     15  O   UNL     1       2.278   7.529  19.719  0.00  0.00    +0.000 OA
BRANCH  13  16
ATOM     16  C   UNL     1       0.642  10.480  18.519  0.00  0.00    +0.000 C 
ATOM     17  C   UNL     1      -0.832  10.295  18.217  0.00  0.00    +0.000 C 
ATOM     18  C   UNL     1      -1.408  11.651  18.564  0.00  0.00    +0.000 C 
ATOM     19  O   UNL     1      -0.572  12.222  19.580  0.00  0.00    +0.000 OA
ATOM     20  C   UNL     1       0.587  11.385  19.736  0.00  0.00    +0.000 C 
ENDBRANCH  13  16
ENDBRANCH   5  11
TORSDOF 2
ENDMDL
MODEL 6
REMARK VINA RESULT:      -7.4      3.429      7.046
REMARK  Name = 
REMARK  2 active torsions:
REMARK  status: ('A' for Active; 'I' for Inactive)
REMARK    1  A    between atoms: C_5  and  C_6
REMARK    2  A    between atoms: C_8  and  C_9
REMARK                            x       y       z     vdW  Elec       q    Type
REMARK                         _______ _______ _______ _____ _____    ______ ____
ROOT
ATOM      1  C   UNL     1       2.376   2.451  17.947  0.00  0.00    +0.000 A 
ATOM      2  C   UNL     1       1.445   3.417  18.289  0.00  0.00    +0.000 A 
ATOM      3  C   UNL     1       1.809   4.764  18.242  0.00  0.00    +0.000 A 
ATOM      4  C   UNL     1       3.114   5.174  17.856  0.00  0.00    +0.000 A 
ATOM      5  C   UNL     1       3.558   6.525  17.775  0.00  0.00    +0.000 A 
ATOM      6  C   UNL     1       4.867   6.788  17.354  0.00  0.00    +0.000 A 
ATOM      7  C   UNL     1       5.686   5.727  17.038  0.00  0.00    +0.000 A 
ATOM      8  N   UNL     1       5.298   4.441  17.108  0.00  0.00    +0.000 NA
ATOM      9  C   UNL     1       4.045   4.171  17.504  0.00  0.00    +0.000 A 
ATOM     10  C   UNL     1       3.661   2.837  17.561  0.00  0.00    +0.000 A 
ENDROOT
BRANCH   5  11
ATOM     11  C   UNL     1       2.693   7.649  18.127  0.00  0.00    +0.000 A 
ATOM     12  N   UNL     1       2.014   7.899  19.226  0.00  0.00    +0.000 NA
ATOM     13  C   UNL     1       1.375   9.073  18.926  0.00  0.00    +0.000 A 
ATOM     14  N   UNL     1       1.638   9.559  17.707  0.00  0.00    +0.000 NA
ATOM     15  O   UNL     1       2.520   8.614  17.171  0.00  0.00    +0.000 OA
BRANCH  13  16
ATOM     16  C   UNL     1       0.443   9.735  19.864  0.00  0.00    +0.000 C 
ATOM     17  C   UNL     1       0.991  11.002  20.491  0.00  0.00    +0.000 C 
ATOM     18  C   UNL     1      -0.268  11.722  20.923  0.00  0.00    +0.000 C 
ATOM     19  O   UNL     1      -1.317  11.319  20.033  0.00  0.00    +0.000 OA
ATOM     20  C   UNL     1      -0.824  10.251  19.206  0.00  0.00    +0.000 C 
ENDBRANCH  13  16
ENDBRANCH   5  11
TORSDOF 2
ENDMDL
MODEL 7
REMARK VINA RESULT:      -7.3      3.432      7.251
REMARK  Name = 
REMARK  2 active torsions:
REMARK  status: ('A' for Active; 'I' for Inactive)
REMARK    1  A    between atoms: C_5  and  C_6
REMARK    2  A    between atoms: C_8  and  C_9
REMARK                            x       y       z     vdW  Elec       q    Type
REMARK                         _______ _______ _______ _____ _____    ______ ____
ROOT
ATOM      1  C   UNL     1       2.391   2.795  20.682  0.00  0.00    +0.000 A 
ATOM      2  C   UNL     1       1.531   3.850  20.934  0.00  0.00    +0.000 A 
ATOM      3  C   UNL     1       1.738   5.070  20.289  0.00  0.00    +0.000 A 
ATOM      4  C   UNL     1       2.813   5.263  19.378  0.00  0.00    +0.000 A 
ATOM      5  C   UNL     1       3.085   6.472  18.676  0.00  0.00    +0.000 A 
ATOM      6  C   UNL     1       4.166   6.515  17.787  0.00  0.00    +0.000 A 
ATOM      7  C   UNL     1       4.937   5.385  17.627  0.00  0.00    +0.000 A 
ATOM      8  N   UNL     1       4.708   4.230  18.279  0.00  0.00    +0.000 NA
ATOM      9  C   UNL     1       3.673   4.169  19.130  0.00  0.00    +0.000 A 
ATOM     10  C   UNL     1       3.449   2.966  19.786  0.00  0.00    +0.000 A 
ENDROOT
BRANCH   5  11
ATOM     11  C   UNL     1       2.276   7.675  18.859  0.00  0.00    +0.000 A 
ATOM     12  N   UNL     1       1.699   8.166  19.935  0.00  0.00    +0.000 NA
ATOM     13  C   UNL     1       1.061   9.279  19.454  0.00  0.00    +0.000 A 
ATOM     14  N   UNL     1       1.229   9.499  18.144  0.00  0.00    +0.000 NA
ATOM     15  O   UNL     1       2.042   8.434  17.744  0.00  0.00    +0.000 OA
BRANCH  13  16
ATOM     16  C   UNL     1       0.226  10.151  20.309  0.00  0.00    +0.000 C 
ATOM     17  C   UNL     1      -0.144   9.537  21.644  0.00  0.00    +0.000 C 
ATOM     18  C   UNL     1      -0.482  10.753  22.479  0.00  0.00    +0.000 C 
ATOM     19  O   UNL     1       0.285  11.850  21.964  0.00  0.00    +0.000 OA
ATOM     20  C   UNL     1       0.923  11.425  20.748  0.00  0.00    +0.000 C 
ENDBRANCH  13  16
ENDBRANCH   5  11
TORSDOF 2
ENDMDL
MODEL 8
REMARK VINA RESULT:      -7.3      3.689      7.231
REMARK  Name = 
REMARK  2 active torsions:
REMARK  status: ('A' for Active; 'I' for Inactive)
REMARK    1  A    between atoms: C_5  and  C_6
REMARK    2  A    between atoms: C_8  and  C_9
REMARK                            x       y       z     vdW  Elec       q    Type
REMARK                         _______ _______ _______ _____ _____    ______ ____
ROOT
ATOM      1  C   UNL     1       1.539   1.764  18.624  0.00  0.00    +0.000 A 
ATOM      2  C   UNL     1       0.728   2.840  18.941  0.00  0.00    +0.000 A 
ATOM      3  C   UNL     1       1.291   4.111  19.055  0.00  0.00    +0.000 A 
ATOM      4  C   UNL     1       2.682   4.334  18.858  0.00  0.00    +0.000 A 
ATOM      5  C   UNL     1       3.329   5.599  18.948  0.00  0.00    +0.000 A 
ATOM      6  C   UNL     1       4.705   5.680  18.704  0.00  0.00    +0.000 A 
ATOM      7  C   UNL     1       5.390   4.526  18.390  0.00  0.00    +0.000 A 
ATOM      8  N   UNL     1       4.808   3.317  18.302  0.00  0.00    +0.000 NA
ATOM      9  C   UNL     1       3.489   3.223  18.527  0.00  0.00    +0.000 A 
ATOM     10  C   UNL     1       2.906   1.966  18.422  0.00  0.00    +0.000 A 
ENDROOT
BRANCH   5  11
ATOM     11  C   UNL     1       2.604   6.820  19.297  0.00  0.00    +0.000 A 
ATOM     12  N   UNL     1       2.172   7.259  20.459  0.00  0.00    +0.000 NA
ATOM     13  C   UNL     1       1.541   8.427  20.125  0.00  0.00    +0.000 A 
ATOM     14  N   UNL     1       1.576   8.731  18.822  0.00  0.00    +0.000 NA
ATOM     15  O   UNL     1       2.288   7.663  18.265  0.00  0.00    +0.000 OA
BRANCH  13  16
ATOM     16  C   UNL     1       0.847   9.272  21.122  0.00  0.00    +0.000 C 
ATOM     17  C   UNL     1      -0.465   8.695  21.615  0.00  0.00    +0.000 C 
ATOM     18  C   UNL     1      -0.661   9.415  22.933  0.00  0.00    +0.000 C 
ATOM     19  O   UNL     1       0.640   9.738  23.440  0.00  0.00    +0.000 OA
ATOM     20  C   UNL     1       1.611   9.435  22.423  0.00  0.00    +0.000 C 
ENDBRANCH  13  16
ENDBRANCH   5  11
TORSDOF 2
ENDMDL
MODEL 9
REMARK VINA RESULT:      -7.3      3.754      6.661
REMARK  Name = 
REMARK  2 active torsions:
REMARK  status: ('A' for Active; 'I' for Inactive)
REMARK    1  A    between atoms: C_5  and  C_6
REMARK    2  A    between atoms: C_8  and  C_9
REMARK                            x       y       z     vdW  Elec       q    Type
REMARK                         _______ _______ _______ _____ _____    ______ ____
ROOT
ATOM      1  C   UNL     1       2.037   1.991  18.644  0.00  0.00    +0.000 A 
ATOM      2  C   UNL     1       1.191   3.074  18.476  0.00  0.00    +0.000 A 
ATOM      3  C   UNL     1       1.719   4.365  18.500  0.00  0.00    +0.000 A 
ATOM      4  C   UNL     1       3.107   4.602  18.699  0.00  0.00    +0.000 A 
ATOM      5  C   UNL     1       3.721   5.887  18.728  0.00  0.00    +0.000 A 
ATOM      6  C   UNL     1       5.108   5.975  18.907  0.00  0.00    +0.000 A 
ATOM      7  C   UNL     1       5.830   4.812  19.056  0.00  0.00    +0.000 A 
ATOM      8  N   UNL     1       5.279   3.585  19.036  0.00  0.00    +0.000 NA
ATOM      9  C   UNL     1       3.953   3.482  18.861  0.00  0.00    +0.000 A 
ATOM     10  C   UNL     1       3.403   2.207  18.835  0.00  0.00    +0.000 A 
ENDROOT
BRANCH   5  11
ATOM     11  C   UNL     1       2.951   7.121  18.587  0.00  0.00    +0.000 A 
ATOM     12  N   UNL     1       2.126   7.718  19.420  0.00  0.00    +0.000 NA
ATOM     13  C   UNL     1       1.697   8.799  18.696  0.00  0.00    +0.000 A 
ATOM     14  N   UNL     1       2.226   8.900  17.471  0.00  0.00    +0.000 NA
ATOM     15  O   UNL     1       3.066   7.784  17.394  0.00  0.00    +0.000 OA
BRANCH  13  16
ATOM     16  C   UNL     1       0.702   9.762  19.217  0.00  0.00    +0.000 C 
ATOM     17  C   UNL     1       0.492   9.685  20.717  0.00  0.00    +0.000 C 
ATOM     18  C   UNL     1      -0.093  11.045  21.033  0.00  0.00    +0.000 C 
ATOM     19  O   UNL     1       0.410  11.964  20.054  0.00  0.00    +0.000 OA
ATOM     20  C   UNL     1       1.109  11.214  19.046  0.00  0.00    +0.000 C 
ENDBRANCH  13  16
ENDBRANCH   5  11
TORSDOF 2
ENDMDL
