MODEL 1
REMARK VINA RESULT:      -7.6      0.000      0.000
REMARK  Name = 
REMARK  17 active torsions:
REMARK  status: ('A' for Active; 'I' for Inactive)
REMARK    1  A    between atoms: C_1  and  C_2
REMARK    2  A    between atoms: C_2  and  C_3
REMARK    3  A    between atoms: C_3  and  C_4
REMARK    4  A    between atoms: C_4  and  C_5
REMARK    5  A    between atoms: C_5  and  N_6
REMARK    6  A    between atoms: C_8  and  C_9
REMARK    7  A    between atoms: N_10  and  C_11
REMARK    8  A    between atoms: C_11  and  C_12
REMARK    9  A    between atoms: C_11  and  C_25
REMARK   10  A    between atoms: C_15  and  C_16
REMARK   11  A    between atoms: N_18  and  C_19
REMARK   12  A    between atoms: N_18  and  C_21
REMARK   13  A    between atoms: C_19  and  C_20
REMARK   14  A    between atoms: C_21  and  C_22
REMARK   15  A    between atoms: C_29  and  O_30
REMARK   16  A    between atoms: O_30  and  C_31
REMARK   17  A    between atoms: C_34  and  C_35
REMARK                            x       y       z     vdW  Elec       q    Type
REMARK                         _______ _______ _______ _____ _____    ______ ____
ROOT
ATOM      1  C   UNL     1      -0.035  10.531  19.845  0.00  0.00    +0.000 C 
ENDROOT
BRANCH   1   6
ATOM      2  N   UNL     1       1.161  14.731  19.809  0.00  0.00    +0.000 NA
ATOM      3  C   UNL     1       0.602  14.194  21.065  0.00  0.00    +0.000 C 
ATOM      4  C   UNL     1      -0.096  12.798  20.944  0.00  0.00    +0.000 C 
ATOM      5  C   UNL     1      -0.461  12.367  22.374  0.00  0.00    +0.000 C 
ATOM      6  N   UNL     1       0.723  11.760  20.273  0.00  0.00    +0.000 NA
ATOM      7  C   UNL     1       1.612  12.282  19.223  0.00  0.00    +0.000 C 
ATOM      8  C   UNL     1       2.160  13.734  19.346  0.00  0.00    +0.000 C 
ATOM      9  C   UNL     1       2.845  14.108  18.022  0.00  0.00    +0.000 C 
BRANCH   2  10
ATOM     10  C   UNL     1       0.125  15.062  18.814  0.00  0.00    +0.000 C 
BRANCH  10  11
ATOM     11  C   UNL     1      -0.470  16.484  18.921  0.00  0.00    +0.000 C 
BRANCH  11  12
ATOM     12  C   UNL     1       0.583  17.599  18.918  0.00  0.00    +0.000 C 
BRANCH  12  14
ATOM     13  C   UNL     1       0.636  18.631  16.606  0.00  0.00    +0.000 C 
ATOM     14  C   UNL     1       1.314  17.669  17.572  0.00  0.00    +0.000 C 
ENDBRANCH  12  14
ENDBRANCH  11  12
ENDBRANCH  10  11
ENDBRANCH   2  10
ENDBRANCH   1   6
BRANCH   1  15
ATOM     15  C   UNL     1       0.884   9.360  19.412  0.00  0.00    +0.000 A 
ATOM     16  C   UNL     1       1.394   9.180  18.111  0.00  0.00    +0.000 A 
ATOM     17  C   UNL     1       2.260   8.117  17.786  0.00  0.00    +0.000 A 
ATOM     18  C   UNL     1       2.576   7.147  18.732  0.00  0.00    +0.000 A 
ATOM     19  C   UNL     1       2.027   7.293  20.020  0.00  0.00    +0.000 A 
ATOM     20  C   UNL     1       1.209   8.378  20.357  0.00  0.00    +0.000 A 
BRANCH  18  21
ATOM     21  C   UNL     1       3.538   6.015  18.557  0.00  0.00    +0.000 C 
ATOM     22  O   UNL     1       4.732   6.340  18.570  0.00  0.00    +0.000 OA
ATOM     23  N   UNL     1       3.180   4.661  18.414  0.00  0.00    +0.000 N 
BRANCH  23  24
ATOM     24  C   UNL     1       1.818   4.122  18.313  0.00  0.00    +0.000 C 
ATOM     25  C   UNL     1       1.132   3.705  19.613  0.00  0.00    +0.000 C 
ENDBRANCH  23  24
BRANCH  23  26
ATOM     26  C   UNL     1       4.312   3.731  18.277  0.00  0.00    +0.000 C 
ATOM     27  C   UNL     1       4.539   2.932  19.553  0.00  0.00    +0.000 C 
ENDBRANCH  23  26
ENDBRANCH  18  21
ENDBRANCH   1  15
BRANCH   1  28
ATOM     28  C   UNL     1      -1.255  10.787  18.926  0.00  0.00    +0.000 A 
ATOM     29  C   UNL     1      -2.371  11.544  19.321  0.00  0.00    +0.000 A 
ATOM     30  C   UNL     1      -3.428  11.797  18.451  0.00  0.00    +0.000 A 
ATOM     31  C   UNL     1      -3.385  11.294  17.159  0.00  0.00    +0.000 A 
ATOM     32  C   UNL     1      -2.295  10.539  16.727  0.00  0.00    +0.000 A 
ATOM     33  C   UNL     1      -1.239  10.280  17.608  0.00  0.00    +0.000 A 
BRANCH  32  34
ATOM     34  O   UNL     1      -2.381  10.128  15.426  0.00  0.00    +0.000 OA
ATOM     35  C   UNL     1      -3.669  10.137  14.829  0.00  0.00    +0.000 C 
ENDBRANCH  32  34
ENDBRANCH   1  28
TORSDOF 11
ENDMDL
MODEL 2
REMARK VINA RESULT:      -7.5      1.036      1.444
REMARK  Name = 
REMARK  17 active torsions:
REMARK  status: ('A' for Active; 'I' for Inactive)
REMARK    1  A    between atoms: C_1  and  C_2
REMARK    2  A    between atoms: C_2  and  C_3
REMARK    3  A    between atoms: C_3  and  C_4
REMARK    4  A    between atoms: C_4  and  C_5
REMARK    5  A    between atoms: C_5  and  N_6
REMARK    6  A    between atoms: C_8  and  C_9
REMARK    7  A    between atoms: N_10  and  C_11
REMARK    8  A    between atoms: C_11  and  C_12
REMARK    9  A    between atoms: C_11  and  C_25
REMARK   10  A    between atoms: C_15  and  C_16
REMARK   11  A    between atoms: N_18  and  C_19
REMARK   12  A    between atoms: N_18  and  C_21
REMARK   13  A    between atoms: C_19  and  C_20
REMARK   14  A    between atoms: C_21  and  C_22
REMARK   15  A    between atoms: C_29  and  O_30
REMARK   16  A    between atoms: O_30  and  C_31
REMARK   17  A    between atoms: C_34  and  C_35
REMARK                            x       y       z     vdW  Elec       q    Type
REMARK                         _______ _______ _______ _____ _____    ______ ____
ROOT
ATOM      1  C   UNL     1      -0.180  10.376  19.890  0.00  0.00    +0.000 C 
ENDROOT
BRANCH   1   6
ATOM      2  N   UNL     1       0.801  14.629  20.052  0.00  0.00    +0.000 NA
ATOM      3  C   UNL     1       0.366  13.982  21.306  0.00  0.00    +0.000 C 
ATOM      4  C   UNL     1      -0.269  12.562  21.141  0.00  0.00    +0.000 C 
ATOM      5  C   UNL     1      -0.504  12.021  22.562  0.00  0.00    +0.000 C 
ATOM      6  N   UNL     1       0.547  11.615  20.344  0.00  0.00    +0.000 NA
ATOM      7  C   UNL     1       1.327  12.250  19.270  0.00  0.00    +0.000 C 
ATOM      8  C   UNL     1       1.810  13.719  19.452  0.00  0.00    +0.000 C 
ATOM      9  C   UNL     1       2.374  14.213  18.110  0.00  0.00    +0.000 C 
BRANCH   2  10
ATOM     10  C   UNL     1      -0.322  14.966  19.160  0.00  0.00    +0.000 C 
BRANCH  10  11
ATOM     11  C   UNL     1      -0.831  16.421  19.252  0.00  0.00    +0.000 C 
BRANCH  11  12
ATOM     12  C   UNL     1      -0.587  17.246  17.982  0.00  0.00    +0.000 C 
BRANCH  12  14
ATOM     13  C   UNL     1       1.409  18.099  16.679  0.00  0.00    +0.000 C 
ATOM     14  C   UNL     1       0.754  17.984  18.048  0.00  0.00    +0.000 C 
ENDBRANCH  12  14
ENDBRANCH  11  12
ENDBRANCH  10  11
ENDBRANCH   2  10
ENDBRANCH   1   6
BRANCH   1  15
ATOM     15  C   UNL     1       0.756   9.162  19.662  0.00  0.00    +0.000 A 
ATOM     16  C   UNL     1       1.440   8.891  18.461  0.00  0.00    +0.000 A 
ATOM     17  C   UNL     1       2.312   7.792  18.325  0.00  0.00    +0.000 A 
ATOM     18  C   UNL     1       2.462   6.876  19.362  0.00  0.00    +0.000 A 
ATOM     19  C   UNL     1       1.739   7.112  20.547  0.00  0.00    +0.000 A 
ATOM     20  C   UNL     1       0.914   8.233  20.700  0.00  0.00    +0.000 A 
BRANCH  18  21
ATOM     21  C   UNL     1       3.404   5.715  19.392  0.00  0.00    +0.000 C 
ATOM     22  O   UNL     1       4.603   6.019  19.457  0.00  0.00    +0.000 OA
ATOM     23  N   UNL     1       3.023   4.359  19.382  0.00  0.00    +0.000 N 
BRANCH  23  24
ATOM     24  C   UNL     1       1.659   3.836  19.243  0.00  0.00    +0.000 C 
ATOM     25  C   UNL     1       0.917   3.464  20.526  0.00  0.00    +0.000 C 
ENDBRANCH  23  24
BRANCH  23  26
ATOM     26  C   UNL     1       4.138   3.401  19.439  0.00  0.00    +0.000 C 
ATOM     27  C   UNL     1       3.949   2.260  18.449  0.00  0.00    +0.000 C 
ENDBRANCH  23  26
ENDBRANCH  18  21
ENDBRANCH   1  15
BRANCH   1  28
ATOM     28  C   UNL     1      -1.252  10.597  18.795  0.00  0.00    +0.000 A 
ATOM     29  C   UNL     1      -1.162  10.045  17.506  0.00  0.00    +0.000 A 
ATOM     30  C   UNL     1      -2.170  10.223  16.562  0.00  0.00    +0.000 A 
ATOM     31  C   UNL     1      -3.295  10.962  16.896  0.00  0.00    +0.000 A 
ATOM     32  C   UNL     1      -3.424  11.526  18.165  0.00  0.00    +0.000 A 
ATOM     33  C   UNL     1      -2.405  11.352  19.107  0.00  0.00    +0.000 A 
BRANCH  32  34
ATOM     34  O   UNL     1      -4.594  12.208  18.357  0.00  0.00    +0.000 OA
ATOM     35  C   UNL     1      -5.773  11.637  17.811  0.00  0.00    +0.000 C 
ENDBRANCH  32  34
ENDBRANCH   1  28
TORSDOF 11
ENDMDL
MODEL 3
REMARK VINA RESULT:      -7.4      1.931      3.518
REMARK  Name = 
REMARK  17 active torsions:
REMARK  status: ('A' for Active; 'I' for Inactive)
REMARK    1  A    between atoms: C_1  and  C_2
REMARK    2  A    between atoms: C_2  and  C_3
REMARK    3  A    between atoms: C_3  and  C_4
REMARK    4  A    between atoms: C_4  and  C_5
REMARK    5  A    between atoms: C_5  and  N_6
REMARK    6  A    between atoms: C_8  and  C_9
REMARK    7  A    between atoms: N_10  and  C_11
REMARK    8  A    between atoms: C_11  and  C_12
REMARK    9  A    between atoms: C_11  and  C_25
REMARK   10  A    between atoms: C_15  and  C_16
REMARK   11  A    between atoms: N_18  and  C_19
REMARK   12  A    between atoms: N_18  and  C_21
REMARK   13  A    between atoms: C_19  and  C_20
REMARK   14  A    between atoms: C_21  and  C_22
REMARK   15  A    between atoms: C_29  and  O_30
REMARK   16  A    between atoms: O_30  and  C_31
REMARK   17  A    between atoms: C_34  and  C_35
REMARK                            x       y       z     vdW  Elec       q    Type
REMARK                         _______ _______ _______ _____ _____    ______ ____
ROOT
ATOM      1  C   UNL     1      -0.691  10.343  19.644  0.00  0.00    +0.000 C 
ENDROOT
BRANCH   1   6
ATOM      2  N   UNL     1      -0.979  14.413  21.202  0.00  0.00    +0.000 NA
ATOM      3  C   UNL     1      -0.778  13.323  22.178  0.00  0.00    +0.000 C 
ATOM      4  C   UNL     1      -0.996  11.877  21.621  0.00  0.00    +0.000 C 
ATOM      5  C   UNL     1      -0.590  10.910  22.746  0.00  0.00    +0.000 C 
ATOM      6  N   UNL     1      -0.245  11.582  20.376  0.00  0.00    +0.000 NA
ATOM      7  C   UNL     1      -0.074  12.743  19.488  0.00  0.00    +0.000 C 
ATOM      8  C   UNL     1      -0.002  14.168  20.110  0.00  0.00    +0.000 C 
ATOM      9  C   UNL     1      -0.072  15.198  18.971  0.00  0.00    +0.000 C 
BRANCH   2  10
ATOM     10  C   UNL     1      -2.377  14.532  20.753  0.00  0.00    +0.000 C 
BRANCH  10  11
ATOM     11  C   UNL     1      -3.439  14.526  21.875  0.00  0.00    +0.000 C 
BRANCH  11  12
ATOM     12  C   UNL     1      -4.388  13.322  21.825  0.00  0.00    +0.000 C 
BRANCH  12  14
ATOM     13  C   UNL     1      -3.890  12.486  24.162  0.00  0.00    +0.000 C 
ATOM     14  C   UNL     1      -4.959  13.007  23.213  0.00  0.00    +0.000 C 
ENDBRANCH  12  14
ENDBRANCH  11  12
ENDBRANCH  10  11
ENDBRANCH   2  10
ENDBRANCH   1   6
BRANCH   1  15
ATOM     15  C   UNL     1       0.476   9.393  19.276  0.00  0.00    +0.000 A 
ATOM     16  C   UNL     1       1.048   8.448  20.150  0.00  0.00    +0.000 A 
ATOM     17  C   UNL     1       2.082   7.580  19.745  0.00  0.00    +0.000 A 
ATOM     18  C   UNL     1       2.640   7.689  18.475  0.00  0.00    +0.000 A 
ATOM     19  C   UNL     1       2.108   8.667  17.614  0.00  0.00    +0.000 A 
ATOM     20  C   UNL     1       1.045   9.493  17.999  0.00  0.00    +0.000 A 
BRANCH  18  21
ATOM     21  C   UNL     1       3.680   6.792  17.882  0.00  0.00    +0.000 C 
ATOM     22  O   UNL     1       4.715   7.365  17.519  0.00  0.00    +0.000 OA
ATOM     23  N   UNL     1       3.565   5.395  17.747  0.00  0.00    +0.000 N 
BRANCH  23  24
ATOM     24  C   UNL     1       2.387   4.579  18.066  0.00  0.00    +0.000 C 
ATOM     25  C   UNL     1       2.358   3.151  17.527  0.00  0.00    +0.000 C 
ENDBRANCH  23  24
BRANCH  23  26
ATOM     26  C   UNL     1       4.735   4.732  17.150  0.00  0.00    +0.000 C 
ATOM     27  C   UNL     1       5.760   4.344  18.207  0.00  0.00    +0.000 C 
ENDBRANCH  23  26
ENDBRANCH  18  21
ENDBRANCH   1  15
BRANCH   1  28
ATOM     28  C   UNL     1      -1.737  10.570  18.525  0.00  0.00    +0.000 A 
ATOM     29  C   UNL     1      -1.613  10.028  17.234  0.00  0.00    +0.000 A 
ATOM     30  C   UNL     1      -2.598  10.211  16.267  0.00  0.00    +0.000 A 
ATOM     31  C   UNL     1      -3.733  10.945  16.578  0.00  0.00    +0.000 A 
ATOM     32  C   UNL     1      -3.895  11.498  17.848  0.00  0.00    +0.000 A 
ATOM     33  C   UNL     1      -2.898  11.319  18.814  0.00  0.00    +0.000 A 
BRANCH  32  34
ATOM     34  O   UNL     1      -5.070  12.177  18.015  0.00  0.00    +0.000 OA
ATOM     35  C   UNL     1      -6.260  11.404  18.071  0.00  0.00    +0.000 C 
ENDBRANCH  32  34
ENDBRANCH   1  28
TORSDOF 11
ENDMDL
MODEL 4
REMARK VINA RESULT:      -7.4      1.573      2.468
REMARK  Name = 
REMARK  17 active torsions:
REMARK  status: ('A' for Active; 'I' for Inactive)
REMARK    1  A    between atoms: C_1  and  C_2
REMARK    2  A    between atoms: C_2  and  C_3
REMARK    3  A    between atoms: C_3  and  C_4
REMARK    4  A    between atoms: C_4  and  C_5
REMARK    5  A    between atoms: C_5  and  N_6
REMARK    6  A    between atoms: C_8  and  C_9
REMARK    7  A    between atoms: N_10  and  C_11
REMARK    8  A    between atoms: C_11  and  C_12
REMARK    9  A    between atoms: C_11  and  C_25
REMARK   10  A    between atoms: C_15  and  C_16
REMARK   11  A    between atoms: N_18  and  C_19
REMARK   12  A    between atoms: N_18  and  C_21
REMARK   13  A    between atoms: C_19  and  C_20
REMARK   14  A    between atoms: C_21  and  C_22
REMARK   15  A    between atoms: C_29  and  O_30
REMARK   16  A    between atoms: O_30  and  C_31
REMARK   17  A    between atoms: C_34  and  C_35
REMARK                            x       y       z     vdW  Elec       q    Type
REMARK                         _______ _______ _______ _____ _____    ______ ____
ROOT
ATOM      1  C   UNL     1       0.113  10.225  19.675  0.00  0.00    +0.000 C 
ENDROOT
BRANCH   1   6
ATOM      2  N   UNL     1       1.072  14.477  19.945  0.00  0.00    +0.000 NA
ATOM      3  C   UNL     1       0.586  13.810  21.169  0.00  0.00    +0.000 C 
ATOM      4  C   UNL     1      -0.037  12.391  20.955  0.00  0.00    +0.000 C 
ATOM      5  C   UNL     1      -0.331  11.827  22.356  0.00  0.00    +0.000 C 
ATOM      6  N   UNL     1       0.816  11.458  20.179  0.00  0.00    +0.000 NA
ATOM      7  C   UNL     1       1.639  12.112  19.150  0.00  0.00    +0.000 C 
ATOM      8  C   UNL     1       2.109  13.579  19.375  0.00  0.00    +0.000 C 
ATOM      9  C   UNL     1       2.728  14.096  18.066  0.00  0.00    +0.000 C 
BRANCH   2  10
ATOM     10  C   UNL     1      -0.012  14.825  19.010  0.00  0.00    +0.000 C 
BRANCH  10  11
ATOM     11  C   UNL     1      -0.678  16.199  19.245  0.00  0.00    +0.000 C 
BRANCH  11  12
ATOM     12  C   UNL     1      -0.645  17.122  18.020  0.00  0.00    +0.000 C 
BRANCH  12  14
ATOM     13  C   UNL     1       1.240  18.210  16.727  0.00  0.00    +0.000 C 
ATOM     14  C   UNL     1       0.551  18.079  18.078  0.00  0.00    +0.000 C 
ENDBRANCH  12  14
ENDBRANCH  11  12
ENDBRANCH  10  11
ENDBRANCH   2  10
ENDBRANCH   1   6
BRANCH   1  15
ATOM     15  C   UNL     1       1.084   9.089  19.264  0.00  0.00    +0.000 A 
ATOM     16  C   UNL     1       1.558   8.086  20.132  0.00  0.00    +0.000 A 
ATOM     17  C   UNL     1       2.408   7.052  19.692  0.00  0.00    +0.000 A 
ATOM     18  C   UNL     1       2.884   7.036  18.384  0.00  0.00    +0.000 A 
ATOM     19  C   UNL     1       2.455   8.066  17.525  0.00  0.00    +0.000 A 
ATOM     20  C   UNL     1       1.569   9.063  17.949  0.00  0.00    +0.000 A 
BRANCH  18  21
ATOM     21  C   UNL     1       3.721   5.968  17.756  0.00  0.00    +0.000 C 
ATOM     22  O   UNL     1       3.162   4.870  17.639  0.00  0.00    +0.000 OA
ATOM     23  N   UNL     1       5.037   6.140  17.285  0.00  0.00    +0.000 N 
BRANCH  23  24
ATOM     24  C   UNL     1       5.858   7.351  17.407  0.00  0.00    +0.000 C 
ATOM     25  C   UNL     1       7.364   7.163  17.578  0.00  0.00    +0.000 C 
ENDBRANCH  23  24
BRANCH  23  26
ATOM     26  C   UNL     1       5.644   4.941  16.687  0.00  0.00    +0.000 C 
ATOM     27  C   UNL     1       5.601   4.989  15.166  0.00  0.00    +0.000 C 
ENDBRANCH  23  26
ENDBRANCH  18  21
ENDBRANCH   1  15
BRANCH   1  28
ATOM     28  C   UNL     1      -1.057  10.480  18.695  0.00  0.00    +0.000 A 
ATOM     29  C   UNL     1      -1.105   9.944  17.396  0.00  0.00    +0.000 A 
ATOM     30  C   UNL     1      -2.198  10.152  16.559  0.00  0.00    +0.000 A 
ATOM     31  C   UNL     1      -3.271  10.906  17.011  0.00  0.00    +0.000 A 
ATOM     32  C   UNL     1      -3.264  11.453  18.293  0.00  0.00    +0.000 A 
ATOM     33  C   UNL     1      -2.160  11.249  19.128  0.00  0.00    +0.000 A 
BRANCH  32  34
ATOM     34  O   UNL     1      -4.397  12.153  18.608  0.00  0.00    +0.000 OA
ATOM     35  C   UNL     1      -5.451  12.136  17.659  0.00  0.00    +0.000 C 
ENDBRANCH  32  34
ENDBRANCH   1  28
TORSDOF 11
ENDMDL
MODEL 5
REMARK VINA RESULT:      -7.4      1.119      1.778
REMARK  Name = 
REMARK  17 active torsions:
REMARK  status: ('A' for Active; 'I' for Inactive)
REMARK    1  A    between atoms: C_1  and  C_2
REMARK    2  A    between atoms: C_2  and  C_3
REMARK    3  A    between atoms: C_3  and  C_4
REMARK    4  A    between atoms: C_4  and  C_5
REMARK    5  A    between atoms: C_5  and  N_6
REMARK    6  A    between atoms: C_8  and  C_9
REMARK    7  A    between atoms: N_10  and  C_11
REMARK    8  A    between atoms: C_11  and  C_12
REMARK    9  A    between atoms: C_11  and  C_25
REMARK   10  A    between atoms: C_15  and  C_16
REMARK   11  A    between atoms: N_18  and  C_19
REMARK   12  A    between atoms: N_18  and  C_21
REMARK   13  A    between atoms: C_19  and  C_20
REMARK   14  A    between atoms: C_21  and  C_22
REMARK   15  A    between atoms: C_29  and  O_30
REMARK   16  A    between atoms: O_30  and  C_31
REMARK   17  A    between atoms: C_34  and  C_35
REMARK                            x       y       z     vdW  Elec       q    Type
REMARK                         _______ _______ _______ _____ _____    ______ ____
ROOT
ATOM      1  C   UNL     1       0.001  10.427  19.733  0.00  0.00    +0.000 C 
ENDROOT
BRANCH   1   6
ATOM      2  N   UNL     1       1.030  14.667  19.932  0.00  0.00    +0.000 NA
ATOM      3  C   UNL     1       0.482  14.041  21.152  0.00  0.00    +0.000 C 
ATOM      4  C   UNL     1      -0.159  12.628  20.949  0.00  0.00    +0.000 C 
ATOM      5  C   UNL     1      -0.519  12.107  22.351  0.00  0.00    +0.000 C 
ATOM      6  N   UNL     1       0.707  11.660  20.233  0.00  0.00    +0.000 NA
ATOM      7  C   UNL     1       1.582  12.271  19.221  0.00  0.00    +0.000 C 
ATOM      8  C   UNL     1       2.071  13.735  19.427  0.00  0.00    +0.000 C 
ATOM      9  C   UNL     1       2.752  14.206  18.132  0.00  0.00    +0.000 C 
BRANCH   2  10
ATOM     10  C   UNL     1      -0.010  15.009  18.945  0.00  0.00    +0.000 C 
BRANCH  10  11
ATOM     11  C   UNL     1       0.030  16.459  18.412  0.00  0.00    +0.000 C 
BRANCH  11  12
ATOM     12  C   UNL     1      -1.164  17.315  18.853  0.00  0.00    +0.000 C 
BRANCH  12  14
ATOM     13  C   UNL     1      -0.286  18.608  16.861  0.00  0.00    +0.000 C 
ATOM     14  C   UNL     1      -1.418  18.462  17.868  0.00  0.00    +0.000 C 
ENDBRANCH  12  14
ENDBRANCH  11  12
ENDBRANCH  10  11
ENDBRANCH   2  10
ENDBRANCH   1   6
BRANCH   1  15
ATOM     15  C   UNL     1       0.969   9.314  19.257  0.00  0.00    +0.000 A 
ATOM     16  C   UNL     1       1.495   9.211  17.954  0.00  0.00    +0.000 A 
ATOM     17  C   UNL     1       2.406   8.200  17.590  0.00  0.00    +0.000 A 
ATOM     18  C   UNL     1       2.754   7.202  18.496  0.00  0.00    +0.000 A 
ATOM     19  C   UNL     1       2.191   7.269  19.784  0.00  0.00    +0.000 A 
ATOM     20  C   UNL     1       1.327   8.305  20.161  0.00  0.00    +0.000 A 
BRANCH  18  21
ATOM     21  C   UNL     1       3.762   6.118  18.280  0.00  0.00    +0.000 C 
ATOM     22  O   UNL     1       4.940   6.462  18.447  0.00  0.00    +0.000 OA
ATOM     23  N   UNL     1       3.460   4.785  17.942  0.00  0.00    +0.000 N 
BRANCH  23  24
ATOM     24  C   UNL     1       2.130   4.238  17.647  0.00  0.00    +0.000 C 
ATOM     25  C   UNL     1       1.788   2.871  18.238  0.00  0.00    +0.000 C 
ENDBRANCH  23  24
BRANCH  23  26
ATOM     26  C   UNL     1       4.627   3.900  17.804  0.00  0.00    +0.000 C 
ATOM     27  C   UNL     1       5.087   3.799  16.356  0.00  0.00    +0.000 C 
ENDBRANCH  23  26
ENDBRANCH  18  21
ENDBRANCH   1  15
BRANCH   1  28
ATOM     28  C   UNL     1      -1.214  10.684  18.808  0.00  0.00    +0.000 A 
ATOM     29  C   UNL     1      -1.340  10.120  17.527  0.00  0.00    +0.000 A 
ATOM     30  C   UNL     1      -2.471  10.332  16.743  0.00  0.00    +0.000 A 
ATOM     31  C   UNL     1      -3.504  11.118  17.231  0.00  0.00    +0.000 A 
ATOM     32  C   UNL     1      -3.419  11.695  18.498  0.00  0.00    +0.000 A 
ATOM     33  C   UNL     1      -2.277  11.486  19.279  0.00  0.00    +0.000 A 
BRANCH  32  34
ATOM     34  O   UNL     1      -4.519  12.425  18.854  0.00  0.00    +0.000 OA
ATOM     35  C   UNL     1      -4.772  12.577  20.242  0.00  0.00    +0.000 C 
ENDBRANCH  32  34
ENDBRANCH   1  28
TORSDOF 11
ENDMDL
MODEL 6
REMARK VINA RESULT:      -7.4      1.752      3.103
REMARK  Name = 
REMARK  17 active torsions:
REMARK  status: ('A' for Active; 'I' for Inactive)
REMARK    1  A    between atoms: C_1  and  C_2
REMARK    2  A    between atoms: C_2  and  C_3
REMARK    3  A    between atoms: C_3  and  C_4
REMARK    4  A    between atoms: C_4  and  C_5
REMARK    5  A    between atoms: C_5  and  N_6
REMARK    6  A    between atoms: C_8  and  C_9
REMARK    7  A    between atoms: N_10  and  C_11
REMARK    8  A    between atoms: C_11  and  C_12
REMARK    9  A    between atoms: C_11  and  C_25
REMARK   10  A    between atoms: C_15  and  C_16
REMARK   11  A    between atoms: N_18  and  C_19
REMARK   12  A    between atoms: N_18  and  C_21
REMARK   13  A    between atoms: C_19  and  C_20
REMARK   14  A    between atoms: C_21  and  C_22
REMARK   15  A    between atoms: C_29  and  O_30
REMARK   16  A    between atoms: O_30  and  C_31
REMARK   17  A    between atoms: C_34  and  C_35
REMARK                            x       y       z     vdW  Elec       q    Type
REMARK                         _______ _______ _______ _____ _____    ______ ____
ROOT
ATOM      1  C   UNL     1      -0.795  10.423  19.742  0.00  0.00    +0.000 C 
ENDROOT
BRANCH   1   6
ATOM      2  N   UNL     1      -1.083  14.496  21.291  0.00  0.00    +0.000 NA
ATOM      3  C   UNL     1      -0.864  13.411  22.268  0.00  0.00    +0.000 C 
ATOM      4  C   UNL     1      -1.082  11.962  21.718  0.00  0.00    +0.000 C 
ATOM      5  C   UNL     1      -0.657  11.000  22.841  0.00  0.00    +0.000 C 
ATOM      6  N   UNL     1      -0.346  11.667  20.464  0.00  0.00    +0.000 NA
ATOM      7  C   UNL     1      -0.192  12.826  19.571  0.00  0.00    +0.000 C 
ATOM      8  C   UNL     1      -0.119  14.253  20.187  0.00  0.00    +0.000 C 
ATOM      9  C   UNL     1      -0.208  15.280  19.047  0.00  0.00    +0.000 C 
BRANCH   2  10
ATOM     10  C   UNL     1      -2.487  14.607  20.860  0.00  0.00    +0.000 C 
BRANCH  10  11
ATOM     11  C   UNL     1      -3.446  15.263  21.878  0.00  0.00    +0.000 C 
BRANCH  11  12
ATOM     12  C   UNL     1      -4.733  14.463  22.122  0.00  0.00    +0.000 C 
BRANCH  12  14
ATOM     13  C   UNL     1      -5.795  12.422  21.067  0.00  0.00    +0.000 C 
ATOM     14  C   UNL     1      -4.553  12.990  21.738  0.00  0.00    +0.000 C 
ENDBRANCH  12  14
ENDBRANCH  11  12
ENDBRANCH  10  11
ENDBRANCH   2  10
ENDBRANCH   1   6
BRANCH   1  15
ATOM     15  C   UNL     1       0.372   9.478  19.360  0.00  0.00    +0.000 A 
ATOM     16  C   UNL     1       0.983   8.563  20.240  0.00  0.00    +0.000 A 
ATOM     17  C   UNL     1       2.015   7.697  19.825  0.00  0.00    +0.000 A 
ATOM     18  C   UNL     1       2.531   7.780  18.535  0.00  0.00    +0.000 A 
ATOM     19  C   UNL     1       1.960   8.730  17.667  0.00  0.00    +0.000 A 
ATOM     20  C   UNL     1       0.899   9.553  18.064  0.00  0.00    +0.000 A 
BRANCH  18  21
ATOM     21  C   UNL     1       3.563   6.881  17.932  0.00  0.00    +0.000 C 
ATOM     22  O   UNL     1       4.484   7.465  17.347  0.00  0.00    +0.000 OA
ATOM     23  N   UNL     1       3.562   5.475  18.014  0.00  0.00    +0.000 N 
BRANCH  23  24
ATOM     24  C   UNL     1       2.517   4.635  18.610  0.00  0.00    +0.000 C 
ATOM     25  C   UNL     1       1.458   4.061  17.671  0.00  0.00    +0.000 C 
ENDBRANCH  23  24
BRANCH  23  26
ATOM     26  C   UNL     1       4.701   4.815  17.356  0.00  0.00    +0.000 C 
ATOM     27  C   UNL     1       5.774   4.415  18.359  0.00  0.00    +0.000 C 
ENDBRANCH  23  26
ENDBRANCH  18  21
ENDBRANCH   1  15
BRANCH   1  28
ATOM     28  C   UNL     1      -1.856  10.642  18.636  0.00  0.00    +0.000 A 
ATOM     29  C   UNL     1      -2.967  11.489  18.792  0.00  0.00    +0.000 A 
ATOM     30  C   UNL     1      -3.875  11.701  17.757  0.00  0.00    +0.000 A 
ATOM     31  C   UNL     1      -3.685  11.065  16.540  0.00  0.00    +0.000 A 
ATOM     32  C   UNL     1      -2.595  10.218  16.344  0.00  0.00    +0.000 A 
ATOM     33  C   UNL     1      -1.690  10.000  17.389  0.00  0.00    +0.000 A 
BRANCH  32  34
ATOM     34  O   UNL     1      -2.525   9.678  15.089  0.00  0.00    +0.000 OA
ATOM     35  C   UNL     1      -3.473  10.133  14.136  0.00  0.00    +0.000 C 
ENDBRANCH  32  34
ENDBRANCH   1  28
TORSDOF 11
ENDMDL
MODEL 7
REMARK VINA RESULT:      -7.2      1.212      1.974
REMARK  Name = 
REMARK  17 active torsions:
REMARK  status: ('A' for Active; 'I' for Inactive)
REMARK    1  A    between atoms: C_1  and  C_2
REMARK    2  A    between atoms: C_2  and  C_3
REMARK    3  A    between atoms: C_3  and  C_4
REMARK    4  A    between atoms: C_4  and  C_5
REMARK    5  A    between atoms: C_5  and  N_6
REMARK    6  A    between atoms: C_8  and  C_9
REMARK    7  A    between atoms: N_10  and  C_11
REMARK    8  A    between atoms: C_11  and  C_12
REMARK    9  A    between atoms: C_11  and  C_25
REMARK   10  A    between atoms: C_15  and  C_16
REMARK   11  A    between atoms: N_18  and  C_19
REMARK   12  A    between atoms: N_18  and  C_21
REMARK   13  A    between atoms: C_19  and  C_20
REMARK   14  A    between atoms: C_21  and  C_22
REMARK   15  A    between atoms: C_29  and  O_30
REMARK   16  A    between atoms: O_30  and  C_31
REMARK   17  A    between atoms: C_34  and  C_35
REMARK                            x       y       z     vdW  Elec       q    Type
REMARK                         _______ _______ _______ _____ _____    ______ ____
ROOT
ATOM      1  C   UNL     1      -0.244  10.495  20.079  0.00  0.00    +0.000 C 
ENDROOT
BRANCH   1   6
ATOM      2  N   UNL     1       0.901  14.703  19.851  0.00  0.00    +0.000 NA
ATOM      3  C   UNL     1       0.365  14.213  21.136  0.00  0.00    +0.000 C 
ATOM      4  C   UNL     1      -0.319  12.806  21.082  0.00  0.00    +0.000 C 
ATOM      5  C   UNL     1      -0.661  12.431  22.534  0.00  0.00    +0.000 C 
ATOM      6  N   UNL     1       0.505  11.749  20.445  0.00  0.00    +0.000 NA
ATOM      7  C   UNL     1       1.374  12.237  19.363  0.00  0.00    +0.000 C 
ATOM      8  C   UNL     1       1.906  13.699  19.418  0.00  0.00    +0.000 C 
ATOM      9  C   UNL     1       2.570  14.024  18.070  0.00  0.00    +0.000 C 
BRANCH   2  10
ATOM     10  C   UNL     1      -0.150  14.980  18.857  0.00  0.00    +0.000 C 
BRANCH  10  11
ATOM     11  C   UNL     1      -0.238  16.444  18.371  0.00  0.00    +0.000 C 
BRANCH  11  12
ATOM     12  C   UNL     1      -0.653  17.437  19.464  0.00  0.00    +0.000 C 
BRANCH  12  14
ATOM     13  C   UNL     1      -3.159  17.497  19.824  0.00  0.00    +0.000 C 
ATOM     14  C   UNL     1      -1.973  18.132  19.112  0.00  0.00    +0.000 C 
ENDBRANCH  12  14
ENDBRANCH  11  12
ENDBRANCH  10  11
ENDBRANCH   2  10
ENDBRANCH   1   6
BRANCH   1  15
ATOM     15  C   UNL     1       0.662   9.241  19.992  0.00  0.00    +0.000 A 
ATOM     16  C   UNL     1       0.830   8.300  21.027  0.00  0.00    +0.000 A 
ATOM     17  C   UNL     1       1.636   7.154  20.876  0.00  0.00    +0.000 A 
ATOM     18  C   UNL     1       2.373   6.956  19.712  0.00  0.00    +0.000 A 
ATOM     19  C   UNL     1       2.250   7.920  18.694  0.00  0.00    +0.000 A 
ATOM     20  C   UNL     1       1.408   9.031  18.824  0.00  0.00    +0.000 A 
BRANCH  18  21
ATOM     21  C   UNL     1       3.203   5.757  19.379  0.00  0.00    +0.000 C 
ATOM     22  O   UNL     1       4.363   6.009  19.029  0.00  0.00    +0.000 OA
ATOM     23  N   UNL     1       2.769   4.420  19.467  0.00  0.00    +0.000 N 
BRANCH  23  24
ATOM     24  C   UNL     1       1.416   3.960  19.801  0.00  0.00    +0.000 C 
ATOM     25  C   UNL     1       1.269   3.031  21.004  0.00  0.00    +0.000 C 
ENDBRANCH  23  24
BRANCH  23  26
ATOM     26  C   UNL     1       3.781   3.415  19.105  0.00  0.00    +0.000 C 
ATOM     27  C   UNL     1       3.470   2.762  17.765  0.00  0.00    +0.000 C 
ENDBRANCH  23  26
ENDBRANCH  18  21
ENDBRANCH   1  15
BRANCH   1  28
ATOM     28  C   UNL     1      -1.275  10.645  18.934  0.00  0.00    +0.000 A 
ATOM     29  C   UNL     1      -1.132  10.021  17.682  0.00  0.00    +0.000 A 
ATOM     30  C   UNL     1      -2.104  10.137  16.692  0.00  0.00    +0.000 A 
ATOM     31  C   UNL     1      -3.246  10.885  16.940  0.00  0.00    +0.000 A 
ATOM     32  C   UNL     1      -3.427  11.519  18.169  0.00  0.00    +0.000 A 
ATOM     33  C   UNL     1      -2.443  11.407  19.158  0.00  0.00    +0.000 A 
BRANCH  32  34
ATOM     34  O   UNL     1      -4.607  12.202  18.277  0.00  0.00    +0.000 OA
ATOM     35  C   UNL     1      -5.558  12.018  17.239  0.00  0.00    +0.000 C 
ENDBRANCH  32  34
ENDBRANCH   1  28
TORSDOF 11
ENDMDL
MODEL 8
REMARK VINA RESULT:      -7.2      2.810      5.400
REMARK  Name = 
REMARK  17 active torsions:
REMARK  status: ('A' for Active; 'I' for Inactive)
REMARK    1  A    between atoms: C_1  and  C_2
REMARK    2  A    between atoms: C_2  and  C_3
REMARK    3  A    between atoms: C_3  and  C_4
REMARK    4  A    between atoms: C_4  and  C_5
REMARK    5  A    between atoms: C_5  and  N_6
REMARK    6  A    between atoms: C_8  and  C_9
REMARK    7  A    between atoms: N_10  and  C_11
REMARK    8  A    between atoms: C_11  and  C_12
REMARK    9  A    between atoms: C_11  and  C_25
REMARK   10  A    between atoms: C_15  and  C_16
REMARK   11  A    between atoms: N_18  and  C_19
REMARK   12  A    between atoms: N_18  and  C_21
REMARK   13  A    between atoms: C_19  and  C_20
REMARK   14  A    between atoms: C_21  and  C_22
REMARK   15  A    between atoms: C_29  and  O_30
REMARK   16  A    between atoms: O_30  and  C_31
REMARK   17  A    between atoms: C_34  and  C_35
REMARK                            x       y       z     vdW  Elec       q    Type
REMARK                         _______ _______ _______ _____ _____    ______ ____
ROOT
ATOM      1  C   UNL     1       1.056  10.060  19.531  0.00  0.00    +0.000 C 
ENDROOT
BRANCH   1   6
ATOM      2  N   UNL     1      -2.443  11.854  17.630  0.00  0.00    +0.000 NA
ATOM      3  C   UNL     1      -1.206  12.658  17.675  0.00  0.00    +0.000 C 
ATOM      4  C   UNL     1      -0.089  12.116  18.628  0.00  0.00    +0.000 C 
ATOM      5  C   UNL     1       1.146  13.006  18.405  0.00  0.00    +0.000 C 
ATOM      6  N   UNL     1       0.248  10.686  18.424  0.00  0.00    +0.000 NA
ATOM      7  C   UNL     1      -0.891   9.854  18.004  0.00  0.00    +0.000 C 
ATOM      8  C   UNL     1      -2.035  10.502  17.169  0.00  0.00    +0.000 C 
ATOM      9  C   UNL     1      -3.196   9.499  17.078  0.00  0.00    +0.000 C 
BRANCH   2  10
ATOM     10  C   UNL     1      -3.183  11.865  18.904  0.00  0.00    +0.000 C 
BRANCH  10  11
ATOM     11  C   UNL     1      -4.670  12.270  18.807  0.00  0.00    +0.000 C 
BRANCH  11  12
ATOM     12  C   UNL     1      -5.438  12.134  20.127  0.00  0.00    +0.000 C 
BRANCH  12  14
ATOM     13  C   UNL     1      -7.433  10.607  20.441  0.00  0.00    +0.000 C 
ATOM     14  C   UNL     1      -6.938  11.932  19.880  0.00  0.00    +0.000 C 
ENDBRANCH  12  14
ENDBRANCH  11  12
ENDBRANCH  10  11
ENDBRANCH   2  10
ENDBRANCH   1   6
BRANCH   1  15
ATOM     15  C   UNL     1       1.818   8.785  19.090  0.00  0.00    +0.000 A 
ATOM     16  C   UNL     1       2.016   7.649  19.899  0.00  0.00    +0.000 A 
ATOM     17  C   UNL     1       2.683   6.499  19.429  0.00  0.00    +0.000 A 
ATOM     18  C   UNL     1       3.252   6.482  18.159  0.00  0.00    +0.000 A 
ATOM     19  C   UNL     1       3.103   7.634  17.365  0.00  0.00    +0.000 A 
ATOM     20  C   UNL     1       2.395   8.756  17.813  0.00  0.00    +0.000 A 
BRANCH  18  21
ATOM     21  C   UNL     1       3.915   5.314  17.500  0.00  0.00    +0.000 C 
ATOM     22  O   UNL     1       3.171   4.351  17.276  0.00  0.00    +0.000 OA
ATOM     23  N   UNL     1       5.268   5.263  17.110  0.00  0.00    +0.000 N 
BRANCH  23  24
ATOM     24  C   UNL     1       6.289   6.287  17.360  0.00  0.00    +0.000 C 
ATOM     25  C   UNL     1       7.487   5.887  18.218  0.00  0.00    +0.000 C 
ENDBRANCH  23  24
BRANCH  23  26
ATOM     26  C   UNL     1       5.678   4.009  16.459  0.00  0.00    +0.000 C 
ATOM     27  C   UNL     1       5.841   4.185  14.955  0.00  0.00    +0.000 C 
ENDBRANCH  23  26
ENDBRANCH  18  21
ENDBRANCH   1  15
BRANCH   1  28
ATOM     28  C   UNL     1       0.345   9.963  20.902  0.00  0.00    +0.000 A 
ATOM     29  C   UNL     1       0.220   8.762  21.622  0.00  0.00    +0.000 A 
ATOM     30  C   UNL     1      -0.382   8.721  22.877  0.00  0.00    +0.000 A 
ATOM     31  C   UNL     1      -0.872   9.891  23.438  0.00  0.00    +0.000 A 
ATOM     32  C   UNL     1      -0.767  11.103  22.758  0.00  0.00    +0.000 A 
ATOM     33  C   UNL     1      -0.169  11.138  21.493  0.00  0.00    +0.000 A 
BRANCH  32  34
ATOM     34  O   UNL     1      -1.274  12.174  23.442  0.00  0.00    +0.000 OA
ATOM     35  C   UNL     1      -2.681  12.357  23.402  0.00  0.00    +0.000 C 
ENDBRANCH  32  34
ENDBRANCH   1  28
TORSDOF 11
ENDMDL
MODEL 9
REMARK VINA RESULT:      -7.2      1.772      3.248
REMARK  Name = 
REMARK  17 active torsions:
REMARK  status: ('A' for Active; 'I' for Inactive)
REMARK    1  A    between atoms: C_1  and  C_2
REMARK    2  A    between atoms: C_2  and  C_3
REMARK    3  A    between atoms: C_3  and  C_4
REMARK    4  A    between atoms: C_4  and  C_5
REMARK    5  A    between atoms: C_5  and  N_6
REMARK    6  A    between atoms: C_8  and  C_9
REMARK    7  A    between atoms: N_10  and  C_11
REMARK    8  A    between atoms: C_11  and  C_12
REMARK    9  A    between atoms: C_11  and  C_25
REMARK   10  A    between atoms: C_15  and  C_16
REMARK   11  A    between atoms: N_18  and  C_19
REMARK   12  A    between atoms: N_18  and  C_21
REMARK   13  A    between atoms: C_19  and  C_20
REMARK   14  A    between atoms: C_21  and  C_22
REMARK   15  A    between atoms: C_29  and  O_30
REMARK   16  A    between atoms: O_30  and  C_31
REMARK   17  A    between atoms: C_34  and  C_35
REMARK                            x       y       z     vdW  Elec       q    Type
REMARK                         _______ _______ _______ _____ _____    ______ ____
ROOT
ATOM      1  C   UNL     1      -0.371  10.133  19.540  0.00  0.00    +0.000 C 
ENDROOT
BRANCH   1   6
ATOM      2  N   UNL     1      -0.427  14.219  21.082  0.00  0.00    +0.000 NA
ATOM      3  C   UNL     1      -0.346  13.121  22.066  0.00  0.00    +0.000 C 
ATOM      4  C   UNL     1      -0.645  11.693  21.501  0.00  0.00    +0.000 C 
ATOM      5  C   UNL     1      -0.357  10.703  22.643  0.00  0.00    +0.000 C 
ATOM      6  N   UNL     1       0.133  11.340  20.288  0.00  0.00    +0.000 NA
ATOM      7  C   UNL     1       0.424  12.482  19.408  0.00  0.00    +0.000 C 
ATOM      8  C   UNL     1       0.573  13.901  20.031  0.00  0.00    +0.000 C 
ATOM      9  C   UNL     1       0.625  14.929  18.890  0.00  0.00    +0.000 C 
BRANCH   2  10
ATOM     10  C   UNL     1      -1.793  14.437  20.576  0.00  0.00    +0.000 C 
BRANCH  10  11
ATOM     11  C   UNL     1      -2.905  14.457  21.648  0.00  0.00    +0.000 C 
BRANCH  11  12
ATOM     12  C   UNL     1      -3.957  13.355  21.473  0.00  0.00    +0.000 C 
BRANCH  12  14
ATOM     13  C   UNL     1      -3.581  12.467  23.814  0.00  0.00    +0.000 C 
ATOM     14  C   UNL     1      -4.604  12.985  22.813  0.00  0.00    +0.000 C 
ENDBRANCH  12  14
ENDBRANCH  11  12
ENDBRANCH  10  11
ENDBRANCH   2  10
ENDBRANCH   1   6
BRANCH   1  15
ATOM     15  C   UNL     1       0.761   9.195  19.052  0.00  0.00    +0.000 A 
ATOM     16  C   UNL     1       1.383   9.277  17.790  0.00  0.00    +0.000 A 
ATOM     17  C   UNL     1       2.438   8.421  17.416  0.00  0.00    +0.000 A 
ATOM     18  C   UNL     1       2.848   7.394  18.261  0.00  0.00    +0.000 A 
ATOM     19  C   UNL     1       2.195   7.273  19.502  0.00  0.00    +0.000 A 
ATOM     20  C   UNL     1       1.182   8.157  19.894  0.00  0.00    +0.000 A 
BRANCH  18  21
ATOM     21  C   UNL     1       3.998   6.464  18.035  0.00  0.00    +0.000 C 
ATOM     22  O   UNL     1       5.115   6.995  18.090  0.00  0.00    +0.000 OA
ATOM     23  N   UNL     1       3.889   5.079  17.804  0.00  0.00    +0.000 N 
BRANCH  23  24
ATOM     24  C   UNL     1       2.646   4.314  17.647  0.00  0.00    +0.000 C 
ATOM     25  C   UNL     1       2.196   3.458  18.829  0.00  0.00    +0.000 C 
ENDBRANCH  23  24
BRANCH  23  26
ATOM     26  C   UNL     1       5.170   4.377  17.633  0.00  0.00    +0.000 C 
ATOM     27  C   UNL     1       5.372   3.921  16.194  0.00  0.00    +0.000 C 
ENDBRANCH  23  26
ENDBRANCH  18  21
ENDBRANCH   1  15
BRANCH   1  28
ATOM     28  C   UNL     1      -1.491  10.410  18.507  0.00  0.00    +0.000 A 
ATOM     29  C   UNL     1      -1.486   9.880  17.205  0.00  0.00    +0.000 A 
ATOM     30  C   UNL     1      -2.535  10.109  16.319  0.00  0.00    +0.000 A 
ATOM     31  C   UNL     1      -3.616  10.878  16.723  0.00  0.00    +0.000 A 
ATOM     32  C   UNL     1      -3.661  11.421  18.007  0.00  0.00    +0.000 A 
ATOM     33  C   UNL     1      -2.600  11.195  18.892  0.00  0.00    +0.000 A 
BRANCH  32  34
ATOM     34  O   UNL     1      -4.795  12.137  18.271  0.00  0.00    +0.000 OA
ATOM     35  C   UNL     1      -6.034  11.457  18.142  0.00  0.00    +0.000 C 
ENDBRANCH  32  34
ENDBRANCH   1  28
TORSDOF 11
ENDMDL
