MODEL 1
REMARK VINA RESULT:      -7.8      0.000      0.000
REMARK  Name = 
REMARK  5 active torsions:
REMARK  status: ('A' for Active; 'I' for Inactive)
REMARK    1  A    between atoms: C_1  and  C_2
REMARK    2  A    between atoms: C_6  and  C_7
REMARK    3  A    between atoms: C_7  and  N_8
REMARK    4  A    between atoms: C_14  and  C_16
REMARK    5  A    between atoms: C_16  and  C_17
REMARK                            x       y       z     vdW  Elec       q    Type
REMARK                         _______ _______ _______ _____ _____    ______ ____
ROOT
ATOM      1  C   UNL     1      -0.048   9.469  22.961  0.00  0.00    +0.000 C 
ATOM      2  C   UNL     1      -0.668  10.270  21.819  0.00  0.00    +0.000 C 
ATOM      3  C   UNL     1      -0.398  11.761  22.113  0.00  0.00    +0.000 C 
ATOM      4  C   UNL     1      -1.112  12.679  21.124  0.00  0.00    +0.000 C 
ATOM      5  C   UNL     1      -0.775  12.285  19.687  0.00  0.00    +0.000 C 
ATOM      6  C   UNL     1      -1.196  10.823  19.463  0.00  0.00    +0.000 C 
ATOM      7  N   UNL     1      -0.368   9.956  20.383  0.00  0.00    +0.000 N 
ATOM      8  C   UNL     1       0.849   9.468  19.889  0.00  0.00    +0.000 C 
ATOM      9  O   UNL     1       1.270   9.782  18.770  0.00  0.00    +0.000 OA
ENDROOT
BRANCH   6  10
ATOM     10  C   UNL     1      -1.292  10.440  17.942  0.00  0.00    +0.000 C 
BRANCH  10  11
ATOM     11  N   UNL     1      -2.590   9.878  17.484  0.00  0.00    +0.000 NA
ATOM     12  C   UNL     1      -2.712   9.654  16.043  0.00  0.00    +0.000 C 
ATOM     13  C   UNL     1      -3.290  10.928  15.473  0.00  0.00    +0.000 C 
ATOM     14  C   UNL     1      -4.257  11.374  16.550  0.00  0.00    +0.000 C 
ATOM     15  C   UNL     1      -3.711  10.775  17.842  0.00  0.00    +0.000 C 
ENDBRANCH  10  11
ENDBRANCH   6  10
BRANCH   8  16
ATOM     16  C   UNL     1       1.698   8.470  20.664  0.00  0.00    +0.000 C 
BRANCH  16  17
ATOM     17  C   UNL     1       1.963   7.141  19.990  0.00  0.00    +0.000 A 
ATOM     18  C   UNL     1       2.565   7.054  18.729  0.00  0.00    +0.000 A 
ATOM     19  C   UNL     1       2.705   5.820  18.099  0.00  0.00    +0.000 A 
ATOM     20  C   UNL     1       2.267   4.647  18.723  0.00  0.00    +0.000 A 
ATOM     21 CL   UNL     1       2.416   3.163  17.852  0.00  0.00    +0.000 Cl
ATOM     22  C   UNL     1       1.714   4.713  20.004  0.00  0.00    +0.000 A 
ATOM     23 CL   UNL     1       1.109   3.321  20.829  0.00  0.00    +0.000 Cl
ATOM     24  C   UNL     1       1.591   5.952  20.644  0.00  0.00    +0.000 A 
ENDBRANCH  16  17
ENDBRANCH   8  16
TORSDOF 4
ENDMDL
MODEL 2
REMARK VINA RESULT:      -7.5      4.223      8.120
REMARK  Name = 
REMARK  5 active torsions:
REMARK  status: ('A' for Active; 'I' for Inactive)
REMARK    1  A    between atoms: C_1  and  C_2
REMARK    2  A    between atoms: C_6  and  C_7
REMARK    3  A    between atoms: C_7  and  N_8
REMARK    4  A    between atoms: C_14  and  C_16
REMARK    5  A    between atoms: C_16  and  C_17
REMARK                            x       y       z     vdW  Elec       q    Type
REMARK                         _______ _______ _______ _____ _____    ______ ____
ROOT
ATOM      1  C   UNL     1       2.236   3.631  21.376  0.00  0.00    +0.000 C 
ATOM      2  C   UNL     1       3.044   3.682  20.083  0.00  0.00    +0.000 C 
ATOM      3  C   UNL     1       2.385   2.694  19.097  0.00  0.00    +0.000 C 
ATOM      4  C   UNL     1       3.200   2.532  17.817  0.00  0.00    +0.000 C 
ATOM      5  C   UNL     1       3.490   3.893  17.189  0.00  0.00    +0.000 C 
ATOM      6  C   UNL     1       4.255   4.755  18.208  0.00  0.00    +0.000 C 
ATOM      7  N   UNL     1       3.351   4.981  19.397  0.00  0.00    +0.000 N 
ATOM      8  C   UNL     1       2.521   6.110  19.373  0.00  0.00    +0.000 C 
ATOM      9  O   UNL     1       2.474   6.862  18.393  0.00  0.00    +0.000 OA
ENDROOT
BRANCH   6  10
ATOM     10  C   UNL     1       4.968   5.992  17.550  0.00  0.00    +0.000 C 
BRANCH  10  11
ATOM     11  N   UNL     1       6.403   5.820  17.204  0.00  0.00    +0.000 NA
ATOM     12  C   UNL     1       7.159   4.907  18.064  0.00  0.00    +0.000 C 
ATOM     13  C   UNL     1       7.733   5.761  19.171  0.00  0.00    +0.000 C 
ATOM     14  C   UNL     1       8.073   7.054  18.460  0.00  0.00    +0.000 C 
ATOM     15  C   UNL     1       7.122   7.112  17.270  0.00  0.00    +0.000 C 
ENDBRANCH  10  11
ENDBRANCH   6  10
BRANCH   8  16
ATOM     16  C   UNL     1       1.677   6.523  20.570  0.00  0.00    +0.000 C 
BRANCH  16  17
ATOM     17  C   UNL     1       1.175   7.950  20.582  0.00  0.00    +0.000 A 
ATOM     18  C   UNL     1       1.452   8.844  19.541  0.00  0.00    +0.000 A 
ATOM     19  C   UNL     1       1.055  10.177  19.633  0.00  0.00    +0.000 A 
ATOM     20  C   UNL     1       0.356  10.637  20.753  0.00  0.00    +0.000 A 
ATOM     21 CL   UNL     1      -0.045  12.316  20.823  0.00  0.00    +0.000 Cl
ATOM     22  C   UNL     1       0.025   9.743  21.775  0.00  0.00    +0.000 A 
ATOM     23 CL   UNL     1      -0.797  10.236  23.212  0.00  0.00    +0.000 Cl
ATOM     24  C   UNL     1       0.408   8.401  21.674  0.00  0.00    +0.000 A 
ENDBRANCH  16  17
ENDBRANCH   8  16
TORSDOF 4
ENDMDL
MODEL 3
REMARK VINA RESULT:      -7.4      4.149      7.940
REMARK  Name = 
REMARK  5 active torsions:
REMARK  status: ('A' for Active; 'I' for Inactive)
REMARK    1  A    between atoms: C_1  and  C_2
REMARK    2  A    between atoms: C_6  and  C_7
REMARK    3  A    between atoms: C_7  and  N_8
REMARK    4  A    between atoms: C_14  and  C_16
REMARK    5  A    between atoms: C_16  and  C_17
REMARK                            x       y       z     vdW  Elec       q    Type
REMARK                         _______ _______ _______ _____ _____    ______ ____
ROOT
ATOM      1  C   UNL     1       4.967   6.869  15.625  0.00  0.00    +0.000 C 
ATOM      2  C   UNL     1       5.469   5.935  16.722  0.00  0.00    +0.000 C 
ATOM      3  C   UNL     1       6.791   6.530  17.253  0.00  0.00    +0.000 C 
ATOM      4  C   UNL     1       7.481   5.599  18.247  0.00  0.00    +0.000 C 
ATOM      5  C   UNL     1       6.519   5.196  19.362  0.00  0.00    +0.000 C 
ATOM      6  C   UNL     1       5.297   4.503  18.736  0.00  0.00    +0.000 C 
ATOM      7  N   UNL     1       4.589   5.512  17.861  0.00  0.00    +0.000 N 
ATOM      8  C   UNL     1       3.587   6.291  18.454  0.00  0.00    +0.000 C 
ATOM      9  O   UNL     1       3.329   6.212  19.660  0.00  0.00    +0.000 OA
ENDROOT
BRANCH   6  10
ATOM     10  C   UNL     1       4.457   3.682  19.780  0.00  0.00    +0.000 C 
BRANCH  10  11
ATOM     11  N   UNL     1       3.792   2.453  19.271  0.00  0.00    +0.000 NA
ATOM     12  C   UNL     1       3.645   2.366  17.817  0.00  0.00    +0.000 C 
ATOM     13  C   UNL     1       2.303   2.984  17.499  0.00  0.00    +0.000 C 
ATOM     14  C   UNL     1       1.443   2.550  18.667  0.00  0.00    +0.000 C 
ATOM     15  C   UNL     1       2.422   2.329  19.816  0.00  0.00    +0.000 C 
ENDBRANCH  10  11
ENDBRANCH   6  10
BRANCH   8  16
ATOM     16  C   UNL     1       2.707   7.234  17.646  0.00  0.00    +0.000 C 
BRANCH  16  17
ATOM     17  C   UNL     1       2.037   8.354  18.412  0.00  0.00    +0.000 A 
ATOM     18  C   UNL     1       1.845   9.624  17.854  0.00  0.00    +0.000 A 
ATOM     19  C   UNL     1       1.311  10.657  18.622  0.00  0.00    +0.000 A 
ATOM     20  C   UNL     1       0.938  10.438  19.952  0.00  0.00    +0.000 A 
ATOM     21 CL   UNL     1       0.345  11.783  20.858  0.00  0.00    +0.000 Cl
ATOM     22  C   UNL     1       1.073   9.161  20.504  0.00  0.00    +0.000 A 
ATOM     23 CL   UNL     1       0.678   8.813  22.149  0.00  0.00    +0.000 Cl
ATOM     24  C   UNL     1       1.592   8.120  19.727  0.00  0.00    +0.000 A 
ENDBRANCH  16  17
ENDBRANCH   8  16
TORSDOF 4
ENDMDL
MODEL 4
REMARK VINA RESULT:      -7.4      0.740      1.525
REMARK  Name = 
REMARK  5 active torsions:
REMARK  status: ('A' for Active; 'I' for Inactive)
REMARK    1  A    between atoms: C_1  and  C_2
REMARK    2  A    between atoms: C_6  and  C_7
REMARK    3  A    between atoms: C_7  and  N_8
REMARK    4  A    between atoms: C_14  and  C_16
REMARK    5  A    between atoms: C_16  and  C_17
REMARK                            x       y       z     vdW  Elec       q    Type
REMARK                         _______ _______ _______ _____ _____    ______ ____
ROOT
ATOM      1  C   UNL     1       0.061   9.394  22.861  0.00  0.00    +0.000 C 
ATOM      2  C   UNL     1      -0.562  10.150  21.691  0.00  0.00    +0.000 C 
ATOM      3  C   UNL     1      -0.289  11.651  21.925  0.00  0.00    +0.000 C 
ATOM      4  C   UNL     1      -1.006  12.530  20.903  0.00  0.00    +0.000 C 
ATOM      5  C   UNL     1      -0.676  12.079  19.482  0.00  0.00    +0.000 C 
ATOM      6  C   UNL     1      -1.100  10.610  19.318  0.00  0.00    +0.000 C 
ATOM      7  N   UNL     1      -0.269   9.778  20.268  0.00  0.00    +0.000 N 
ATOM      8  C   UNL     1       0.945   9.269  19.788  0.00  0.00    +0.000 C 
ATOM      9  O   UNL     1       1.362   9.538  18.656  0.00  0.00    +0.000 OA
ENDROOT
BRANCH   6  10
ATOM     10  C   UNL     1      -1.203  10.167  17.813  0.00  0.00    +0.000 C 
BRANCH  10  11
ATOM     11  N   UNL     1      -2.540   9.712  17.350  0.00  0.00    +0.000 NA
ATOM     12  C   UNL     1      -2.735   9.688  15.899  0.00  0.00    +0.000 C 
ATOM     13  C   UNL     1      -3.291  11.045  15.533  0.00  0.00    +0.000 C 
ATOM     14  C   UNL     1      -4.190  11.372  16.706  0.00  0.00    +0.000 C 
ATOM     15  C   UNL     1      -3.609  10.588  17.879  0.00  0.00    +0.000 C 
ENDBRANCH  10  11
ENDBRANCH   6  10
BRANCH   8  16
ATOM     16  C   UNL     1       1.796   8.301  20.598  0.00  0.00    +0.000 C 
BRANCH  16  17
ATOM     17  C   UNL     1       2.049   6.944  19.979  0.00  0.00    +0.000 A 
ATOM     18  C   UNL     1       1.525   5.768  20.529  0.00  0.00    +0.000 A 
ATOM     19  C   UNL     1       1.858   4.528  19.987  0.00  0.00    +0.000 A 
ATOM     20  C   UNL     1       2.702   4.439  18.875  0.00  0.00    +0.000 A 
ATOM     21 CL   UNL     1       3.120   2.865  18.301  0.00  0.00    +0.000 Cl
ATOM     22  C   UNL     1       3.188   5.608  18.283  0.00  0.00    +0.000 A 
ATOM     23 CL   UNL     1       4.268   5.588  16.935  0.00  0.00    +0.000 Cl
ATOM     24  C   UNL     1       2.838   6.854  18.817  0.00  0.00    +0.000 A 
ENDBRANCH  16  17
ENDBRANCH   8  16
TORSDOF 4
ENDMDL
MODEL 5
REMARK VINA RESULT:      -7.4      4.016      7.879
REMARK  Name = 
REMARK  5 active torsions:
REMARK  status: ('A' for Active; 'I' for Inactive)
REMARK    1  A    between atoms: C_1  and  C_2
REMARK    2  A    between atoms: C_6  and  C_7
REMARK    3  A    between atoms: C_7  and  N_8
REMARK    4  A    between atoms: C_14  and  C_16
REMARK    5  A    between atoms: C_16  and  C_17
REMARK                            x       y       z     vdW  Elec       q    Type
REMARK                         _______ _______ _______ _____ _____    ______ ____
ROOT
ATOM      1  C   UNL     1       2.368   4.335  21.585  0.00  0.00    +0.000 C 
ATOM      2  C   UNL     1       2.487   3.708  20.199  0.00  0.00    +0.000 C 
ATOM      3  C   UNL     1       1.096   3.147  19.835  0.00  0.00    +0.000 C 
ATOM      4  C   UNL     1       1.122   2.347  18.535  0.00  0.00    +0.000 C 
ATOM      5  C   UNL     1       1.744   3.171  17.410  0.00  0.00    +0.000 C 
ATOM      6  C   UNL     1       3.170   3.574  17.822  0.00  0.00    +0.000 C 
ATOM      7  N   UNL     1       3.068   4.463  19.040  0.00  0.00    +0.000 N 
ATOM      8  C   UNL     1       2.960   5.843  18.825  0.00  0.00    +0.000 C 
ATOM      9  O   UNL     1       2.883   6.321  17.688  0.00  0.00    +0.000 OA
ENDROOT
BRANCH   6  10
ATOM     10  C   UNL     1       4.048   4.049  16.608  0.00  0.00    +0.000 C 
BRANCH  10  11
ATOM     11  N   UNL     1       5.502   3.753  16.689  0.00  0.00    +0.000 NA
ATOM     12  C   UNL     1       6.302   4.703  17.464  0.00  0.00    +0.000 C 
ATOM     13  C   UNL     1       6.772   5.749  16.479  0.00  0.00    +0.000 C 
ATOM     14  C   UNL     1       7.029   4.942  15.223  0.00  0.00    +0.000 C 
ATOM     15  C   UNL     1       6.113   3.728  15.341  0.00  0.00    +0.000 C 
ENDBRANCH  10  11
ENDBRANCH   6  10
BRANCH   8  16
ATOM     16  C   UNL     1       2.997   6.848  19.968  0.00  0.00    +0.000 C 
BRANCH  16  17
ATOM     17  C   UNL     1       1.908   7.900  19.978  0.00  0.00    +0.000 A 
ATOM     18  C   UNL     1       1.663   8.725  18.874  0.00  0.00    +0.000 A 
ATOM     19  C   UNL     1       0.717   9.745  18.954  0.00  0.00    +0.000 A 
ATOM     20  C   UNL     1      -0.016   9.947  20.128  0.00  0.00    +0.000 A 
ATOM     21 CL   UNL     1      -1.124  11.272  20.173  0.00  0.00    +0.000 Cl
ATOM     22  C   UNL     1       0.180   9.096  21.219  0.00  0.00    +0.000 A 
ATOM     23 CL   UNL     1      -0.650   9.300  22.720  0.00  0.00    +0.000 Cl
ATOM     24  C   UNL     1       1.117   8.060  21.131  0.00  0.00    +0.000 A 
ENDBRANCH  16  17
ENDBRANCH   8  16
TORSDOF 4
ENDMDL
MODEL 6
REMARK VINA RESULT:      -7.4      1.090      1.181
REMARK  Name = 
REMARK  5 active torsions:
REMARK  status: ('A' for Active; 'I' for Inactive)
REMARK    1  A    between atoms: C_1  and  C_2
REMARK    2  A    between atoms: C_6  and  C_7
REMARK    3  A    between atoms: C_7  and  N_8
REMARK    4  A    between atoms: C_14  and  C_16
REMARK    5  A    between atoms: C_16  and  C_17
REMARK                            x       y       z     vdW  Elec       q    Type
REMARK                         _______ _______ _______ _____ _____    ______ ____
ROOT
ATOM      1  C   UNL     1       1.110   8.899  21.962  0.00  0.00    +0.000 C 
ATOM      2  C   UNL     1       0.284   9.693  20.955  0.00  0.00    +0.000 C 
ATOM      3  C   UNL     1       0.563  11.188  21.217  0.00  0.00    +0.000 C 
ATOM      4  C   UNL     1      -0.332  12.095  20.377  0.00  0.00    +0.000 C 
ATOM      5  C   UNL     1      -0.238  11.723  18.899  0.00  0.00    +0.000 C 
ATOM      6  C   UNL     1      -0.656  10.252  18.732  0.00  0.00    +0.000 C 
ATOM      7  N   UNL     1       0.339   9.399  19.485  0.00  0.00    +0.000 N 
ATOM      8  C   UNL     1       1.464   8.947  18.782  0.00  0.00    +0.000 C 
ATOM      9  O   UNL     1       1.679   9.282  17.612  0.00  0.00    +0.000 OA
ENDROOT
BRANCH   6  10
ATOM     10  C   UNL     1      -1.003   9.880  17.245  0.00  0.00    +0.000 C 
BRANCH  10  11
ATOM     11  N   UNL     1      -2.417   9.511  16.971  0.00  0.00    +0.000 NA
ATOM     12  C   UNL     1      -2.895   9.794  15.616  0.00  0.00    +0.000 C 
ATOM     13  C   UNL     1      -3.478  11.187  15.665  0.00  0.00    +0.000 C 
ATOM     14  C   UNL     1      -4.119  11.240  17.037  0.00  0.00    +0.000 C 
ATOM     15  C   UNL     1      -3.338  10.234  17.876  0.00  0.00    +0.000 C 
ENDBRANCH  10  11
ENDBRANCH   6  10
BRANCH   8  16
ATOM     16  C   UNL     1       2.458   7.965  19.386  0.00  0.00    +0.000 C 
BRANCH  16  17
ATOM     17  C   UNL     1       2.162   6.495  19.185  0.00  0.00    +0.000 A 
ATOM     18  C   UNL     1       1.973   5.943  17.913  0.00  0.00    +0.000 A 
ATOM     19  C   UNL     1       1.608   4.605  17.772  0.00  0.00    +0.000 A 
ATOM     20  C   UNL     1       1.446   3.789  18.896  0.00  0.00    +0.000 A 
ATOM     21 CL   UNL     1       0.930   2.160  18.645  0.00  0.00    +0.000 Cl
ATOM     22  C   UNL     1       1.685   4.313  20.169  0.00  0.00    +0.000 A 
ATOM     23 CL   UNL     1       1.467   3.387  21.612  0.00  0.00    +0.000 Cl
ATOM     24  C   UNL     1       2.070   5.651  20.308  0.00  0.00    +0.000 A 
ENDBRANCH  16  17
ENDBRANCH   8  16
TORSDOF 4
ENDMDL
MODEL 7
REMARK VINA RESULT:      -7.4      4.324      8.017
REMARK  Name = 
REMARK  5 active torsions:
REMARK  status: ('A' for Active; 'I' for Inactive)
REMARK    1  A    between atoms: C_1  and  C_2
REMARK    2  A    between atoms: C_6  and  C_7
REMARK    3  A    between atoms: C_7  and  N_8
REMARK    4  A    between atoms: C_14  and  C_16
REMARK    5  A    between atoms: C_16  and  C_17
REMARK                            x       y       z     vdW  Elec       q    Type
REMARK                         _______ _______ _______ _____ _____    ______ ____
ROOT
ATOM      1  C   UNL     1       4.886   6.941  15.607  0.00  0.00    +0.000 C 
ATOM      2  C   UNL     1       5.341   5.819  16.537  0.00  0.00    +0.000 C 
ATOM      3  C   UNL     1       6.771   6.166  17.000  0.00  0.00    +0.000 C 
ATOM      4  C   UNL     1       7.402   5.035  17.809  0.00  0.00    +0.000 C 
ATOM      5  C   UNL     1       6.488   4.624  18.960  0.00  0.00    +0.000 C 
ATOM      6  C   UNL     1       5.134   4.179  18.382  0.00  0.00    +0.000 C 
ATOM      7  N   UNL     1       4.506   5.373  17.701  0.00  0.00    +0.000 N 
ATOM      8  C   UNL     1       3.675   6.195  18.474  0.00  0.00    +0.000 C 
ATOM      9  O   UNL     1       3.508   5.999  19.683  0.00  0.00    +0.000 OA
ENDROOT
BRANCH   6  10
ATOM     10  C   UNL     1       4.274   3.349  19.403  0.00  0.00    +0.000 C 
BRANCH  10  11
ATOM     11  N   UNL     1       3.319   2.371  18.819  0.00  0.00    +0.000 NA
ATOM     12  C   UNL     1       2.690   2.772  17.559  0.00  0.00    +0.000 C 
ATOM     13  C   UNL     1       1.414   3.486  17.943  0.00  0.00    +0.000 C 
ATOM     14  C   UNL     1       0.939   2.707  19.151  0.00  0.00    +0.000 C 
ATOM     15  C   UNL     1       2.203   2.100  19.751  0.00  0.00    +0.000 C 
ENDBRANCH  10  11
ENDBRANCH   6  10
BRANCH   8  16
ATOM     16  C   UNL     1       2.873   7.339  17.869  0.00  0.00    +0.000 C 
BRANCH  16  17
ATOM     17  C   UNL     1       2.091   8.201  18.836  0.00  0.00    +0.000 A 
ATOM     18  C   UNL     1       1.834   7.797  20.151  0.00  0.00    +0.000 A 
ATOM     19  C   UNL     1       1.030   8.575  20.982  0.00  0.00    +0.000 A 
ATOM     20  C   UNL     1       0.487   9.779  20.525  0.00  0.00    +0.000 A 
ATOM     21 CL   UNL     1      -0.552  10.655  21.591  0.00  0.00    +0.000 Cl
ATOM     22  C   UNL     1       0.781  10.222  19.232  0.00  0.00    +0.000 A 
ATOM     23 CL   UNL     1       0.117  11.674  18.573  0.00  0.00    +0.000 Cl
ATOM     24  C   UNL     1       1.603   9.449  18.404  0.00  0.00    +0.000 A 
ENDBRANCH  16  17
ENDBRANCH   8  16
TORSDOF 4
ENDMDL
MODEL 8
REMARK VINA RESULT:      -7.3      4.154      8.193
REMARK  Name = 
REMARK  5 active torsions:
REMARK  status: ('A' for Active; 'I' for Inactive)
REMARK    1  A    between atoms: C_1  and  C_2
REMARK    2  A    between atoms: C_6  and  C_7
REMARK    3  A    between atoms: C_7  and  N_8
REMARK    4  A    between atoms: C_14  and  C_16
REMARK    5  A    between atoms: C_16  and  C_17
REMARK                            x       y       z     vdW  Elec       q    Type
REMARK                         _______ _______ _______ _____ _____    ______ ____
ROOT
ATOM      1  C   UNL     1       2.191   3.392  21.488  0.00  0.00    +0.000 C 
ATOM      2  C   UNL     1       2.982   3.462  20.185  0.00  0.00    +0.000 C 
ATOM      3  C   UNL     1       2.327   2.467  19.203  0.00  0.00    +0.000 C 
ATOM      4  C   UNL     1       3.128   2.323  17.912  0.00  0.00    +0.000 C 
ATOM      5  C   UNL     1       3.388   3.692  17.287  0.00  0.00    +0.000 C 
ATOM      6  C   UNL     1       4.152   4.561  18.299  0.00  0.00    +0.000 C 
ATOM      7  N   UNL     1       3.260   4.768  19.501  0.00  0.00    +0.000 N 
ATOM      8  C   UNL     1       2.412   5.884  19.492  0.00  0.00    +0.000 C 
ATOM      9  O   UNL     1       2.340   6.639  18.516  0.00  0.00    +0.000 OA
ENDROOT
BRANCH   6  10
ATOM     10  C   UNL     1       4.836   5.813  17.638  0.00  0.00    +0.000 C 
BRANCH  10  11
ATOM     11  N   UNL     1       6.261   5.653  17.242  0.00  0.00    +0.000 NA
ATOM     12  C   UNL     1       7.067   4.788  18.105  0.00  0.00    +0.000 C 
ATOM     13  C   UNL     1       7.667   5.694  19.155  0.00  0.00    +0.000 C 
ATOM     14  C   UNL     1       7.953   6.965  18.384  0.00  0.00    +0.000 C 
ATOM     15  C   UNL     1       6.956   6.960  17.231  0.00  0.00    +0.000 C 
ENDBRANCH  10  11
ENDBRANCH   6  10
BRANCH   8  16
ATOM     16  C   UNL     1       1.576   6.278  20.701  0.00  0.00    +0.000 C 
BRANCH  16  17
ATOM     17  C   UNL     1       1.132   7.723  20.774  0.00  0.00    +0.000 A 
ATOM     18  C   UNL     1       0.302   8.194  21.797  0.00  0.00    +0.000 A 
ATOM     19  C   UNL     1      -0.163   9.508  21.778  0.00  0.00    +0.000 A 
ATOM     20  C   UNL     1       0.209  10.380  20.751  0.00  0.00    +0.000 A 
ATOM     21 CL   UNL     1      -0.460  11.973  20.761  0.00  0.00    +0.000 Cl
ATOM     22  C   UNL     1       1.081   9.939  19.753  0.00  0.00    +0.000 A 
ATOM     23 CL   UNL     1       1.557  10.937  18.425  0.00  0.00    +0.000 Cl
ATOM     24  C   UNL     1       1.562   8.625  19.782  0.00  0.00    +0.000 A 
ENDBRANCH  16  17
ENDBRANCH   8  16
TORSDOF 4
ENDMDL
MODEL 9
REMARK VINA RESULT:      -7.2      4.093      8.076
REMARK  Name = 
REMARK  5 active torsions:
REMARK  status: ('A' for Active; 'I' for Inactive)
REMARK    1  A    between atoms: C_1  and  C_2
REMARK    2  A    between atoms: C_6  and  C_7
REMARK    3  A    between atoms: C_7  and  N_8
REMARK    4  A    between atoms: C_14  and  C_16
REMARK    5  A    between atoms: C_16  and  C_17
REMARK                            x       y       z     vdW  Elec       q    Type
REMARK                         _______ _______ _______ _____ _____    ______ ____
ROOT
ATOM      1  C   UNL     1       0.672   3.623  20.440  0.00  0.00    +0.000 C 
ATOM      2  C   UNL     1       1.978   3.656  19.651  0.00  0.00    +0.000 C 
ATOM      3  C   UNL     1       1.638   3.269  18.196  0.00  0.00    +0.000 C 
ATOM      4  C   UNL     1       2.890   3.107  17.338  0.00  0.00    +0.000 C 
ATOM      5  C   UNL     1       3.771   4.351  17.433  0.00  0.00    +0.000 C 
ATOM      6  C   UNL     1       4.154   4.575  18.905  0.00  0.00    +0.000 C 
ATOM      7  N   UNL     1       2.885   4.850  19.678  0.00  0.00    +0.000 N 
ATOM      8  C   UNL     1       2.476   6.186  19.794  0.00  0.00    +0.000 C 
ATOM      9  O   UNL     1       3.085   7.104  19.233  0.00  0.00    +0.000 OA
ENDROOT
BRANCH   6  10
ATOM     10  C   UNL     1       5.375   5.549  19.079  0.00  0.00    +0.000 C 
BRANCH  10  11
ATOM     11  N   UNL     1       6.311   5.645  17.927  0.00  0.00    +0.000 NA
ATOM     12  C   UNL     1       7.735   5.571  18.259  0.00  0.00    +0.000 C 
ATOM     13  C   UNL     1       8.182   6.997  18.485  0.00  0.00    +0.000 C 
ATOM     14  C   UNL     1       7.383   7.771  17.456  0.00  0.00    +0.000 C 
ATOM     15  C   UNL     1       6.137   6.927  17.210  0.00  0.00    +0.000 C 
ENDBRANCH  10  11
ENDBRANCH   6  10
BRANCH   8  16
ATOM     16  C   UNL     1       1.301   6.602  20.667  0.00  0.00    +0.000 C 
BRANCH  16  17
ATOM     17  C   UNL     1       1.093   8.089  20.855  0.00  0.00    +0.000 A 
ATOM     18  C   UNL     1       1.257   8.711  22.098  0.00  0.00    +0.000 A 
ATOM     19  C   UNL     1       0.965  10.064  22.254  0.00  0.00    +0.000 A 
ATOM     20  C   UNL     1       0.524  10.827  21.168  0.00  0.00    +0.000 A 
ATOM     21 CL   UNL     1       0.119  12.482  21.453  0.00  0.00    +0.000 Cl
ATOM     22  C   UNL     1       0.408  10.232  19.909  0.00  0.00    +0.000 A 
ATOM     23 CL   UNL     1      -0.170  11.090  18.525  0.00  0.00    +0.000 Cl
ATOM     24  C   UNL     1       0.720   8.877  19.750  0.00  0.00    +0.000 A 
ENDBRANCH  16  17
ENDBRANCH   8  16
TORSDOF 4
ENDMDL
