MODEL 1
REMARK VINA RESULT:      -8.7      0.000      0.000
REMARK  Name = 
REMARK  7 active torsions:
REMARK  status: ('A' for Active; 'I' for Inactive)
REMARK    1  A    between atoms: C_1  and  C_2
REMARK    2  A    between atoms: C_7  and  N_8
REMARK    3  A    between atoms: C_10  and  C_11
REMARK    4  A    between atoms: C_11  and  S_12
REMARK    5  A    between atoms: S_12  and  C_13
REMARK    6  A    between atoms: C_22  and  C_23
REMARK    7  A    between atoms: C_29  and  N_30
REMARK                            x       y       z     vdW  Elec       q    Type
REMARK                         _______ _______ _______ _____ _____    ______ ____
ROOT
ATOM      1  N   UNL     1       1.809   7.699  19.701  0.00  0.00    +0.000 N 
ATOM      2  N   UNL     1       2.601   8.090  18.671  0.00  0.00    +0.000 NA
ATOM      3  C   UNL     1       3.228   6.987  18.231  0.00  0.00    +0.000 A 
ATOM      4  C   UNL     1       2.760   5.825  18.938  0.00  0.00    +0.000 A 
ATOM      5  C   UNL     1       1.782   6.302  19.804  0.00  0.00    +0.000 A 
ENDROOT
BRANCH   1  12
ATOM      6  C   UNL     1       0.118   9.917  18.538  0.00  0.00    +0.000 C 
ATOM      7  C   UNL     1       0.386   9.732  20.007  0.00  0.00    +0.000 A 
ATOM      8  C   UNL     1      -0.198  10.659  20.895  0.00  0.00    +0.000 A 
ATOM      9  C   UNL     1      -0.060  10.530  22.277  0.00  0.00    +0.000 A 
ATOM     10  C   UNL     1       0.676   9.476  22.800  0.00  0.00    +0.000 A 
ATOM     11  C   UNL     1       1.283   8.558  21.938  0.00  0.00    +0.000 A 
ATOM     12  C   UNL     1       1.146   8.664  20.536  0.00  0.00    +0.000 A 
ENDBRANCH   1  12
BRANCH   4  13
ATOM     13  C   UNL     1       3.101   4.407  18.807  0.00  0.00    +0.000 A 
ATOM     14  C   UNL     1       3.886   3.767  19.783  0.00  0.00    +0.000 A 
ATOM     15  C   UNL     1       4.180   2.404  19.691  0.00  0.00    +0.000 A 
ATOM     16  C   UNL     1       3.728   1.669  18.601  0.00  0.00    +0.000 A 
ATOM     17  C   UNL     1       2.966   2.293  17.616  0.00  0.00    +0.000 A 
ATOM     18  C   UNL     1       2.640   3.648  17.731  0.00  0.00    +0.000 A 
ENDBRANCH   4  13
BRANCH   5  19
ATOM     19  N   UNL     1       0.891   5.620  20.589  0.00  0.00    +0.000 N 
ATOM     20  H   UNL     1      -0.101   5.822  20.479  0.00  0.00    +0.000 HD
ATOM     21  H   UNL     1       1.122   5.447  21.568  0.00  0.00    +0.000 HD
ENDBRANCH   5  19
BRANCH   3  22
ATOM     22  C   UNL     1       4.292   7.060  17.141  0.00  0.00    +0.000 C 
BRANCH  22  23
ATOM     23  S   UNL     1       5.776   6.052  17.460  0.00  0.00    +0.000 S 
BRANCH  23  24
ATOM     24  C   UNL     1       6.233   5.431  15.917  0.00  0.00    +0.000 A 
ATOM     25  N   UNL     1       7.282   5.683  15.166  0.00  0.00    +0.000 NA
ATOM     26  C   UNL     1       7.076   4.935  14.014  0.00  0.00    +0.000 A 
ATOM     27  C   UNL     1       7.841   4.832  12.839  0.00  0.00    +0.000 A 
ATOM     28  C   UNL     1       7.373   4.023  11.788  0.00  0.00    +0.000 A 
ATOM     29  C   UNL     1       6.184   3.301  11.910  0.00  0.00    +0.000 A 
ATOM     30  C   UNL     1       5.418   3.371  13.077  0.00  0.00    +0.000 A 
ATOM     31  C   UNL     1       5.893   4.203  14.096  0.00  0.00    +0.000 A 
ATOM     32  N   UNL     1       5.391   4.531  15.328  0.00  0.00    +0.000 N 
ATOM     33  H   UNL     1       4.527   4.205  15.733  0.00  0.00    +0.000 HD
ENDBRANCH  23  24
ENDBRANCH  22  23
ENDBRANCH   3  22
TORSDOF 6
ENDMDL
MODEL 2
REMARK VINA RESULT:      -8.5      2.280      8.329
REMARK  Name = 
REMARK  7 active torsions:
REMARK  status: ('A' for Active; 'I' for Inactive)
REMARK    1  A    between atoms: C_1  and  C_2
REMARK    2  A    between atoms: C_7  and  N_8
REMARK    3  A    between atoms: C_10  and  C_11
REMARK    4  A    between atoms: C_11  and  S_12
REMARK    5  A    between atoms: S_12  and  C_13
REMARK    6  A    between atoms: C_22  and  C_23
REMARK    7  A    between atoms: C_29  and  N_30
REMARK                            x       y       z     vdW  Elec       q    Type
REMARK                         _______ _______ _______ _____ _____    ______ ____
ROOT
ATOM      1  N   UNL     1       4.637   5.202  16.977  0.00  0.00    +0.000 N 
ATOM      2  N   UNL     1       4.058   6.399  17.246  0.00  0.00    +0.000 NA
ATOM      3  C   UNL     1       3.148   6.176  18.209  0.00  0.00    +0.000 A 
ATOM      4  C   UNL     1       3.203   4.807  18.646  0.00  0.00    +0.000 A 
ATOM      5  C   UNL     1       4.233   4.235  17.907  0.00  0.00    +0.000 A 
ENDROOT
BRANCH   1  12
ATOM      6  C   UNL     1       7.448   6.312  16.979  0.00  0.00    +0.000 C 
ATOM      7  C   UNL     1       6.820   5.587  15.820  0.00  0.00    +0.000 A 
ATOM      8  C   UNL     1       7.604   5.416  14.660  0.00  0.00    +0.000 A 
ATOM      9  C   UNL     1       7.130   4.701  13.560  0.00  0.00    +0.000 A 
ATOM     10  C   UNL     1       5.856   4.151  13.593  0.00  0.00    +0.000 A 
ATOM     11  C   UNL     1       5.053   4.328  14.722  0.00  0.00    +0.000 A 
ATOM     12  C   UNL     1       5.518   5.038  15.852  0.00  0.00    +0.000 A 
ENDBRANCH   1  12
BRANCH   4  13
ATOM     13  C   UNL     1       2.454   4.087  19.678  0.00  0.00    +0.000 A 
ATOM     14  C   UNL     1       1.261   3.414  19.359  0.00  0.00    +0.000 A 
ATOM     15  C   UNL     1       0.562   2.687  20.326  0.00  0.00    +0.000 A 
ATOM     16  C   UNL     1       1.024   2.657  21.638  0.00  0.00    +0.000 A 
ATOM     17  C   UNL     1       2.193   3.334  21.974  0.00  0.00    +0.000 A 
ATOM     18  C   UNL     1       2.911   4.028  20.996  0.00  0.00    +0.000 A 
ENDBRANCH   4  13
BRANCH   5  19
ATOM     19  N   UNL     1       4.831   3.009  18.029  0.00  0.00    +0.000 N 
ATOM     20  H   UNL     1       5.718   2.857  17.553  0.00  0.00    +0.000 HD
ATOM     21  H   UNL     1       4.252   2.168  18.002  0.00  0.00    +0.000 HD
ENDBRANCH   5  19
BRANCH   3  22
ATOM     22  C   UNL     1       2.217   7.283  18.693  0.00  0.00    +0.000 C 
BRANCH  22  23
ATOM     23  S   UNL     1       2.327   8.835  17.746  0.00  0.00    +0.000 S 
BRANCH  23  24
ATOM     24  C   UNL     1       1.087   9.843  18.397  0.00  0.00    +0.000 A 
ATOM     25  N   UNL     1       1.030  10.513  19.525  0.00  0.00    +0.000 NA
ATOM     26  C   UNL     1      -0.235  11.088  19.527  0.00  0.00    +0.000 A 
ATOM     27  C   UNL     1      -0.879  11.883  20.492  0.00  0.00    +0.000 A 
ATOM     28  C   UNL     1      -2.200  12.304  20.258  0.00  0.00    +0.000 A 
ATOM     29  C   UNL     1      -2.862  11.972  19.074  0.00  0.00    +0.000 A 
ATOM     30  C   UNL     1      -2.234  11.202  18.091  0.00  0.00    +0.000 A 
ATOM     31  C   UNL     1      -0.930  10.774  18.361  0.00  0.00    +0.000 A 
ATOM     32  N   UNL     1      -0.052   9.994  17.657  0.00  0.00    +0.000 N 
ATOM     33  H   UNL     1      -0.214   9.560  16.761  0.00  0.00    +0.000 HD
ENDBRANCH  23  24
ENDBRANCH  22  23
ENDBRANCH   3  22
TORSDOF 6
ENDMDL
MODEL 3
REMARK VINA RESULT:      -8.5      3.965      6.842
REMARK  Name = 
REMARK  7 active torsions:
REMARK  status: ('A' for Active; 'I' for Inactive)
REMARK    1  A    between atoms: C_1  and  C_2
REMARK    2  A    between atoms: C_7  and  N_8
REMARK    3  A    between atoms: C_10  and  C_11
REMARK    4  A    between atoms: C_11  and  S_12
REMARK    5  A    between atoms: S_12  and  C_13
REMARK    6  A    between atoms: C_22  and  C_23
REMARK    7  A    between atoms: C_29  and  N_30
REMARK                            x       y       z     vdW  Elec       q    Type
REMARK                         _______ _______ _______ _____ _____    ______ ____
ROOT
ATOM      1  N   UNL     1       3.811   4.767  18.211  0.00  0.00    +0.000 N 
ATOM      2  N   UNL     1       4.412   5.979  18.325  0.00  0.00    +0.000 NA
ATOM      3  C   UNL     1       5.223   6.104  17.262  0.00  0.00    +0.000 A 
ATOM      4  C   UNL     1       5.076   4.978  16.380  0.00  0.00    +0.000 A 
ATOM      5  C   UNL     1       4.093   4.188  16.967  0.00  0.00    +0.000 A 
ENDROOT
BRANCH   1  12
ATOM      6  C   UNL     1       4.799   2.456  19.889  0.00  0.00    +0.000 C 
ATOM      7  C   UNL     1       3.456   3.115  20.054  0.00  0.00    +0.000 A 
ATOM      8  C   UNL     1       2.607   2.617  21.065  0.00  0.00    +0.000 A 
ATOM      9  C   UNL     1       1.372   3.205  21.335  0.00  0.00    +0.000 A 
ATOM     10  C   UNL     1       0.954   4.300  20.591  0.00  0.00    +0.000 A 
ATOM     11  C   UNL     1       1.767   4.796  19.569  0.00  0.00    +0.000 A 
ATOM     12  C   UNL     1       3.027   4.222  19.287  0.00  0.00    +0.000 A 
ENDBRANCH   1  12
BRANCH   4  13
ATOM     13  C   UNL     1       5.702   4.665  15.093  0.00  0.00    +0.000 A 
ATOM     14  C   UNL     1       4.992   3.960  14.105  0.00  0.00    +0.000 A 
ATOM     15  C   UNL     1       5.563   3.695  12.858  0.00  0.00    +0.000 A 
ATOM     16  C   UNL     1       6.869   4.094  12.595  0.00  0.00    +0.000 A 
ATOM     17  C   UNL     1       7.592   4.776  13.570  0.00  0.00    +0.000 A 
ATOM     18  C   UNL     1       7.004   5.075  14.803  0.00  0.00    +0.000 A 
ENDBRANCH   4  13
BRANCH   5  19
ATOM     19  N   UNL     1       3.438   3.088  16.481  0.00  0.00    +0.000 N 
ATOM     20  H   UNL     1       2.430   3.031  16.612  0.00  0.00    +0.000 HD
ATOM     21  H   UNL     1       3.871   2.169  16.575  0.00  0.00    +0.000 HD
ENDBRANCH   5  19
BRANCH   3  22
ATOM     22  C   UNL     1       6.152   7.304  17.109  0.00  0.00    +0.000 C 
BRANCH  22  23
ATOM     23  S   UNL     1       7.743   7.147  17.983  0.00  0.00    +0.000 S 
BRANCH  23  24
ATOM     24  C   UNL     1       8.279   8.769  18.228  0.00  0.00    +0.000 A 
ATOM     25  N   UNL     1       8.134   9.842  17.485  0.00  0.00    +0.000 NA
ATOM     26  C   UNL     1       8.826  10.836  18.167  0.00  0.00    +0.000 A 
ATOM     27  C   UNL     1       9.056  12.183  17.837  0.00  0.00    +0.000 A 
ATOM     28  C   UNL     1       9.842  12.972  18.696  0.00  0.00    +0.000 A 
ATOM     29  C   UNL     1      10.365  12.445  19.879  0.00  0.00    +0.000 A 
ATOM     30  C   UNL     1      10.132  11.114  20.238  0.00  0.00    +0.000 A 
ATOM     31  C   UNL     1       9.369  10.345  19.352  0.00  0.00    +0.000 A 
ATOM     32  N   UNL     1       8.987   9.030  19.368  0.00  0.00    +0.000 N 
ATOM     33  H   UNL     1       9.214   8.344  20.071  0.00  0.00    +0.000 HD
ENDBRANCH  23  24
ENDBRANCH  22  23
ENDBRANCH   3  22
TORSDOF 6
ENDMDL
MODEL 4
REMARK VINA RESULT:      -8.4      1.934      8.614
REMARK  Name = 
REMARK  7 active torsions:
REMARK  status: ('A' for Active; 'I' for Inactive)
REMARK    1  A    between atoms: C_1  and  C_2
REMARK    2  A    between atoms: C_7  and  N_8
REMARK    3  A    between atoms: C_10  and  C_11
REMARK    4  A    between atoms: C_11  and  S_12
REMARK    5  A    between atoms: S_12  and  C_13
REMARK    6  A    between atoms: C_22  and  C_23
REMARK    7  A    between atoms: C_29  and  N_30
REMARK                            x       y       z     vdW  Elec       q    Type
REMARK                         _______ _______ _______ _____ _____    ______ ____
ROOT
ATOM      1  N   UNL     1       4.646   5.068  16.689  0.00  0.00    +0.000 N 
ATOM      2  N   UNL     1       4.120   6.283  16.990  0.00  0.00    +0.000 NA
ATOM      3  C   UNL     1       3.231   6.082  17.976  0.00  0.00    +0.000 A 
ATOM      4  C   UNL     1       3.245   4.705  18.393  0.00  0.00    +0.000 A 
ATOM      5  C   UNL     1       4.231   4.105  17.617  0.00  0.00    +0.000 A 
ENDROOT
BRANCH   1  12
ATOM      6  C   UNL     1       7.497   6.069  16.624  0.00  0.00    +0.000 C 
ATOM      7  C   UNL     1       6.808   5.386  15.474  0.00  0.00    +0.000 A 
ATOM      8  C   UNL     1       7.551   5.201  14.289  0.00  0.00    +0.000 A 
ATOM      9  C   UNL     1       7.019   4.521  13.194  0.00  0.00    +0.000 A 
ATOM     10  C   UNL     1       5.726   4.020  13.257  0.00  0.00    +0.000 A 
ATOM     11  C   UNL     1       4.963   4.211  14.412  0.00  0.00    +0.000 A 
ATOM     12  C   UNL     1       5.487   4.887  15.536  0.00  0.00    +0.000 A 
ENDBRANCH   1  12
BRANCH   4  13
ATOM     13  C   UNL     1       2.499   4.001  19.438  0.00  0.00    +0.000 A 
ATOM     14  C   UNL     1       3.119   3.658  20.653  0.00  0.00    +0.000 A 
ATOM     15  C   UNL     1       2.405   3.026  21.674  0.00  0.00    +0.000 A 
ATOM     16  C   UNL     1       1.070   2.690  21.479  0.00  0.00    +0.000 A 
ATOM     17  C   UNL     1       0.446   3.005  20.275  0.00  0.00    +0.000 A 
ATOM     18  C   UNL     1       1.153   3.673  19.270  0.00  0.00    +0.000 A 
ENDBRANCH   4  13
BRANCH   5  19
ATOM     19  N   UNL     1       4.785   2.856  17.707  0.00  0.00    +0.000 N 
ATOM     20  H   UNL     1       5.299   2.617  18.554  0.00  0.00    +0.000 HD
ATOM     21  H   UNL     1       5.229   2.447  16.884  0.00  0.00    +0.000 HD
ENDBRANCH   5  19
BRANCH   3  22
ATOM     22  C   UNL     1       2.356   7.216  18.500  0.00  0.00    +0.000 C 
BRANCH  22  23
ATOM     23  S   UNL     1       2.169   7.253  20.312  0.00  0.00    +0.000 S 
BRANCH  23  24
ATOM     24  C   UNL     1       1.133   8.597  20.625  0.00  0.00    +0.000 A 
ATOM     25  N   UNL     1       0.741   9.579  19.845  0.00  0.00    +0.000 NA
ATOM     26  C   UNL     1      -0.035  10.389  20.664  0.00  0.00    +0.000 A 
ATOM     27  C   UNL     1      -0.688  11.605  20.397  0.00  0.00    +0.000 A 
ATOM     28  C   UNL     1      -1.381  12.251  21.437  0.00  0.00    +0.000 A 
ATOM     29  C   UNL     1      -1.454  11.686  22.712  0.00  0.00    +0.000 A 
ATOM     30  C   UNL     1      -0.831  10.467  22.995  0.00  0.00    +0.000 A 
ATOM     31  C   UNL     1      -0.127   9.860  21.950  0.00  0.00    +0.000 A 
ATOM     32  N   UNL     1       0.615   8.710  21.884  0.00  0.00    +0.000 N 
ATOM     33  H   UNL     1       0.795   8.065  22.638  0.00  0.00    +0.000 HD
ENDBRANCH  23  24
ENDBRANCH  22  23
ENDBRANCH   3  22
TORSDOF 6
ENDMDL
MODEL 5
REMARK VINA RESULT:      -8.3      1.754      8.464
REMARK  Name = 
REMARK  7 active torsions:
REMARK  status: ('A' for Active; 'I' for Inactive)
REMARK    1  A    between atoms: C_1  and  C_2
REMARK    2  A    between atoms: C_7  and  N_8
REMARK    3  A    between atoms: C_10  and  C_11
REMARK    4  A    between atoms: C_11  and  S_12
REMARK    5  A    between atoms: S_12  and  C_13
REMARK    6  A    between atoms: C_22  and  C_23
REMARK    7  A    between atoms: C_29  and  N_30
REMARK                            x       y       z     vdW  Elec       q    Type
REMARK                         _______ _______ _______ _____ _____    ______ ____
ROOT
ATOM      1  N   UNL     1       4.830   4.819  16.375  0.00  0.00    +0.000 N 
ATOM      2  N   UNL     1       4.701   6.077  16.869  0.00  0.00    +0.000 NA
ATOM      3  C   UNL     1       3.866   5.991  17.918  0.00  0.00    +0.000 A 
ATOM      4  C   UNL     1       3.515   4.620  18.171  0.00  0.00    +0.000 A 
ATOM      5  C   UNL     1       4.226   3.887  17.227  0.00  0.00    +0.000 A 
ENDROOT
BRANCH   1  12
ATOM      6  C   UNL     1       7.754   5.473  15.974  0.00  0.00    +0.000 C 
ATOM      7  C   UNL     1       6.852   4.916  14.906  0.00  0.00    +0.000 A 
ATOM      8  C   UNL     1       7.417   4.684  13.634  0.00  0.00    +0.000 A 
ATOM      9  C   UNL     1       6.676   4.110  12.602  0.00  0.00    +0.000 A 
ATOM     10  C   UNL     1       5.348   3.765  12.816  0.00  0.00    +0.000 A 
ATOM     11  C   UNL     1       4.761   4.008  14.060  0.00  0.00    +0.000 A 
ATOM     12  C   UNL     1       5.496   4.578  15.123  0.00  0.00    +0.000 A 
ENDBRANCH   1  12
BRANCH   4  13
ATOM     13  C   UNL     1       2.676   4.009  19.204  0.00  0.00    +0.000 A 
ATOM     14  C   UNL     1       3.114   3.952  20.540  0.00  0.00    +0.000 A 
ATOM     15  C   UNL     1       2.304   3.412  21.541  0.00  0.00    +0.000 A 
ATOM     16  C   UNL     1       1.060   2.882  21.216  0.00  0.00    +0.000 A 
ATOM     17  C   UNL     1       0.620   2.913  19.895  0.00  0.00    +0.000 A 
ATOM     18  C   UNL     1       1.416   3.490  18.902  0.00  0.00    +0.000 A 
ENDBRANCH   4  13
BRANCH   5  19
ATOM     19  N   UNL     1       4.402   2.533  17.112  0.00  0.00    +0.000 N 
ATOM     20  H   UNL     1       5.330   2.187  16.872  0.00  0.00    +0.000 HD
ATOM     21  H   UNL     1       3.676   1.974  16.663  0.00  0.00    +0.000 HD
ENDBRANCH   5  19
BRANCH   3  22
ATOM     22  C   UNL     1       3.396   7.237  18.662  0.00  0.00    +0.000 C 
BRANCH  22  23
ATOM     23  S   UNL     1       2.185   8.251  17.753  0.00  0.00    +0.000 S 
BRANCH  23  24
ATOM     24  C   UNL     1       1.263   9.045  18.977  0.00  0.00    +0.000 A 
ATOM     25  N   UNL     1       0.518  10.126  18.925  0.00  0.00    +0.000 NA
ATOM     26  C   UNL     1       0.077  10.310  20.229  0.00  0.00    +0.000 A 
ATOM     27  C   UNL     1      -0.718  11.324  20.793  0.00  0.00    +0.000 A 
ATOM     28  C   UNL     1      -0.982  11.295  22.174  0.00  0.00    +0.000 A 
ATOM     29  C   UNL     1      -0.494  10.264  22.979  0.00  0.00    +0.000 A 
ATOM     30  C   UNL     1       0.280   9.234  22.436  0.00  0.00    +0.000 A 
ATOM     31  C   UNL     1       0.549   9.301  21.065  0.00  0.00    +0.000 A 
ATOM     32  N   UNL     1       1.287   8.504  20.231  0.00  0.00    +0.000 N 
ATOM     33  H   UNL     1       1.803   7.676  20.488  0.00  0.00    +0.000 HD
ENDBRANCH  23  24
ENDBRANCH  22  23
ENDBRANCH   3  22
TORSDOF 6
ENDMDL
MODEL 6
REMARK VINA RESULT:      -8.2      2.296      8.389
REMARK  Name = 
REMARK  7 active torsions:
REMARK  status: ('A' for Active; 'I' for Inactive)
REMARK    1  A    between atoms: C_1  and  C_2
REMARK    2  A    between atoms: C_7  and  N_8
REMARK    3  A    between atoms: C_10  and  C_11
REMARK    4  A    between atoms: C_11  and  S_12
REMARK    5  A    between atoms: S_12  and  C_13
REMARK    6  A    between atoms: C_22  and  C_23
REMARK    7  A    between atoms: C_29  and  N_30
REMARK                            x       y       z     vdW  Elec       q    Type
REMARK                         _______ _______ _______ _____ _____    ______ ____
ROOT
ATOM      1  N   UNL     1       4.650   5.188  16.988  0.00  0.00    +0.000 N 
ATOM      2  N   UNL     1       4.087   6.390  17.273  0.00  0.00    +0.000 NA
ATOM      3  C   UNL     1       3.180   6.168  18.239  0.00  0.00    +0.000 A 
ATOM      4  C   UNL     1       3.220   4.794  18.661  0.00  0.00    +0.000 A 
ATOM      5  C   UNL     1       4.239   4.217  17.910  0.00  0.00    +0.000 A 
ENDROOT
BRANCH   1  12
ATOM      6  C   UNL     1       7.465   6.287  16.976  0.00  0.00    +0.000 C 
ATOM      7  C   UNL     1       6.826   5.570  15.818  0.00  0.00    +0.000 A 
ATOM      8  C   UNL     1       7.602   5.400  14.652  0.00  0.00    +0.000 A 
ATOM      9  C   UNL     1       7.118   4.691  13.552  0.00  0.00    +0.000 A 
ATOM     10  C   UNL     1       5.842   4.146  13.592  0.00  0.00    +0.000 A 
ATOM     11  C   UNL     1       5.047   4.322  14.727  0.00  0.00    +0.000 A 
ATOM     12  C   UNL     1       5.522   5.026  15.856  0.00  0.00    +0.000 A 
ENDBRANCH   1  12
BRANCH   4  13
ATOM     13  C   UNL     1       2.467   4.073  19.690  0.00  0.00    +0.000 A 
ATOM     14  C   UNL     1       1.263   3.420  19.370  0.00  0.00    +0.000 A 
ATOM     15  C   UNL     1       0.561   2.691  20.333  0.00  0.00    +0.000 A 
ATOM     16  C   UNL     1       1.030   2.640  21.642  0.00  0.00    +0.000 A 
ATOM     17  C   UNL     1       2.210   3.297  21.978  0.00  0.00    +0.000 A 
ATOM     18  C   UNL     1       2.932   3.992  21.003  0.00  0.00    +0.000 A 
ENDBRANCH   4  13
BRANCH   5  19
ATOM     19  N   UNL     1       4.821   2.982  18.016  0.00  0.00    +0.000 N 
ATOM     20  H   UNL     1       4.880   2.404  17.179  0.00  0.00    +0.000 HD
ATOM     21  H   UNL     1       4.632   2.412  18.841  0.00  0.00    +0.000 HD
ENDBRANCH   5  19
BRANCH   3  22
ATOM     22  C   UNL     1       2.265   7.281  18.739  0.00  0.00    +0.000 C 
BRANCH  22  23
ATOM     23  S   UNL     1       2.313   8.806  17.744  0.00  0.00    +0.000 S 
BRANCH  23  24
ATOM     24  C   UNL     1       0.945   9.720  18.265  0.00  0.00    +0.000 A 
ATOM     25  N   UNL     1      -0.293   9.740  17.824  0.00  0.00    +0.000 NA
ATOM     26  C   UNL     1      -0.923  10.712  18.592  0.00  0.00    +0.000 A 
ATOM     27  C   UNL     1      -2.240  11.202  18.549  0.00  0.00    +0.000 A 
ATOM     28  C   UNL     1      -2.611  12.238  19.425  0.00  0.00    +0.000 A 
ATOM     29  C   UNL     1      -1.703  12.759  20.350  0.00  0.00    +0.000 A 
ATOM     30  C   UNL     1      -0.395  12.271  20.425  0.00  0.00    +0.000 A 
ATOM     31  C   UNL     1      -0.045  11.259  19.525  0.00  0.00    +0.000 A 
ATOM     32  N   UNL     1       1.130  10.593  19.300  0.00  0.00    +0.000 N 
ATOM     33  H   UNL     1       2.006  10.736  19.778  0.00  0.00    +0.000 HD
ENDBRANCH  23  24
ENDBRANCH  22  23
ENDBRANCH   3  22
TORSDOF 6
ENDMDL
MODEL 7
REMARK VINA RESULT:      -8.2      3.844      7.706
REMARK  Name = 
REMARK  7 active torsions:
REMARK  status: ('A' for Active; 'I' for Inactive)
REMARK    1  A    between atoms: C_1  and  C_2
REMARK    2  A    between atoms: C_7  and  N_8
REMARK    3  A    between atoms: C_10  and  C_11
REMARK    4  A    between atoms: C_11  and  S_12
REMARK    5  A    between atoms: S_12  and  C_13
REMARK    6  A    between atoms: C_22  and  C_23
REMARK    7  A    between atoms: C_29  and  N_30
REMARK                            x       y       z     vdW  Elec       q    Type
REMARK                         _______ _______ _______ _____ _____    ______ ____
ROOT
ATOM      1  N   UNL     1      -1.723  11.636  18.913  0.00  0.00    +0.000 N 
ATOM      2  N   UNL     1      -1.131  10.473  19.285  0.00  0.00    +0.000 NA
ATOM      3  C   UNL     1       0.175  10.742  19.443  0.00  0.00    +0.000 A 
ATOM      4  C   UNL     1       0.426  12.146  19.258  0.00  0.00    +0.000 A 
ATOM      5  C   UNL     1      -0.825  12.705  19.017  0.00  0.00    +0.000 A 
ENDROOT
BRANCH   1  12
ATOM      6  C   UNL     1      -2.504  10.755  16.130  0.00  0.00    +0.000 C 
ATOM      7  C   UNL     1      -3.466  11.295  17.153  0.00  0.00    +0.000 A 
ATOM      8  C   UNL     1      -4.823  11.392  16.781  0.00  0.00    +0.000 A 
ATOM      9  C   UNL     1      -5.797  11.819  17.683  0.00  0.00    +0.000 A 
ATOM     10  C   UNL     1      -5.432  12.171  18.975  0.00  0.00    +0.000 A 
ATOM     11  C   UNL     1      -4.090  12.106  19.359  0.00  0.00    +0.000 A 
ATOM     12  C   UNL     1      -3.089  11.664  18.464  0.00  0.00    +0.000 A 
ENDBRANCH   1  12
BRANCH   4  13
ATOM     13  C   UNL     1       1.657  12.933  19.357  0.00  0.00    +0.000 A 
ATOM     14  C   UNL     1       2.359  13.311  18.198  0.00  0.00    +0.000 A 
ATOM     15  C   UNL     1       3.510  14.099  18.278  0.00  0.00    +0.000 A 
ATOM     16  C   UNL     1       4.000  14.487  19.520  0.00  0.00    +0.000 A 
ATOM     17  C   UNL     1       3.327  14.105  20.678  0.00  0.00    +0.000 A 
ATOM     18  C   UNL     1       2.153  13.349  20.593  0.00  0.00    +0.000 A 
ENDBRANCH   4  13
BRANCH   5  19
ATOM     19  N   UNL     1      -1.202  14.020  18.939  0.00  0.00    +0.000 N 
ATOM     20  H   UNL     1      -1.440  14.504  19.803  0.00  0.00    +0.000 HD
ATOM     21  H   UNL     1      -1.808  14.318  18.174  0.00  0.00    +0.000 HD
ENDBRANCH   5  19
BRANCH   3  22
ATOM     22  C   UNL     1       1.181   9.639  19.755  0.00  0.00    +0.000 C 
BRANCH  22  23
ATOM     23  S   UNL     1       2.040   8.962  18.297  0.00  0.00    +0.000 S 
BRANCH  23  24
ATOM     24  C   UNL     1       2.354   7.312  18.692  0.00  0.00    +0.000 A 
ATOM     25  N   UNL     1       2.809   6.325  17.955  0.00  0.00    +0.000 NA
ATOM     26  C   UNL     1       2.793   5.221  18.799  0.00  0.00    +0.000 A 
ATOM     27  C   UNL     1       3.131   3.878  18.557  0.00  0.00    +0.000 A 
ATOM     28  C   UNL     1       2.979   2.939  19.593  0.00  0.00    +0.000 A 
ATOM     29  C   UNL     1       2.530   3.328  20.857  0.00  0.00    +0.000 A 
ATOM     30  C   UNL     1       2.209   4.662  21.126  0.00  0.00    +0.000 A 
ATOM     31  C   UNL     1       2.345   5.570  20.071  0.00  0.00    +0.000 A 
ATOM     32  N   UNL     1       2.090   6.912  19.971  0.00  0.00    +0.000 N 
ATOM     33  H   UNL     1       1.729   7.513  20.697  0.00  0.00    +0.000 HD
ENDBRANCH  23  24
ENDBRANCH  22  23
ENDBRANCH   3  22
TORSDOF 6
ENDMDL
MODEL 8
REMARK VINA RESULT:      -8.2      4.069      6.853
REMARK  Name = 
REMARK  7 active torsions:
REMARK  status: ('A' for Active; 'I' for Inactive)
REMARK    1  A    between atoms: C_1  and  C_2
REMARK    2  A    between atoms: C_7  and  N_8
REMARK    3  A    between atoms: C_10  and  C_11
REMARK    4  A    between atoms: C_11  and  S_12
REMARK    5  A    between atoms: S_12  and  C_13
REMARK    6  A    between atoms: C_22  and  C_23
REMARK    7  A    between atoms: C_29  and  N_30
REMARK                            x       y       z     vdW  Elec       q    Type
REMARK                         _______ _______ _______ _____ _____    ______ ____
ROOT
ATOM      1  N   UNL     1       4.495   4.908  18.189  0.00  0.00    +0.000 N 
ATOM      2  N   UNL     1       5.361   5.943  18.337  0.00  0.00    +0.000 NA
ATOM      3  C   UNL     1       6.098   5.988  17.215  0.00  0.00    +0.000 A 
ATOM      4  C   UNL     1       5.635   5.009  16.268  0.00  0.00    +0.000 A 
ATOM      5  C   UNL     1       4.546   4.402  16.884  0.00  0.00    +0.000 A 
ENDROOT
BRANCH   1  12
ATOM      6  C   UNL     1       2.375   6.653  19.450  0.00  0.00    +0.000 C 
ATOM      7  C   UNL     1       2.725   5.267  19.917  0.00  0.00    +0.000 A 
ATOM      8  C   UNL     1       2.008   4.752  21.018  0.00  0.00    +0.000 A 
ATOM      9  C   UNL     1       2.217   3.453  21.481  0.00  0.00    +0.000 A 
ATOM     10  C   UNL     1       3.157   2.643  20.858  0.00  0.00    +0.000 A 
ATOM     11  C   UNL     1       3.896   3.140  19.781  0.00  0.00    +0.000 A 
ATOM     12  C   UNL     1       3.691   4.448  19.289  0.00  0.00    +0.000 A 
ENDBRANCH   1  12
BRANCH   4  13
ATOM     13  C   UNL     1       6.077   4.690  14.909  0.00  0.00    +0.000 A 
ATOM     14  C   UNL     1       5.312   3.840  14.090  0.00  0.00    +0.000 A 
ATOM     15  C   UNL     1       5.700   3.565  12.776  0.00  0.00    +0.000 A 
ATOM     16  C   UNL     1       6.881   4.102  12.275  0.00  0.00    +0.000 A 
ATOM     17  C   UNL     1       7.659   4.930  13.080  0.00  0.00    +0.000 A 
ATOM     18  C   UNL     1       7.248   5.236  14.381  0.00  0.00    +0.000 A 
ENDBRANCH   4  13
BRANCH   5  19
ATOM     19  N   UNL     1       3.625   3.522  16.379  0.00  0.00    +0.000 N 
ATOM     20  H   UNL     1       3.886   2.968  15.565  0.00  0.00    +0.000 HD
ATOM     21  H   UNL     1       2.644   3.801  16.332  0.00  0.00    +0.000 HD
ENDBRANCH   5  19
BRANCH   3  22
ATOM     22  C   UNL     1       7.260   6.965  17.067  0.00  0.00    +0.000 C 
BRANCH  22  23
ATOM     23  S   UNL     1       8.172   7.296  18.610  0.00  0.00    +0.000 S 
BRANCH  23  24
ATOM     24  C   UNL     1       8.535   8.982  18.559  0.00  0.00    +0.000 A 
ATOM     25  N   UNL     1       8.180   9.911  17.701  0.00  0.00    +0.000 NA
ATOM     26  C   UNL     1       8.821  11.062  18.145  0.00  0.00    +0.000 A 
ATOM     27  C   UNL     1       8.850  12.360  17.606  0.00  0.00    +0.000 A 
ATOM     28  C   UNL     1       9.628  13.345  18.241  0.00  0.00    +0.000 A 
ATOM     29  C   UNL     1      10.340  13.058  19.408  0.00  0.00    +0.000 A 
ATOM     30  C   UNL     1      10.309  11.780  19.973  0.00  0.00    +0.000 A 
ATOM     31  C   UNL     1       9.549  10.813  19.307  0.00  0.00    +0.000 A 
ATOM     32  N   UNL     1       9.330   9.483  19.551  0.00  0.00    +0.000 N 
ATOM     33  H   UNL     1       9.715   8.938  20.307  0.00  0.00    +0.000 HD
ENDBRANCH  23  24
ENDBRANCH  22  23
ENDBRANCH   3  22
TORSDOF 6
ENDMDL
MODEL 9
REMARK VINA RESULT:      -8.2      1.976      8.490
REMARK  Name = 
REMARK  7 active torsions:
REMARK  status: ('A' for Active; 'I' for Inactive)
REMARK    1  A    between atoms: C_1  and  C_2
REMARK    2  A    between atoms: C_7  and  N_8
REMARK    3  A    between atoms: C_10  and  C_11
REMARK    4  A    between atoms: C_11  and  S_12
REMARK    5  A    between atoms: S_12  and  C_13
REMARK    6  A    between atoms: C_22  and  C_23
REMARK    7  A    between atoms: C_29  and  N_30
REMARK                            x       y       z     vdW  Elec       q    Type
REMARK                         _______ _______ _______ _____ _____    ______ ____
ROOT
ATOM      1  N   UNL     1       4.626   5.197  16.864  0.00  0.00    +0.000 N 
ATOM      2  N   UNL     1       3.812   6.281  16.929  0.00  0.00    +0.000 NA
ATOM      3  C   UNL     1       2.879   6.004  17.854  0.00  0.00    +0.000 A 
ATOM      4  C   UNL     1       3.150   4.736  18.478  0.00  0.00    +0.000 A 
ATOM      5  C   UNL     1       4.329   4.291  17.890  0.00  0.00    +0.000 A 
ENDROOT
BRANCH   1  12
ATOM      6  C   UNL     1       7.358   6.465  17.115  0.00  0.00    +0.000 C 
ATOM      7  C   UNL     1       6.884   5.694  15.912  0.00  0.00    +0.000 A 
ATOM      8  C   UNL     1       7.783   5.557  14.833  0.00  0.00    +0.000 A 
ATOM      9  C   UNL     1       7.457   4.805  13.705  0.00  0.00    +0.000 A 
ATOM     10  C   UNL     1       6.218   4.184  13.626  0.00  0.00    +0.000 A 
ATOM     11  C   UNL     1       5.302   4.326  14.672  0.00  0.00    +0.000 A 
ATOM     12  C   UNL     1       5.618   5.073  15.829  0.00  0.00    +0.000 A 
ENDBRANCH   1  12
BRANCH   4  13
ATOM     13  C   UNL     1       2.460   4.016  19.550  0.00  0.00    +0.000 A 
ATOM     14  C   UNL     1       2.884   4.143  20.885  0.00  0.00    +0.000 A 
ATOM     15  C   UNL     1       2.206   3.497  21.922  0.00  0.00    +0.000 A 
ATOM     16  C   UNL     1       1.119   2.679  21.634  0.00  0.00    +0.000 A 
ATOM     17  C   UNL     1       0.698   2.528  20.316  0.00  0.00    +0.000 A 
ATOM     18  C   UNL     1       1.354   3.207  19.285  0.00  0.00    +0.000 A 
ENDBRANCH   4  13
BRANCH   5  19
ATOM     19  N   UNL     1       5.133   3.231  18.218  0.00  0.00    +0.000 N 
ATOM     20  H   UNL     1       4.711   2.305  18.264  0.00  0.00    +0.000 HD
ATOM     21  H   UNL     1       5.839   3.348  18.945  0.00  0.00    +0.000 HD
ENDBRANCH   5  19
BRANCH   3  22
ATOM     22  C   UNL     1       1.718   6.956  18.121  0.00  0.00    +0.000 C 
BRANCH  22  23
ATOM     23  S   UNL     1       2.192   8.710  18.257  0.00  0.00    +0.000 S 
BRANCH  23  24
ATOM     24  C   UNL     1       1.328   9.300  19.629  0.00  0.00    +0.000 A 
ATOM     25  N   UNL     1       1.168   8.788  20.828  0.00  0.00    +0.000 NA
ATOM     26  C   UNL     1       0.328   9.681  21.481  0.00  0.00    +0.000 A 
ATOM     27  C   UNL     1      -0.224   9.642  22.774  0.00  0.00    +0.000 A 
ATOM     28  C   UNL     1      -1.095  10.670  23.176  0.00  0.00    +0.000 A 
ATOM     29  C   UNL     1      -1.390  11.737  22.324  0.00  0.00    +0.000 A 
ATOM     30  C   UNL     1      -0.836  11.808  21.043  0.00  0.00    +0.000 A 
ATOM     31  C   UNL     1       0.006  10.759  20.659  0.00  0.00    +0.000 A 
ATOM     32  N   UNL     1       0.674  10.492  19.494  0.00  0.00    +0.000 N 
ATOM     33  H   UNL     1       0.663  11.047  18.652  0.00  0.00    +0.000 HD
ENDBRANCH  23  24
ENDBRANCH  22  23
ENDBRANCH   3  22
TORSDOF 6
ENDMDL
