MODEL 1
REMARK VINA RESULT:      -6.4      0.000      0.000
REMARK  Name = 
REMARK  7 active torsions:
REMARK  status: ('A' for Active; 'I' for Inactive)
REMARK    1  A    between atoms: C_1  and  C_2
REMARK    2  A    between atoms: C_5  and  C_6
REMARK    3  A    between atoms: N_17  and  C_18
REMARK    4  A    between atoms: N_21  and  C_22
REMARK    5  A    between atoms: C_22  and  C_23
REMARK    6  A    between atoms: C_23  and  C_24
REMARK    7  A    between atoms: C_24  and  C_25
REMARK                            x       y       z     vdW  Elec       q    Type
REMARK                         _______ _______ _______ _____ _____    ______ ____
ROOT
ATOM      1  C   UNL     1       0.041  10.596  20.230  0.00  0.00    +0.000 A 
ATOM      2  C   UNL     1       0.323  11.199  21.449  0.00  0.00    +0.000 A 
ATOM      3  C   UNL     1      -0.715  12.108  21.754  0.00  0.00    +0.000 A 
ATOM      4  C   UNL     1      -0.988  13.003  22.808  0.00  0.00    +0.000 A 
ATOM      5  N   UNL     1      -2.108  13.775  22.852  0.00  0.00    +0.000 NA
ATOM      6  C   UNL     1      -2.973  13.586  21.844  0.00  0.00    +0.000 A 
ATOM      7  N   UNL     1      -4.181  14.208  21.671  0.00  0.00    +0.000 N 
ATOM      8  C   UNL     1      -4.796  13.702  20.554  0.00  0.00    +0.000 A 
ATOM      9  C   UNL     1      -3.982  12.727  20.006  0.00  0.00    +0.000 A 
ATOM     10  C   UNL     1      -2.799  12.720  20.791  0.00  0.00    +0.000 A 
ATOM     11  C   UNL     1      -1.631  12.000  20.718  0.00  0.00    +0.000 A 
ATOM     12  N   UNL     1      -1.203  11.095  19.789  0.00  0.00    +0.000 N 
ATOM     13  H   UNL     1      -4.547  14.904  22.302  0.00  0.00    +0.000 HD
ENDROOT
BRANCH   1  18
ATOM     14  C   UNL     1       3.114   6.528  18.687  0.00  0.00    +0.000 C 
ATOM     15  C   UNL     1       2.333   7.796  18.749  0.00  0.00    +0.000 A 
ATOM     16  C   UNL     1       2.182   8.745  17.764  0.00  0.00    +0.000 A 
ATOM     17  C   UNL     1       1.433   9.868  18.216  0.00  0.00    +0.000 A 
ATOM     18  C   UNL     1       0.911   9.699  19.488  0.00  0.00    +0.000 A 
ATOM     19  S   UNL     1       1.492   8.232  20.174  0.00  0.00    +0.000 S 
ENDBRANCH   1  18
BRANCH  12  20
ATOM     20  C   UNL     1      -1.845  10.722  18.579  0.00  0.00    +0.000 A 
ATOM     21  C   UNL     1      -2.680   9.611  18.369  0.00  0.00    +0.000 A 
ATOM     22  N   UNL     1      -3.129   9.557  17.114  0.00  0.00    +0.000 NA
ATOM     23  N   UNL     1      -2.653  10.686  16.553  0.00  0.00    +0.000 N 
ATOM     24  C   UNL     1      -1.862  11.415  17.390  0.00  0.00    +0.000 A 
BRANCH  23  25
ATOM     25  C   UNL     1      -3.088  11.081  15.227  0.00  0.00    +0.000 C 
BRANCH  25  26
ATOM     26  C   UNL     1      -3.894  10.001  14.493  0.00  0.00    +0.000 C 
BRANCH  26  27
ATOM     27  C   UNL     1      -3.438   9.770  13.047  0.00  0.00    +0.000 C 
BRANCH  27  28
ATOM     28  C   UNL     1      -4.651   9.712  12.132  0.00  0.00    +0.000 C 
ATOM     29  N   UNL     1      -5.657   9.665  11.373  0.00  0.00    +0.000 NA
ENDBRANCH  27  28
ENDBRANCH  26  27
ENDBRANCH  25  26
ENDBRANCH  23  25
ENDBRANCH  12  20
TORSDOF 6
ENDMDL
MODEL 2
REMARK VINA RESULT:      -6.2      3.563      6.095
REMARK  Name = 
REMARK  7 active torsions:
REMARK  status: ('A' for Active; 'I' for Inactive)
REMARK    1  A    between atoms: C_1  and  C_2
REMARK    2  A    between atoms: C_5  and  C_6
REMARK    3  A    between atoms: N_17  and  C_18
REMARK    4  A    between atoms: N_21  and  C_22
REMARK    5  A    between atoms: C_22  and  C_23
REMARK    6  A    between atoms: C_23  and  C_24
REMARK    7  A    between atoms: C_24  and  C_25
REMARK                            x       y       z     vdW  Elec       q    Type
REMARK                         _______ _______ _______ _____ _____    ______ ____
ROOT
ATOM      1  C   UNL     1      -4.073  11.973  19.326  0.00  0.00    +0.000 A 
ATOM      2  C   UNL     1      -5.421  12.125  19.626  0.00  0.00    +0.000 A 
ATOM      3  C   UNL     1      -5.535  12.720  20.902  0.00  0.00    +0.000 A 
ATOM      4  C   UNL     1      -6.602  13.104  21.739  0.00  0.00    +0.000 A 
ATOM      5  N   UNL     1      -6.416  13.687  22.954  0.00  0.00    +0.000 NA
ATOM      6  C   UNL     1      -5.138  13.928  23.284  0.00  0.00    +0.000 A 
ATOM      7  N   UNL     1      -4.685  14.531  24.427  0.00  0.00    +0.000 N 
ATOM      8  C   UNL     1      -3.319  14.650  24.367  0.00  0.00    +0.000 A 
ATOM      9  C   UNL     1      -2.885  14.132  23.160  0.00  0.00    +0.000 A 
ATOM     10  C   UNL     1      -4.041  13.611  22.520  0.00  0.00    +0.000 A 
ATOM     11  C   UNL     1      -4.236  12.956  21.329  0.00  0.00    +0.000 A 
ATOM     12  N   UNL     1      -3.337  12.519  20.398  0.00  0.00    +0.000 N 
ATOM     13  H   UNL     1      -5.289  14.853  25.167  0.00  0.00    +0.000 HD
ENDROOT
BRANCH   1  18
ATOM     14  C   UNL     1      -3.081  10.131  14.427  0.00  0.00    +0.000 C 
ATOM     15  C   UNL     1      -3.032  10.433  15.886  0.00  0.00    +0.000 A 
ATOM     16  C   UNL     1      -2.115   9.989  16.811  0.00  0.00    +0.000 A 
ATOM     17  C   UNL     1      -2.440  10.415  18.130  0.00  0.00    +0.000 A 
ATOM     18  C   UNL     1      -3.518  11.285  18.173  0.00  0.00    +0.000 A 
ATOM     19  S   UNL     1      -4.219  11.431  16.609  0.00  0.00    +0.000 S 
ENDBRANCH   1  18
BRANCH  12  20
ATOM     20  C   UNL     1      -1.920  12.560  20.472  0.00  0.00    +0.000 A 
ATOM     21  C   UNL     1      -1.077  11.639  21.115  0.00  0.00    +0.000 A 
ATOM     22  N   UNL     1       0.210  11.968  20.985  0.00  0.00    +0.000 NA
ATOM     23  N   UNL     1       0.187  13.048  20.179  0.00  0.00    +0.000 N 
ATOM     24  C   UNL     1      -1.074  13.454  19.854  0.00  0.00    +0.000 A 
BRANCH  23  25
ATOM     25  C   UNL     1       1.422  13.592  19.651  0.00  0.00    +0.000 C 
BRANCH  25  26
ATOM     26  C   UNL     1       1.246  14.927  18.915  0.00  0.00    +0.000 C 
BRANCH  26  27
ATOM     27  C   UNL     1       2.406  15.906  19.130  0.00  0.00    +0.000 C 
BRANCH  27  28
ATOM     28  C   UNL     1       2.597  16.756  17.884  0.00  0.00    +0.000 C 
ATOM     29  N   UNL     1       2.754  17.459  16.850  0.00  0.00    +0.000 NA
ENDBRANCH  27  28
ENDBRANCH  26  27
ENDBRANCH  25  26
ENDBRANCH  23  25
ENDBRANCH  12  20
TORSDOF 6
ENDMDL
MODEL 3
REMARK VINA RESULT:      -6.1      2.901      7.095
REMARK  Name = 
REMARK  7 active torsions:
REMARK  status: ('A' for Active; 'I' for Inactive)
REMARK    1  A    between atoms: C_1  and  C_2
REMARK    2  A    between atoms: C_5  and  C_6
REMARK    3  A    between atoms: N_17  and  C_18
REMARK    4  A    between atoms: N_21  and  C_22
REMARK    5  A    between atoms: C_22  and  C_23
REMARK    6  A    between atoms: C_23  and  C_24
REMARK    7  A    between atoms: C_24  and  C_25
REMARK                            x       y       z     vdW  Elec       q    Type
REMARK                         _______ _______ _______ _____ _____    ______ ____
ROOT
ATOM      1  C   UNL     1      -3.033  12.896  20.651  0.00  0.00    +0.000 A 
ATOM      2  C   UNL     1      -4.403  12.900  20.424  0.00  0.00    +0.000 A 
ATOM      3  C   UNL     1      -4.652  12.339  19.151  0.00  0.00    +0.000 A 
ATOM      4  C   UNL     1      -5.799  12.088  18.372  0.00  0.00    +0.000 A 
ATOM      5  N   UNL     1      -5.745  11.505  17.144  0.00  0.00    +0.000 NA
ATOM      6  C   UNL     1      -4.522  11.127  16.742  0.00  0.00    +0.000 A 
ATOM      7  N   UNL     1      -4.202  10.493  15.571  0.00  0.00    +0.000 N 
ATOM      8  C   UNL     1      -2.856  10.223  15.555  0.00  0.00    +0.000 A 
ATOM      9  C   UNL     1      -2.303  10.672  16.740  0.00  0.00    +0.000 A 
ATOM     10  C   UNL     1      -3.356  11.310  17.446  0.00  0.00    +0.000 A 
ATOM     11  C   UNL     1      -3.413  11.966  18.652  0.00  0.00    +0.000 A 
ATOM     12  N   UNL     1      -2.421  12.287  19.535  0.00  0.00    +0.000 N 
ATOM     13  H   UNL     1      -4.877  10.251  14.863  0.00  0.00    +0.000 HD
ENDROOT
BRANCH   1  18
ATOM     14  C   UNL     1      -0.444  16.230  23.901  0.00  0.00    +0.000 C 
ATOM     15  C   UNL     1      -1.149  15.057  23.310  0.00  0.00    +0.000 A 
ATOM     16  C   UNL     1      -1.428  13.849  23.908  0.00  0.00    +0.000 A 
ATOM     17  C   UNL     1      -2.040  12.936  23.004  0.00  0.00    +0.000 A 
ATOM     18  C   UNL     1      -2.342  13.502  21.776  0.00  0.00    +0.000 A 
ATOM     19  S   UNL     1      -1.713  15.102  21.695  0.00  0.00    +0.000 S 
ENDBRANCH   1  18
BRANCH  12  20
ATOM     20  C   UNL     1      -1.024  12.089  19.382  0.00  0.00    +0.000 A 
ATOM     21  C   UNL     1      -0.292  10.931  19.694  0.00  0.00    +0.000 A 
ATOM     22  N   UNL     1       1.006  11.075  19.420  0.00  0.00    +0.000 NA
ATOM     23  N   UNL     1       1.081  12.292  18.845  0.00  0.00    +0.000 N 
ATOM     24  C   UNL     1      -0.112  12.949  18.812  0.00  0.00    +0.000 A 
BRANCH  23  25
ATOM     25  C   UNL     1       2.319  12.735  18.233  0.00  0.00    +0.000 C 
BRANCH  25  26
ATOM     26  C   UNL     1       2.636  14.215  18.482  0.00  0.00    +0.000 C 
BRANCH  26  27
ATOM     27  C   UNL     1       3.588  14.452  19.660  0.00  0.00    +0.000 C 
BRANCH  27  28
ATOM     28  C   UNL     1       2.802  14.452  20.962  0.00  0.00    +0.000 C 
ATOM     29  N   UNL     1       2.150  14.452  22.040  0.00  0.00    +0.000 NA
ENDBRANCH  27  28
ENDBRANCH  26  27
ENDBRANCH  25  26
ENDBRANCH  23  25
ENDBRANCH  12  20
TORSDOF 6
ENDMDL
MODEL 4
REMARK VINA RESULT:      -6.1      4.032      7.750
REMARK  Name = 
REMARK  7 active torsions:
REMARK  status: ('A' for Active; 'I' for Inactive)
REMARK    1  A    between atoms: C_1  and  C_2
REMARK    2  A    between atoms: C_5  and  C_6
REMARK    3  A    between atoms: N_17  and  C_18
REMARK    4  A    between atoms: N_21  and  C_22
REMARK    5  A    between atoms: C_22  and  C_23
REMARK    6  A    between atoms: C_23  and  C_24
REMARK    7  A    between atoms: C_24  and  C_25
REMARK                            x       y       z     vdW  Elec       q    Type
REMARK                         _______ _______ _______ _____ _____    ______ ____
ROOT
ATOM      1  C   UNL     1       1.532  10.130  18.627  0.00  0.00    +0.000 A 
ATOM      2  C   UNL     1       2.156   9.504  17.556  0.00  0.00    +0.000 A 
ATOM      3  C   UNL     1       2.487   8.184  17.936  0.00  0.00    +0.000 A 
ATOM      4  C   UNL     1       3.125   7.091  17.315  0.00  0.00    +0.000 A 
ATOM      5  N   UNL     1       3.305   5.892  17.932  0.00  0.00    +0.000 NA
ATOM      6  C   UNL     1       2.778   5.796  19.162  0.00  0.00    +0.000 A 
ATOM      7  N   UNL     1       2.791   4.696  19.978  0.00  0.00    +0.000 N 
ATOM      8  C   UNL     1       2.099   4.976  21.129  0.00  0.00    +0.000 A 
ATOM      9  C   UNL     1       1.617   6.270  21.049  0.00  0.00    +0.000 A 
ATOM     10  C   UNL     1       2.120   6.800  19.832  0.00  0.00    +0.000 A 
ATOM     11  C   UNL     1       2.010   8.029  19.229  0.00  0.00    +0.000 A 
ATOM     12  N   UNL     1       1.428   9.184  19.669  0.00  0.00    +0.000 N 
ATOM     13  H   UNL     1       3.226   3.821  19.729  0.00  0.00    +0.000 HD
ENDROOT
BRANCH   1  18
ATOM     14  C   UNL     1       1.536  15.442  19.035  0.00  0.00    +0.000 C 
ATOM     15  C   UNL     1       1.142  14.013  18.877  0.00  0.00    +0.000 A 
ATOM     16  C   UNL     1      -0.121  13.501  18.681  0.00  0.00    +0.000 A 
ATOM     17  C   UNL     1      -0.121  12.077  18.661  0.00  0.00    +0.000 A 
ATOM     18  C   UNL     1       1.151  11.530  18.706  0.00  0.00    +0.000 A 
ATOM     19  S   UNL     1       2.318  12.772  18.943  0.00  0.00    +0.000 S 
ENDBRANCH   1  18
BRANCH  12  20
ATOM     20  C   UNL     1       0.845   9.435  20.938  0.00  0.00    +0.000 A 
ATOM     21  C   UNL     1       1.460   9.309  22.195  0.00  0.00    +0.000 A 
ATOM     22  N   UNL     1       0.631   9.633  23.189  0.00  0.00    +0.000 NA
ATOM     23  N   UNL     1      -0.481  10.055  22.556  0.00  0.00    +0.000 N 
ATOM     24  C   UNL     1      -0.409   9.942  21.200  0.00  0.00    +0.000 A 
BRANCH  23  25
ATOM     25  C   UNL     1      -1.558  10.673  23.306  0.00  0.00    +0.000 C 
BRANCH  25  26
ATOM     26  C   UNL     1      -1.621  12.198  23.154  0.00  0.00    +0.000 C 
BRANCH  26  27
ATOM     27  C   UNL     1      -2.757  12.679  22.241  0.00  0.00    +0.000 C 
BRANCH  27  28
ATOM     28  C   UNL     1      -4.076  12.625  22.994  0.00  0.00    +0.000 C 
ATOM     29  N   UNL     1      -5.170  12.581  23.618  0.00  0.00    +0.000 NA
ENDBRANCH  27  28
ENDBRANCH  26  27
ENDBRANCH  25  26
ENDBRANCH  23  25
ENDBRANCH  12  20
TORSDOF 6
ENDMDL
MODEL 5
REMARK VINA RESULT:      -6.1      3.037      5.527
REMARK  Name = 
REMARK  7 active torsions:
REMARK  status: ('A' for Active; 'I' for Inactive)
REMARK    1  A    between atoms: C_1  and  C_2
REMARK    2  A    between atoms: C_5  and  C_6
REMARK    3  A    between atoms: N_17  and  C_18
REMARK    4  A    between atoms: N_21  and  C_22
REMARK    5  A    between atoms: C_22  and  C_23
REMARK    6  A    between atoms: C_23  and  C_24
REMARK    7  A    between atoms: C_24  and  C_25
REMARK                            x       y       z     vdW  Elec       q    Type
REMARK                         _______ _______ _______ _____ _____    ______ ____
ROOT
ATOM      1  C   UNL     1      -4.236  11.937  19.181  0.00  0.00    +0.000 A 
ATOM      2  C   UNL     1      -5.590  12.115  19.434  0.00  0.00    +0.000 A 
ATOM      3  C   UNL     1      -5.736  12.731  20.698  0.00  0.00    +0.000 A 
ATOM      4  C   UNL     1      -6.823  13.145  21.494  0.00  0.00    +0.000 A 
ATOM      5  N   UNL     1      -6.667  13.743  22.706  0.00  0.00    +0.000 NA
ATOM      6  C   UNL     1      -5.396  13.968  23.074  0.00  0.00    +0.000 A 
ATOM      7  N   UNL     1      -4.971  14.581  24.222  0.00  0.00    +0.000 N 
ATOM      8  C   UNL     1      -3.602  14.677  24.204  0.00  0.00    +0.000 A 
ATOM      9  C   UNL     1      -3.137  14.134  23.020  0.00  0.00    +0.000 A 
ATOM     10  C   UNL     1      -4.280  13.622  22.351  0.00  0.00    +0.000 A 
ATOM     11  C   UNL     1      -4.448  12.952  21.163  0.00  0.00    +0.000 A 
ATOM     12  N   UNL     1      -3.526  12.487  20.269  0.00  0.00    +0.000 N 
ATOM     13  H   UNL     1      -5.593  14.924  24.937  0.00  0.00    +0.000 HD
ENDROOT
BRANCH   1  18
ATOM     14  C   UNL     1      -3.044  10.087  14.330  0.00  0.00    +0.000 C 
ATOM     15  C   UNL     1      -3.076  10.365  15.794  0.00  0.00    +0.000 A 
ATOM     16  C   UNL     1      -2.263   9.839  16.772  0.00  0.00    +0.000 A 
ATOM     17  C   UNL     1      -2.647  10.272  18.073  0.00  0.00    +0.000 A 
ATOM     18  C   UNL     1      -3.655  11.223  18.057  0.00  0.00    +0.000 A 
ATOM     19  S   UNL     1      -4.231  11.443  16.451  0.00  0.00    +0.000 S 
ENDBRANCH   1  18
BRANCH  12  20
ATOM     20  C   UNL     1      -2.112  12.506  20.389  0.00  0.00    +0.000 A 
ATOM     21  C   UNL     1      -1.325  11.752  21.275  0.00  0.00    +0.000 A 
ATOM     22  N   UNL     1      -0.023  12.003  21.121  0.00  0.00    +0.000 NA
ATOM     23  N   UNL     1       0.020  12.847  20.071  0.00  0.00    +0.000 N 
ATOM     24  C   UNL     1      -1.213  13.193  19.604  0.00  0.00    +0.000 A 
BRANCH  23  25
ATOM     25  C   UNL     1       1.292  13.207  19.476  0.00  0.00    +0.000 C 
BRANCH  25  26
ATOM     26  C   UNL     1       1.933  12.079  18.657  0.00  0.00    +0.000 C 
BRANCH  26  27
ATOM     27  C   UNL     1       0.987  10.904  18.382  0.00  0.00    +0.000 C 
BRANCH  27  28
ATOM     28  C   UNL     1       1.788   9.703  17.904  0.00  0.00    +0.000 C 
ATOM     29  N   UNL     1       2.453   8.708  17.508  0.00  0.00    +0.000 NA
ENDBRANCH  27  28
ENDBRANCH  26  27
ENDBRANCH  25  26
ENDBRANCH  23  25
ENDBRANCH  12  20
TORSDOF 6
ENDMDL
MODEL 6
REMARK VINA RESULT:      -6.1      3.563      6.500
REMARK  Name = 
REMARK  7 active torsions:
REMARK  status: ('A' for Active; 'I' for Inactive)
REMARK    1  A    between atoms: C_1  and  C_2
REMARK    2  A    between atoms: C_5  and  C_6
REMARK    3  A    between atoms: N_17  and  C_18
REMARK    4  A    between atoms: N_21  and  C_22
REMARK    5  A    between atoms: C_22  and  C_23
REMARK    6  A    between atoms: C_23  and  C_24
REMARK    7  A    between atoms: C_24  and  C_25
REMARK                            x       y       z     vdW  Elec       q    Type
REMARK                         _______ _______ _______ _____ _____    ______ ____
ROOT
ATOM      1  C   UNL     1      -4.210  11.858  19.229  0.00  0.00    +0.000 A 
ATOM      2  C   UNL     1      -5.561  11.859  19.553  0.00  0.00    +0.000 A 
ATOM      3  C   UNL     1      -5.722  12.474  20.815  0.00  0.00    +0.000 A 
ATOM      4  C   UNL     1      -6.813  12.754  21.663  0.00  0.00    +0.000 A 
ATOM      5  N   UNL     1      -6.676  13.391  22.857  0.00  0.00    +0.000 NA
ATOM      6  C   UNL     1      -5.430  13.791  23.154  0.00  0.00    +0.000 A 
ATOM      7  N   UNL     1      -5.032  14.477  24.270  0.00  0.00    +0.000 N 
ATOM      8  C   UNL     1      -3.691  14.754  24.178  0.00  0.00    +0.000 A 
ATOM      9  C   UNL     1      -3.220  14.255  22.978  0.00  0.00    +0.000 A 
ATOM     10  C   UNL     1      -4.316  13.583  22.377  0.00  0.00    +0.000 A 
ATOM     11  C   UNL     1      -4.454  12.874  21.208  0.00  0.00    +0.000 A 
ATOM     12  N   UNL     1      -3.525  12.518  20.271  0.00  0.00    +0.000 N 
ATOM     13  H   UNL     1      -5.657  14.747  25.013  0.00  0.00    +0.000 HD
ENDROOT
BRANCH   1  18
ATOM     14  C   UNL     1      -3.016  10.112  14.341  0.00  0.00    +0.000 C 
ATOM     15  C   UNL     1      -3.018  10.399  15.803  0.00  0.00    +0.000 A 
ATOM     16  C   UNL     1      -2.107   9.984  16.748  0.00  0.00    +0.000 A 
ATOM     17  C   UNL     1      -2.483  10.382  18.062  0.00  0.00    +0.000 A 
ATOM     18  C   UNL     1      -3.597  11.206  18.085  0.00  0.00    +0.000 A 
ATOM     19  S   UNL     1      -4.263  11.340  16.504  0.00  0.00    +0.000 S 
ENDBRANCH   1  18
BRANCH  12  20
ATOM     20  C   UNL     1      -2.122  12.728  20.315  0.00  0.00    +0.000 A 
ATOM     21  C   UNL     1      -1.158  11.899  20.912  0.00  0.00    +0.000 A 
ATOM     22  N   UNL     1       0.077  12.384  20.763  0.00  0.00    +0.000 NA
ATOM     23  N   UNL     1      -0.097  13.474  19.989  0.00  0.00    +0.000 N 
ATOM     24  C   UNL     1      -1.405  13.733  19.705  0.00  0.00    +0.000 A 
BRANCH  23  25
ATOM     25  C   UNL     1       1.050  14.177  19.450  0.00  0.00    +0.000 C 
BRANCH  25  26
ATOM     26  C   UNL     1       2.369  13.403  19.584  0.00  0.00    +0.000 C 
BRANCH  26  27
ATOM     27  C   UNL     1       3.569  14.287  19.944  0.00  0.00    +0.000 C 
BRANCH  27  28
ATOM     28  C   UNL     1       3.607  14.510  21.448  0.00  0.00    +0.000 C 
ATOM     29  N   UNL     1       3.637  14.695  22.694  0.00  0.00    +0.000 NA
ENDBRANCH  27  28
ENDBRANCH  26  27
ENDBRANCH  25  26
ENDBRANCH  23  25
ENDBRANCH  12  20
TORSDOF 6
ENDMDL
MODEL 7
REMARK VINA RESULT:      -6.0      2.981      5.798
REMARK  Name = 
REMARK  7 active torsions:
REMARK  status: ('A' for Active; 'I' for Inactive)
REMARK    1  A    between atoms: C_1  and  C_2
REMARK    2  A    between atoms: C_5  and  C_6
REMARK    3  A    between atoms: N_17  and  C_18
REMARK    4  A    between atoms: N_21  and  C_22
REMARK    5  A    between atoms: C_22  and  C_23
REMARK    6  A    between atoms: C_23  and  C_24
REMARK    7  A    between atoms: C_24  and  C_25
REMARK                            x       y       z     vdW  Elec       q    Type
REMARK                         _______ _______ _______ _____ _____    ______ ____
ROOT
ATOM      1  C   UNL     1      -4.275  11.933  19.104  0.00  0.00    +0.000 A 
ATOM      2  C   UNL     1      -5.607  12.201  19.393  0.00  0.00    +0.000 A 
ATOM      3  C   UNL     1      -5.682  12.779  20.680  0.00  0.00    +0.000 A 
ATOM      4  C   UNL     1      -6.720  13.242  21.514  0.00  0.00    +0.000 A 
ATOM      5  N   UNL     1      -6.497  13.782  22.742  0.00  0.00    +0.000 NA
ATOM      6  C   UNL     1      -5.207  13.900  23.090  0.00  0.00    +0.000 A 
ATOM      7  N   UNL     1      -4.715  14.437  24.250  0.00  0.00    +0.000 N 
ATOM      8  C   UNL     1      -3.343  14.432  24.206  0.00  0.00    +0.000 A 
ATOM      9  C   UNL     1      -2.943  13.900  22.994  0.00  0.00    +0.000 A 
ATOM     10  C   UNL     1      -4.133  13.499  22.332  0.00  0.00    +0.000 A 
ATOM     11  C   UNL     1      -4.373  12.887  21.125  0.00  0.00    +0.000 A 
ATOM     12  N   UNL     1      -3.505  12.388  20.195  0.00  0.00    +0.000 N 
ATOM     13  H   UNL     1      -5.296  14.798  24.990  0.00  0.00    +0.000 HD
ENDROOT
BRANCH   1  18
ATOM     14  C   UNL     1      -3.362  10.134  14.174  0.00  0.00    +0.000 C 
ATOM     15  C   UNL     1      -3.321  10.385  15.643  0.00  0.00    +0.000 A 
ATOM     16  C   UNL     1      -2.489   9.809  16.575  0.00  0.00    +0.000 A 
ATOM     17  C   UNL     1      -2.800  10.231  17.899  0.00  0.00    +0.000 A 
ATOM     18  C   UNL     1      -3.770  11.219  17.944  0.00  0.00    +0.000 A 
ATOM     19  S   UNL     1      -4.405  11.493  16.368  0.00  0.00    +0.000 S 
ENDBRANCH   1  18
BRANCH  12  20
ATOM     20  C   UNL     1      -2.092  12.299  20.285  0.00  0.00    +0.000 A 
ATOM     21  C   UNL     1      -1.154  13.277  19.914  0.00  0.00    +0.000 A 
ATOM     22  N   UNL     1       0.099  12.876  20.139  0.00  0.00    +0.000 NA
ATOM     23  N   UNL     1      -0.049  11.679  20.740  0.00  0.00    +0.000 N 
ATOM     24  C   UNL     1      -1.349  11.280  20.838  0.00  0.00    +0.000 A 
BRANCH  23  25
ATOM     25  C   UNL     1       1.099  11.003  21.311  0.00  0.00    +0.000 C 
BRANCH  25  26
ATOM     26  C   UNL     1       0.830   9.540  21.689  0.00  0.00    +0.000 C 
BRANCH  26  27
ATOM     27  C   UNL     1       1.469   8.529  20.730  0.00  0.00    +0.000 C 
BRANCH  27  28
ATOM     28  C   UNL     1       1.315   9.014  19.298  0.00  0.00    +0.000 C 
ATOM     29  N   UNL     1       1.187   9.416  18.110  0.00  0.00    +0.000 NA
ENDBRANCH  27  28
ENDBRANCH  26  27
ENDBRANCH  25  26
ENDBRANCH  23  25
ENDBRANCH  12  20
TORSDOF 6
ENDMDL
MODEL 8
REMARK VINA RESULT:      -6.0      3.290      6.197
REMARK  Name = 
REMARK  7 active torsions:
REMARK  status: ('A' for Active; 'I' for Inactive)
REMARK    1  A    between atoms: C_1  and  C_2
REMARK    2  A    between atoms: C_5  and  C_6
REMARK    3  A    between atoms: N_17  and  C_18
REMARK    4  A    between atoms: N_21  and  C_22
REMARK    5  A    between atoms: C_22  and  C_23
REMARK    6  A    between atoms: C_23  and  C_24
REMARK    7  A    between atoms: C_24  and  C_25
REMARK                            x       y       z     vdW  Elec       q    Type
REMARK                         _______ _______ _______ _____ _____    ______ ____
ROOT
ATOM      1  C   UNL     1      -3.462  11.967  19.255  0.00  0.00    +0.000 A 
ATOM      2  C   UNL     1      -4.689  12.295  19.817  0.00  0.00    +0.000 A 
ATOM      3  C   UNL     1      -4.463  12.893  21.077  0.00  0.00    +0.000 A 
ATOM      4  C   UNL     1      -5.278  13.411  22.103  0.00  0.00    +0.000 A 
ATOM      5  N   UNL     1      -4.775  13.959  23.243  0.00  0.00    +0.000 NA
ATOM      6  C   UNL     1      -3.436  14.027  23.302  0.00  0.00    +0.000 A 
ATOM      7  N   UNL     1      -2.686  14.559  24.317  0.00  0.00    +0.000 N 
ATOM      8  C   UNL     1      -1.357  14.496  23.979  0.00  0.00    +0.000 A 
ATOM      9  C   UNL     1      -1.248  13.931  22.722  0.00  0.00    +0.000 A 
ATOM     10  C   UNL     1      -2.568  13.571  22.340  0.00  0.00    +0.000 A 
ATOM     11  C   UNL     1      -3.085  12.953  21.227  0.00  0.00    +0.000 A 
ATOM     12  N   UNL     1      -2.458  12.405  20.145  0.00  0.00    +0.000 N 
ATOM     13  H   UNL     1      -3.080  14.955  25.156  0.00  0.00    +0.000 HD
ENDROOT
BRANCH   1  18
ATOM     14  C   UNL     1      -3.685  10.080  14.278  0.00  0.00    +0.000 C 
ATOM     15  C   UNL     1      -3.328  10.340  15.702  0.00  0.00    +0.000 A 
ATOM     16  C   UNL     1      -2.353   9.726  16.455  0.00  0.00    +0.000 A 
ATOM     17  C   UNL     1      -2.360  10.175  17.805  0.00  0.00    +0.000 A 
ATOM     18  C   UNL     1      -3.246  11.217  18.029  0.00  0.00    +0.000 A 
ATOM     19  S   UNL     1      -4.177  11.513  16.613  0.00  0.00    +0.000 S 
ENDBRANCH   1  18
BRANCH  12  20
ATOM     20  C   UNL     1      -1.063  12.258  19.930  0.00  0.00    +0.000 A 
ATOM     21  C   UNL     1      -0.228  11.248  20.437  0.00  0.00    +0.000 A 
ATOM     22  N   UNL     1       1.035  11.399  20.035  0.00  0.00    +0.000 NA
ATOM     23  N   UNL     1       0.983  12.452  19.196  0.00  0.00    +0.000 N 
ATOM     24  C   UNL     1      -0.256  13.015  19.110  0.00  0.00    +0.000 A 
BRANCH  23  25
ATOM     25  C   UNL     1       2.142  12.813  18.404  0.00  0.00    +0.000 C 
BRANCH  25  26
ATOM     26  C   UNL     1       2.438  14.319  18.390  0.00  0.00    +0.000 C 
BRANCH  26  27
ATOM     27  C   UNL     1       3.451  14.757  19.455  0.00  0.00    +0.000 C 
BRANCH  27  28
ATOM     28  C   UNL     1       4.138  16.038  19.011  0.00  0.00    +0.000 C 
ATOM     29  N   UNL     1       4.708  17.100  18.643  0.00  0.00    +0.000 NA
ENDBRANCH  27  28
ENDBRANCH  26  27
ENDBRANCH  25  26
ENDBRANCH  23  25
ENDBRANCH  12  20
TORSDOF 6
ENDMDL
MODEL 9
REMARK VINA RESULT:      -5.9      4.183      7.070
REMARK  Name = 
REMARK  7 active torsions:
REMARK  status: ('A' for Active; 'I' for Inactive)
REMARK    1  A    between atoms: C_1  and  C_2
REMARK    2  A    between atoms: C_5  and  C_6
REMARK    3  A    between atoms: N_17  and  C_18
REMARK    4  A    between atoms: N_21  and  C_22
REMARK    5  A    between atoms: C_22  and  C_23
REMARK    6  A    between atoms: C_23  and  C_24
REMARK    7  A    between atoms: C_24  and  C_25
REMARK                            x       y       z     vdW  Elec       q    Type
REMARK                         _______ _______ _______ _____ _____    ______ ____
ROOT
ATOM      1  C   UNL     1      -1.400  14.971  20.318  0.00  0.00    +0.000 A 
ATOM      2  C   UNL     1      -1.524  16.305  19.951  0.00  0.00    +0.000 A 
ATOM      3  C   UNL     1      -0.328  16.712  19.319  0.00  0.00    +0.000 A 
ATOM      4  C   UNL     1       0.151  17.912  18.755  0.00  0.00    +0.000 A 
ATOM      5  N   UNL     1       1.381  18.021  18.183  0.00  0.00    +0.000 NA
ATOM      6  C   UNL     1       2.094  16.885  18.137  0.00  0.00    +0.000 A 
ATOM      7  N   UNL     1       3.338  16.718  17.589  0.00  0.00    +0.000 N 
ATOM      8  C   UNL     1       3.703  15.398  17.686  0.00  0.00    +0.000 A 
ATOM      9  C   UNL     1       2.674  14.700  18.291  0.00  0.00    +0.000 A 
ATOM     10  C   UNL     1       1.696  15.669  18.638  0.00  0.00    +0.000 A 
ATOM     11  C   UNL     1       0.483  15.588  19.280  0.00  0.00    +0.000 A 
ATOM     12  N   UNL     1      -0.138  14.525  19.872  0.00  0.00    +0.000 N 
ATOM     13  H   UNL     1       3.865  17.463  17.161  0.00  0.00    +0.000 HD
ENDROOT
BRANCH   1  18
ATOM     14  C   UNL     1      -4.102  12.670  24.291  0.00  0.00    +0.000 C 
ATOM     15  C   UNL     1      -3.627  13.137  22.957  0.00  0.00    +0.000 A 
ATOM     16  C   UNL     1      -4.175  12.869  21.723  0.00  0.00    +0.000 A 
ATOM     17  C   UNL     1      -3.396  13.415  20.664  0.00  0.00    +0.000 A 
ATOM     18  C   UNL     1      -2.345  14.201  21.109  0.00  0.00    +0.000 A 
ATOM     19  S   UNL     1      -2.232  14.119  22.824  0.00  0.00    +0.000 S 
ENDBRANCH   1  18
BRANCH  12  20
ATOM     20  C   UNL     1       0.369  13.211  20.051  0.00  0.00    +0.000 A 
ATOM     21  C   UNL     1       1.103  12.727  21.146  0.00  0.00    +0.000 A 
ATOM     22  N   UNL     1       1.418  11.438  21.003  0.00  0.00    +0.000 NA
ATOM     23  N   UNL     1       0.802  11.081  19.859  0.00  0.00    +0.000 N 
ATOM     24  C   UNL     1       0.169  12.117  19.239  0.00  0.00    +0.000 A 
BRANCH  23  25
ATOM     25  C   UNL     1       0.757   9.689  19.458  0.00  0.00    +0.000 C 
BRANCH  25  26
ATOM     26  C   UNL     1       1.114   9.458  17.983  0.00  0.00    +0.000 C 
BRANCH  26  27
ATOM     27  C   UNL     1       2.373   8.605  17.781  0.00  0.00    +0.000 C 
BRANCH  27  28
ATOM     28  C   UNL     1       2.408   7.491  18.815  0.00  0.00    +0.000 C 
ATOM     29  N   UNL     1       2.437   6.568  19.673  0.00  0.00    +0.000 NA
ENDBRANCH  27  28
ENDBRANCH  26  27
ENDBRANCH  25  26
ENDBRANCH  23  25
ENDBRANCH  12  20
TORSDOF 6
ENDMDL
