MODEL 1
REMARK VINA RESULT:      -8.7      0.000      0.000
REMARK  Name = 
REMARK  2 active torsions:
REMARK  status: ('A' for Active; 'I' for Inactive)
REMARK    1  A    between atoms: C_4  and  C_5
REMARK    2  A    between atoms: C_17  and  C_18
REMARK                            x       y       z     vdW  Elec       q    Type
REMARK                         _______ _______ _______ _____ _____    ______ ____
ROOT
ATOM      1  O   UNL     1       1.989  10.066  17.357  0.00  0.00    +0.000 OA
ATOM      2  C   UNL     1       1.956   9.264  18.283  0.00  0.00    +0.000 A 
ATOM      3  C   UNL     1       2.532   7.895  18.207  0.00  0.00    +0.000 A 
ATOM      4  C   UNL     1       2.472   7.094  19.290  0.00  0.00    +0.000 A 
ATOM      5  N   UNL     1       1.889   7.501  20.473  0.00  0.00    +0.000 N 
ATOM      6  C   UNL     1       1.340   8.731  20.600  0.00  0.00    +0.000 A 
ATOM      7  N   UNL     1       0.758   9.322  21.607  0.00  0.00    +0.000 NA
ATOM      8  C   UNL     1       0.415  10.568  21.095  0.00  0.00    +0.000 A 
ATOM      9  N   UNL     1       0.778  10.753  19.809  0.00  0.00    +0.000 NA
ATOM     10  N   UNL     1       1.374   9.575  19.516  0.00  0.00    +0.000 N 
ATOM     11  H   UNL     1       1.887   6.857  21.260  0.00  0.00    +0.000 HD
ENDROOT
BRANCH   4  12
ATOM     12  C   UNL     1       3.061   5.745  19.222  0.00  0.00    +0.000 A 
ATOM     13  C   UNL     1       4.453   5.582  19.343  0.00  0.00    +0.000 A 
ATOM     14  C   UNL     1       5.066   4.324  19.235  0.00  0.00    +0.000 A 
ATOM     15  C   UNL     1       4.218   3.241  19.006  0.00  0.00    +0.000 A 
ATOM     16  N   UNL     1       4.429   1.900  18.841  0.00  0.00    +0.000 N 
ATOM     17  N   UNL     1       3.281   1.234  18.639  0.00  0.00    +0.000 NA
ATOM     18  N   UNL     1       2.295   2.124  18.667  0.00  0.00    +0.000 NA
ATOM     19  C   UNL     1       2.840   3.359  18.888  0.00  0.00    +0.000 A 
ATOM     20  C   UNL     1       2.241   4.625  18.996  0.00  0.00    +0.000 A 
ATOM     21  H   UNL     1       5.298   1.380  18.851  0.00  0.00    +0.000 HD
ENDBRANCH   4  12
BRANCH   8  22
ATOM     22  C   UNL     1      -0.297  11.585  21.883  0.00  0.00    +0.000 A 
ATOM     23  C   UNL     1      -1.383  11.225  22.681  0.00  0.00    +0.000 A 
ATOM     24  C   UNL     1      -2.001  12.200  23.459  0.00  0.00    +0.000 A 
ATOM     25  C   UNL     1      -1.536  13.508  23.404  0.00  0.00    +0.000 A 
ATOM     26  C   UNL     1      -0.468  13.788  22.567  0.00  0.00    +0.000 A 
ATOM     27  N   UNL     1       0.163  12.862  21.815  0.00  0.00    +0.000 NA
ENDBRANCH   8  22
TORSDOF 2
ENDMDL
MODEL 2
REMARK VINA RESULT:      -8.5      3.590      9.011
REMARK  Name = 
REMARK  2 active torsions:
REMARK  status: ('A' for Active; 'I' for Inactive)
REMARK    1  A    between atoms: C_4  and  C_5
REMARK    2  A    between atoms: C_17  and  C_18
REMARK                            x       y       z     vdW  Elec       q    Type
REMARK                         _______ _______ _______ _____ _____    ______ ____
ROOT
ATOM      1  O   UNL     1       3.193   3.950  19.711  0.00  0.00    +0.000 OA
ATOM      2  C   UNL     1       3.086   5.084  19.257  0.00  0.00    +0.000 A 
ATOM      3  C   UNL     1       2.299   6.163  19.912  0.00  0.00    +0.000 A 
ATOM      4  C   UNL     1       2.265   7.388  19.349  0.00  0.00    +0.000 A 
ATOM      5  N   UNL     1       2.936   7.676  18.178  0.00  0.00    +0.000 N 
ATOM      6  C   UNL     1       3.660   6.735  17.531  0.00  0.00    +0.000 A 
ATOM      7  N   UNL     1       4.372   6.785  16.439  0.00  0.00    +0.000 NA
ATOM      8  C   UNL     1       4.859   5.488  16.311  0.00  0.00    +0.000 A 
ATOM      9  N   UNL     1       4.468   4.656  17.297  0.00  0.00    +0.000 NA
ATOM     10  N   UNL     1       3.714   5.470  18.069  0.00  0.00    +0.000 N 
ATOM     11  H   UNL     1       2.884   8.623  17.809  0.00  0.00    +0.000 HD
ENDROOT
BRANCH   4  12
ATOM     12  C   UNL     1       1.503   8.463  20.008  0.00  0.00    +0.000 A 
ATOM     13  C   UNL     1       1.037   9.554  19.253  0.00  0.00    +0.000 A 
ATOM     14  C   UNL     1       0.351  10.628  19.844  0.00  0.00    +0.000 A 
ATOM     15  C   UNL     1       0.152  10.550  21.222  0.00  0.00    +0.000 A 
ATOM     16  N   UNL     1      -0.449  11.375  22.132  0.00  0.00    +0.000 N 
ATOM     17  N   UNL     1      -0.394  10.871  23.376  0.00  0.00    +0.000 NA
ATOM     18  N   UNL     1       0.243   9.707  23.305  0.00  0.00    +0.000 NA
ATOM     19  C   UNL     1       0.589   9.487  22.000  0.00  0.00    +0.000 A 
ATOM     20  C   UNL     1       1.277   8.422  21.395  0.00  0.00    +0.000 A 
ATOM     21  H   UNL     1      -0.901  12.269  21.989  0.00  0.00    +0.000 HD
ENDBRANCH   4  12
BRANCH   8  22
ATOM     22  C   UNL     1       5.708   5.063  15.188  0.00  0.00    +0.000 A 
ATOM     23  C   UNL     1       5.270   4.072  14.310  0.00  0.00    +0.000 A 
ATOM     24  C   UNL     1       6.072   3.730  13.225  0.00  0.00    +0.000 A 
ATOM     25  C   UNL     1       7.295   4.369  13.057  0.00  0.00    +0.000 A 
ATOM     26  C   UNL     1       7.668   5.325  13.988  0.00  0.00    +0.000 A 
ATOM     27  N   UNL     1       6.905   5.689  15.040  0.00  0.00    +0.000 NA
ENDBRANCH   8  22
TORSDOF 2
ENDMDL
MODEL 3
REMARK VINA RESULT:      -8.5      0.673      1.270
REMARK  Name = 
REMARK  2 active torsions:
REMARK  status: ('A' for Active; 'I' for Inactive)
REMARK    1  A    between atoms: C_4  and  C_5
REMARK    2  A    between atoms: C_17  and  C_18
REMARK                            x       y       z     vdW  Elec       q    Type
REMARK                         _______ _______ _______ _____ _____    ______ ____
ROOT
ATOM      1  O   UNL     1       2.247  10.077  17.247  0.00  0.00    +0.000 OA
ATOM      2  C   UNL     1       2.057   9.221  18.104  0.00  0.00    +0.000 A 
ATOM      3  C   UNL     1       2.477   7.802  17.958  0.00  0.00    +0.000 A 
ATOM      4  C   UNL     1       2.250   6.940  18.969  0.00  0.00    +0.000 A 
ATOM      5  N   UNL     1       1.635   7.330  20.142  0.00  0.00    +0.000 N 
ATOM      6  C   UNL     1       1.224   8.605  20.331  0.00  0.00    +0.000 A 
ATOM      7  N   UNL     1       0.644   9.189  21.342  0.00  0.00    +0.000 NA
ATOM      8  C   UNL     1       0.482  10.501  20.909  0.00  0.00    +0.000 A 
ATOM      9  N   UNL     1       0.953  10.730  19.666  0.00  0.00    +0.000 NA
ATOM     10  N   UNL     1       1.429   9.513  19.319  0.00  0.00    +0.000 N 
ATOM     11  H   UNL     1       1.505   6.637  20.876  0.00  0.00    +0.000 HD
ENDROOT
BRANCH   4  12
ATOM     12  C   UNL     1       2.684   5.539  18.834  0.00  0.00    +0.000 A 
ATOM     13  C   UNL     1       2.084   4.710  17.868  0.00  0.00    +0.000 A 
ATOM     14  C   UNL     1       2.428   3.356  17.735  0.00  0.00    +0.000 A 
ATOM     15  C   UNL     1       3.401   2.876  18.610  0.00  0.00    +0.000 A 
ATOM     16  N   UNL     1       3.982   1.651  18.790  0.00  0.00    +0.000 N 
ATOM     17  N   UNL     1       4.890   1.668  19.779  0.00  0.00    +0.000 NA
ATOM     18  N   UNL     1       4.923   2.904  20.266  0.00  0.00    +0.000 NA
ATOM     19  C   UNL     1       4.021   3.662  19.571  0.00  0.00    +0.000 A 
ATOM     20  C   UNL     1       3.665   5.016  19.695  0.00  0.00    +0.000 A 
ATOM     21  H   UNL     1       3.816   0.782  18.297  0.00  0.00    +0.000 HD
ENDBRANCH   4  12
BRANCH   8  22
ATOM     22  C   UNL     1      -0.163  11.538  21.728  0.00  0.00    +0.000 A 
ATOM     23  C   UNL     1      -1.216  11.208  22.581  0.00  0.00    +0.000 A 
ATOM     24  C   UNL     1      -1.768  12.200  23.386  0.00  0.00    +0.000 A 
ATOM     25  C   UNL     1      -1.272  13.495  23.303  0.00  0.00    +0.000 A 
ATOM     26  C   UNL     1      -0.241  13.746  22.412  0.00  0.00    +0.000 A 
ATOM     27  N   UNL     1       0.326  12.802  21.632  0.00  0.00    +0.000 NA
ENDBRANCH   8  22
TORSDOF 2
ENDMDL
MODEL 4
REMARK VINA RESULT:      -8.3      3.081      3.875
REMARK  Name = 
REMARK  2 active torsions:
REMARK  status: ('A' for Active; 'I' for Inactive)
REMARK    1  A    between atoms: C_4  and  C_5
REMARK    2  A    between atoms: C_17  and  C_18
REMARK                            x       y       z     vdW  Elec       q    Type
REMARK                         _______ _______ _______ _____ _____    ______ ____
ROOT
ATOM      1  O   UNL     1       1.836   4.623  21.423  0.00  0.00    +0.000 OA
ATOM      2  C   UNL     1       2.226   5.352  20.518  0.00  0.00    +0.000 A 
ATOM      3  C   UNL     1       3.118   4.895  19.419  0.00  0.00    +0.000 A 
ATOM      4  C   UNL     1       3.470   5.765  18.451  0.00  0.00    +0.000 A 
ATOM      5  N   UNL     1       3.030   7.074  18.445  0.00  0.00    +0.000 N 
ATOM      6  C   UNL     1       2.224   7.550  19.421  0.00  0.00    +0.000 A 
ATOM      7  N   UNL     1       1.687   8.724  19.609  0.00  0.00    +0.000 NA
ATOM      8  C   UNL     1       0.973   8.567  20.792  0.00  0.00    +0.000 A 
ATOM      9  N   UNL     1       1.056   7.331  21.324  0.00  0.00    +0.000 NA
ATOM     10  N   UNL     1       1.849   6.696  20.432  0.00  0.00    +0.000 N 
ATOM     11  H   UNL     1       3.318   7.679  17.679  0.00  0.00    +0.000 HD
ENDROOT
BRANCH   4  12
ATOM     12  C   UNL     1       4.337   5.308  17.351  0.00  0.00    +0.000 A 
ATOM     13  C   UNL     1       4.057   4.096  16.696  0.00  0.00    +0.000 A 
ATOM     14  C   UNL     1       4.882   3.593  15.677  0.00  0.00    +0.000 A 
ATOM     15  C   UNL     1       5.993   4.366  15.345  0.00  0.00    +0.000 A 
ATOM     16  N   UNL     1       7.005   4.216  14.438  0.00  0.00    +0.000 N 
ATOM     17  N   UNL     1       7.872   5.240  14.481  0.00  0.00    +0.000 NA
ATOM     18  N   UNL     1       7.446   6.082  15.417  0.00  0.00    +0.000 NA
ATOM     19  C   UNL     1       6.300   5.571  15.962  0.00  0.00    +0.000 A 
ATOM     20  C   UNL     1       5.467   6.060  16.982  0.00  0.00    +0.000 A 
ATOM     21  H   UNL     1       7.170   3.466  13.777  0.00  0.00    +0.000 HD
ENDBRANCH   4  12
BRANCH   8  22
ATOM     22  C   UNL     1       0.211   9.661  21.414  0.00  0.00    +0.000 A 
ATOM     23  C   UNL     1      -0.415   9.471  22.646  0.00  0.00    +0.000 A 
ATOM     24  C   UNL     1      -1.081  10.541  23.235  0.00  0.00    +0.000 A 
ATOM     25  C   UNL     1      -1.124  11.762  22.573  0.00  0.00    +0.000 A 
ATOM     26  C   UNL     1      -0.498  11.861  21.341  0.00  0.00    +0.000 A 
ATOM     27  N   UNL     1       0.170  10.847  20.752  0.00  0.00    +0.000 NA
ENDBRANCH   8  22
TORSDOF 2
ENDMDL
MODEL 5
REMARK VINA RESULT:      -8.3      1.105      1.614
REMARK  Name = 
REMARK  2 active torsions:
REMARK  status: ('A' for Active; 'I' for Inactive)
REMARK    1  A    between atoms: C_4  and  C_5
REMARK    2  A    between atoms: C_17  and  C_18
REMARK                            x       y       z     vdW  Elec       q    Type
REMARK                         _______ _______ _______ _____ _____    ______ ____
ROOT
ATOM      1  O   UNL     1       1.827  10.113  17.602  0.00  0.00    +0.000 OA
ATOM      2  C   UNL     1       1.712   9.449  18.626  0.00  0.00    +0.000 A 
ATOM      3  C   UNL     1       2.088   8.013  18.723  0.00  0.00    +0.000 A 
ATOM      4  C   UNL     1       1.951   7.375  19.902  0.00  0.00    +0.000 A 
ATOM      5  N   UNL     1       1.469   8.009  21.029  0.00  0.00    +0.000 N 
ATOM      6  C   UNL     1       1.102   9.311  21.001  0.00  0.00    +0.000 A 
ATOM      7  N   UNL     1       0.641  10.103  21.929  0.00  0.00    +0.000 NA
ATOM      8  C   UNL     1       0.459  11.310  21.262  0.00  0.00    +0.000 A 
ATOM      9  N   UNL     1       0.803  11.274  19.959  0.00  0.00    +0.000 NA
ATOM     10  N   UNL     1       1.218   9.995  19.815  0.00  0.00    +0.000 N 
ATOM     11  H   UNL     1       1.402   7.478  21.895  0.00  0.00    +0.000 HD
ENDROOT
BRANCH   4  12
ATOM     12  C   UNL     1       2.344   5.958  20.005  0.00  0.00    +0.000 A 
ATOM     13  C   UNL     1       1.470   5.032  20.603  0.00  0.00    +0.000 A 
ATOM     14  C   UNL     1       1.819   3.682  20.770  0.00  0.00    +0.000 A 
ATOM     15  C   UNL     1       3.079   3.308  20.305  0.00  0.00    +0.000 A 
ATOM     16  N   UNL     1       3.763   2.123  20.292  0.00  0.00    +0.000 N 
ATOM     17  N   UNL     1       4.975   2.251  19.730  0.00  0.00    +0.000 NA
ATOM     18  N   UNL     1       5.111   3.521  19.363  0.00  0.00    +0.000 NA
ATOM     19  C   UNL     1       3.967   4.190  19.704  0.00  0.00    +0.000 A 
ATOM     20  C   UNL     1       3.605   5.538  19.547  0.00  0.00    +0.000 A 
ATOM     21  H   UNL     1       3.481   1.215  20.639  0.00  0.00    +0.000 HD
ENDBRANCH   4  12
BRANCH   8  22
ATOM     22  C   UNL     1      -0.078  12.511  21.919  0.00  0.00    +0.000 A 
ATOM     23  C   UNL     1      -1.192  12.418  22.754  0.00  0.00    +0.000 A 
ATOM     24  C   UNL     1      -1.642  13.563  23.407  0.00  0.00    +0.000 A 
ATOM     25  C   UNL     1      -0.987  14.769  23.193  0.00  0.00    +0.000 A 
ATOM     26  C   UNL     1       0.097  14.781  22.328  0.00  0.00    +0.000 A 
ATOM     27  N   UNL     1       0.567  13.686  21.696  0.00  0.00    +0.000 NA
ENDBRANCH   8  22
TORSDOF 2
ENDMDL
MODEL 6
REMARK VINA RESULT:      -8.2      4.085      9.327
REMARK  Name = 
REMARK  2 active torsions:
REMARK  status: ('A' for Active; 'I' for Inactive)
REMARK    1  A    between atoms: C_4  and  C_5
REMARK    2  A    between atoms: C_17  and  C_18
REMARK                            x       y       z     vdW  Elec       q    Type
REMARK                         _______ _______ _______ _____ _____    ______ ____
ROOT
ATOM      1  O   UNL     1       5.054   3.744  19.371  0.00  0.00    +0.000 OA
ATOM      2  C   UNL     1       4.549   4.727  18.842  0.00  0.00    +0.000 A 
ATOM      3  C   UNL     1       3.609   5.646  19.539  0.00  0.00    +0.000 A 
ATOM      4  C   UNL     1       3.127   6.719  18.881  0.00  0.00    +0.000 A 
ATOM      5  N   UNL     1       3.475   6.996  17.574  0.00  0.00    +0.000 N 
ATOM      6  C   UNL     1       4.318   6.194  16.885  0.00  0.00    +0.000 A 
ATOM      7  N   UNL     1       4.787   6.266  15.670  0.00  0.00    +0.000 NA
ATOM      8  C   UNL     1       5.596   5.140  15.568  0.00  0.00    +0.000 A 
ATOM      9  N   UNL     1       5.638   4.391  16.689  0.00  0.00    +0.000 NA
ATOM     10  N   UNL     1       4.825   5.084  17.518  0.00  0.00    +0.000 N 
ATOM     11  H   UNL     1       3.090   7.830  17.136  0.00  0.00    +0.000 HD
ENDROOT
BRANCH   4  12
ATOM     12  C   UNL     1       2.213   7.641  19.577  0.00  0.00    +0.000 A 
ATOM     13  C   UNL     1       1.766   7.336  20.876  0.00  0.00    +0.000 A 
ATOM     14  C   UNL     1       0.855   8.157  21.560  0.00  0.00    +0.000 A 
ATOM     15  C   UNL     1       0.421   9.296  20.883  0.00  0.00    +0.000 A 
ATOM     16  N   UNL     1      -0.442  10.307  21.203  0.00  0.00    +0.000 N 
ATOM     17  N   UNL     1      -0.551  11.205  20.211  0.00  0.00    +0.000 NA
ATOM     18  N   UNL     1       0.239  10.801  19.222  0.00  0.00    +0.000 NA
ATOM     19  C   UNL     1       0.843   9.635  19.605  0.00  0.00    +0.000 A 
ATOM     20  C   UNL     1       1.752   8.803  18.932  0.00  0.00    +0.000 A 
ATOM     21  H   UNL     1      -0.980  10.450  22.050  0.00  0.00    +0.000 HD
ENDBRANCH   4  12
BRANCH   8  22
ATOM     22  C   UNL     1       6.327   4.791  14.341  0.00  0.00    +0.000 A 
ATOM     23  C   UNL     1       5.837   3.802  13.487  0.00  0.00    +0.000 A 
ATOM     24  C   UNL     1       6.520   3.534  12.304  0.00  0.00    +0.000 A 
ATOM     25  C   UNL     1       7.681   4.240  12.016  0.00  0.00    +0.000 A 
ATOM     26  C   UNL     1       8.115   5.189  12.929  0.00  0.00    +0.000 A 
ATOM     27  N   UNL     1       7.465   5.483  14.074  0.00  0.00    +0.000 NA
ENDBRANCH   8  22
TORSDOF 2
ENDMDL
MODEL 7
REMARK VINA RESULT:      -8.1      2.935      3.611
REMARK  Name = 
REMARK  2 active torsions:
REMARK  status: ('A' for Active; 'I' for Inactive)
REMARK    1  A    between atoms: C_4  and  C_5
REMARK    2  A    between atoms: C_17  and  C_18
REMARK                            x       y       z     vdW  Elec       q    Type
REMARK                         _______ _______ _______ _____ _____    ______ ____
ROOT
ATOM      1  O   UNL     1       1.115   7.342  21.373  0.00  0.00    +0.000 OA
ATOM      2  C   UNL     1       1.651   7.627  20.308  0.00  0.00    +0.000 A 
ATOM      3  C   UNL     1       2.517   6.689  19.545  0.00  0.00    +0.000 A 
ATOM      4  C   UNL     1       3.039   7.084  18.367  0.00  0.00    +0.000 A 
ATOM      5  N   UNL     1       2.799   8.338  17.841  0.00  0.00    +0.000 N 
ATOM      6  C   UNL     1       2.027   9.238  18.492  0.00  0.00    +0.000 A 
ATOM      7  N   UNL     1       1.662  10.452  18.185  0.00  0.00    +0.000 NA
ATOM      8  C   UNL     1       0.877  10.837  19.267  0.00  0.00    +0.000 A 
ATOM      9  N   UNL     1       0.751   9.889  20.218  0.00  0.00    +0.000 NA
ATOM     10  N   UNL     1       1.483   8.876  19.702  0.00  0.00    +0.000 N 
ATOM     11  H   UNL     1       3.209   8.574  16.941  0.00  0.00    +0.000 HD
ENDROOT
BRANCH   4  12
ATOM     12  C   UNL     1       3.880   6.148  17.600  0.00  0.00    +0.000 A 
ATOM     13  C   UNL     1       3.487   4.805  17.465  0.00  0.00    +0.000 A 
ATOM     14  C   UNL     1       4.279   3.863  16.788  0.00  0.00    +0.000 A 
ATOM     15  C   UNL     1       5.475   4.336  16.251  0.00  0.00    +0.000 A 
ATOM     16  N   UNL     1       6.489   3.743  15.549  0.00  0.00    +0.000 N 
ATOM     17  N   UNL     1       7.460   4.617  15.238  0.00  0.00    +0.000 NA
ATOM     18  N   UNL     1       7.103   5.799  15.731  0.00  0.00    +0.000 NA
ATOM     19  C   UNL     1       5.895   5.655  16.357  0.00  0.00    +0.000 A 
ATOM     20  C   UNL     1       5.093   6.584  17.039  0.00  0.00    +0.000 A 
ATOM     21  H   UNL     1       6.589   2.780  15.254  0.00  0.00    +0.000 HD
ENDBRANCH   4  12
BRANCH   8  22
ATOM     22  C   UNL     1       0.258  12.167  19.370  0.00  0.00    +0.000 A 
ATOM     23  C   UNL     1       0.764  13.238  18.633  0.00  0.00    +0.000 A 
ATOM     24  C   UNL     1       0.121  14.471  18.708  0.00  0.00    +0.000 A 
ATOM     25  C   UNL     1      -0.991  14.608  19.529  0.00  0.00    +0.000 A 
ATOM     26  C   UNL     1      -1.416  13.501  20.247  0.00  0.00    +0.000 A 
ATOM     27  N   UNL     1      -0.825  12.289  20.182  0.00  0.00    +0.000 NA
ENDBRANCH   8  22
TORSDOF 2
ENDMDL
MODEL 8
REMARK VINA RESULT:      -8.1      1.138      1.153
REMARK  Name = 
REMARK  2 active torsions:
REMARK  status: ('A' for Active; 'I' for Inactive)
REMARK    1  A    between atoms: C_4  and  C_5
REMARK    2  A    between atoms: C_17  and  C_18
REMARK                            x       y       z     vdW  Elec       q    Type
REMARK                         _______ _______ _______ _____ _____    ______ ____
ROOT
ATOM      1  O   UNL     1       1.907  10.149  17.316  0.00  0.00    +0.000 OA
ATOM      2  C   UNL     1       1.858   9.350  18.244  0.00  0.00    +0.000 A 
ATOM      3  C   UNL     1       2.606   8.064  18.263  0.00  0.00    +0.000 A 
ATOM      4  C   UNL     1       2.510   7.263  19.343  0.00  0.00    +0.000 A 
ATOM      5  N   UNL     1       1.736   7.594  20.437  0.00  0.00    +0.000 N 
ATOM      6  C   UNL     1       1.027   8.745  20.474  0.00  0.00    +0.000 A 
ATOM      7  N   UNL     1       0.253   9.259  21.390  0.00  0.00    +0.000 NA
ATOM      8  C   UNL     1      -0.176  10.452  20.819  0.00  0.00    +0.000 A 
ATOM      9  N   UNL     1       0.321  10.679  19.586  0.00  0.00    +0.000 NA
ATOM     10  N   UNL     1       1.091   9.586  19.388  0.00  0.00    +0.000 N 
ATOM     11  H   UNL     1       1.716   6.955  21.229  0.00  0.00    +0.000 HD
ENDROOT
BRANCH   4  12
ATOM     12  C   UNL     1       3.267   5.999  19.372  0.00  0.00    +0.000 A 
ATOM     13  C   UNL     1       4.409   5.848  18.566  0.00  0.00    +0.000 A 
ATOM     14  C   UNL     1       5.133   4.646  18.520  0.00  0.00    +0.000 A 
ATOM     15  C   UNL     1       4.661   3.610  19.325  0.00  0.00    +0.000 A 
ATOM     16  N   UNL     1       5.078   2.326  19.544  0.00  0.00    +0.000 N 
ATOM     17  N   UNL     1       4.289   1.687  20.423  0.00  0.00    +0.000 NA
ATOM     18  N   UNL     1       3.340   2.539  20.797  0.00  0.00    +0.000 NA
ATOM     19  C   UNL     1       3.543   3.721  20.140  0.00  0.00    +0.000 A 
ATOM     20  C   UNL     1       2.827   4.929  20.172  0.00  0.00    +0.000 A 
ATOM     21  H   UNL     1       5.863   1.827  19.143  0.00  0.00    +0.000 HD
ENDBRANCH   4  12
BRANCH   8  22
ATOM     22  C   UNL     1      -1.103  11.372  21.495  0.00  0.00    +0.000 A 
ATOM     23  C   UNL     1      -1.260  11.320  22.880  0.00  0.00    +0.000 A 
ATOM     24  C   UNL     1      -2.102  12.241  23.498  0.00  0.00    +0.000 A 
ATOM     25  C   UNL     1      -2.779  13.171  22.718  0.00  0.00    +0.000 A 
ATOM     26  C   UNL     1      -2.587  13.139  21.346  0.00  0.00    +0.000 A 
ATOM     27  N   UNL     1      -1.765  12.271  20.721  0.00  0.00    +0.000 NA
ENDBRANCH   8  22
TORSDOF 2
ENDMDL
MODEL 9
REMARK VINA RESULT:      -8.1      2.926      3.505
REMARK  Name = 
REMARK  2 active torsions:
REMARK  status: ('A' for Active; 'I' for Inactive)
REMARK    1  A    between atoms: C_4  and  C_5
REMARK    2  A    between atoms: C_17  and  C_18
REMARK                            x       y       z     vdW  Elec       q    Type
REMARK                         _______ _______ _______ _____ _____    ______ ____
ROOT
ATOM      1  O   UNL     1       1.178   7.518  21.347  0.00  0.00    +0.000 OA
ATOM      2  C   UNL     1       1.684   7.728  20.251  0.00  0.00    +0.000 A 
ATOM      3  C   UNL     1       2.472   6.715  19.499  0.00  0.00    +0.000 A 
ATOM      4  C   UNL     1       2.965   7.031  18.285  0.00  0.00    +0.000 A 
ATOM      5  N   UNL     1       2.766   8.272  17.713  0.00  0.00    +0.000 N 
ATOM      6  C   UNL     1       2.066   9.237  18.351  0.00  0.00    +0.000 A 
ATOM      7  N   UNL     1       1.748  10.453  18.002  0.00  0.00    +0.000 NA
ATOM      8  C   UNL     1       1.028  10.924  19.094  0.00  0.00    +0.000 A 
ATOM      9  N   UNL     1       0.893  10.027  20.092  0.00  0.00    +0.000 NA
ATOM     10  N   UNL     1       1.553   8.956  19.595  0.00  0.00    +0.000 N 
ATOM     11  H   UNL     1       3.151   8.446  16.787  0.00  0.00    +0.000 HD
ENDROOT
BRANCH   4  12
ATOM     12  C   UNL     1       3.728   6.021  17.531  0.00  0.00    +0.000 A 
ATOM     13  C   UNL     1       3.449   4.655  17.712  0.00  0.00    +0.000 A 
ATOM     14  C   UNL     1       4.182   3.654  17.055  0.00  0.00    +0.000 A 
ATOM     15  C   UNL     1       5.200   4.089  16.208  0.00  0.00    +0.000 A 
ATOM     16  N   UNL     1       6.111   3.438  15.421  0.00  0.00    +0.000 N 
ATOM     17  N   UNL     1       6.913   4.296  14.771  0.00  0.00    +0.000 NA
ATOM     18  N   UNL     1       6.546   5.525  15.119  0.00  0.00    +0.000 NA
ATOM     19  C   UNL     1       5.502   5.427  15.998  0.00  0.00    +0.000 A 
ATOM     20  C   UNL     1       4.762   6.418  16.664  0.00  0.00    +0.000 A 
ATOM     21  H   UNL     1       6.245   2.445  15.280  0.00  0.00    +0.000 HD
ENDBRANCH   4  12
BRANCH   8  22
ATOM     22  C   UNL     1       0.478  12.287  19.159  0.00  0.00    +0.000 A 
ATOM     23  C   UNL     1      -0.777  12.514  19.724  0.00  0.00    +0.000 A 
ATOM     24  C   UNL     1      -1.246  13.821  19.822  0.00  0.00    +0.000 A 
ATOM     25  C   UNL     1      -0.463  14.861  19.336  0.00  0.00    +0.000 A 
ATOM     26  C   UNL     1       0.761  14.549  18.767  0.00  0.00    +0.000 A 
ATOM     27  N   UNL     1       1.250  13.294  18.673  0.00  0.00    +0.000 NA
ENDBRANCH   8  22
TORSDOF 2
ENDMDL
