MODEL 1
REMARK VINA RESULT:      -7.7      0.000      0.000
REMARK  Name = 
REMARK  8 active torsions:
REMARK  status: ('A' for Active; 'I' for Inactive)
REMARK    1  A    between atoms: C_2  and  O_3
REMARK    2  A    between atoms: C_2  and  C_4
REMARK    3  A    between atoms: C_6  and  C_7
REMARK    4  A    between atoms: C_7  and  C_8
REMARK    5  A    between atoms: C_11  and  O_12
REMARK    6  A    between atoms: C_13  and  C_14
REMARK    7  A    between atoms: C_14  and  O_16
REMARK    8  A    between atoms: C_20  and  O_21
REMARK                            x       y       z     vdW  Elec       q    Type
REMARK                         _______ _______ _______ _____ _____    ______ ____
ROOT
ATOM      1  C   UNL     1       3.254   6.984  18.003  0.00  0.00    +0.000 C 
ENDROOT
BRANCH   1   4
ATOM      2  C   UNL     1       1.610   3.695  19.095  0.00  0.00    +0.000 A 
ATOM      3  C   UNL     1       2.245   4.678  18.314  0.00  0.00    +0.000 A 
ATOM      4  C   UNL     1       2.548   5.943  18.843  0.00  0.00    +0.000 A 
ATOM      5  C   UNL     1       2.184   6.225  20.166  0.00  0.00    +0.000 A 
ATOM      6  C   UNL     1       1.568   5.253  20.959  0.00  0.00    +0.000 A 
ATOM      7  C   UNL     1       1.292   3.994  20.427  0.00  0.00    +0.000 A 
BRANCH   2   9
ATOM      8  O   UNL     1       0.174   1.935  18.369  0.00  0.00    +0.000 OA
ATOM      9  C   UNL     1       1.305   2.387  18.439  0.00  0.00    +0.000 C 
BRANCH   9  10
ATOM     10  O   UNL     1       2.372   1.736  17.925  0.00  0.00    +0.000 OA
ATOM     11  H   UNL     1       2.152   0.818  17.650  0.00  0.00    +0.000 HD
ENDBRANCH   9  10
ENDBRANCH   2   9
BRANCH   7  12
ATOM     12  O   UNL     1       0.705   3.045  21.227  0.00  0.00    +0.000 OA
ATOM     13  H   UNL     1      -0.259   3.057  21.068  0.00  0.00    +0.000 HD
ENDBRANCH   7  12
ENDBRANCH   1   4
BRANCH   1  14
ATOM     14  C   UNL     1       4.474   6.468  17.275  0.00  0.00    +0.000 A 
ATOM     15  C   UNL     1       4.558   6.546  15.880  0.00  0.00    +0.000 A 
ATOM     16  C   UNL     1       5.680   6.060  15.203  0.00  0.00    +0.000 A 
ATOM     17  C   UNL     1       6.732   5.490  15.923  0.00  0.00    +0.000 A 
ATOM     18  C   UNL     1       6.683   5.411  17.320  0.00  0.00    +0.000 A 
ATOM     19  C   UNL     1       5.543   5.897  17.986  0.00  0.00    +0.000 A 
BRANCH  17  20
ATOM     20  O   UNL     1       7.822   5.010  15.241  0.00  0.00    +0.000 OA
ATOM     21  H   UNL     1       7.742   5.267  14.303  0.00  0.00    +0.000 HD
ENDBRANCH  17  20
BRANCH  18  22
ATOM     22  C   UNL     1       7.779   4.846  18.166  0.00  0.00    +0.000 C 
ATOM     23  O   UNL     1       8.559   4.005  17.752  0.00  0.00    +0.000 OA
BRANCH  22  24
ATOM     24  O   UNL     1       7.839   5.328  19.425  0.00  0.00    +0.000 OA
ATOM     25  H   UNL     1       6.949   5.435  19.826  0.00  0.00    +0.000 HD
ENDBRANCH  22  24
ENDBRANCH  18  22
ENDBRANCH   1  14
TORSDOF 8
ENDMDL
MODEL 2
REMARK VINA RESULT:      -7.4      0.271      6.465
REMARK  Name = 
REMARK  8 active torsions:
REMARK  status: ('A' for Active; 'I' for Inactive)
REMARK    1  A    between atoms: C_2  and  O_3
REMARK    2  A    between atoms: C_2  and  C_4
REMARK    3  A    between atoms: C_6  and  C_7
REMARK    4  A    between atoms: C_7  and  C_8
REMARK    5  A    between atoms: C_11  and  O_12
REMARK    6  A    between atoms: C_13  and  C_14
REMARK    7  A    between atoms: C_14  and  O_16
REMARK    8  A    between atoms: C_20  and  O_21
REMARK                            x       y       z     vdW  Elec       q    Type
REMARK                         _______ _______ _______ _____ _____    ______ ____
ROOT
ATOM      1  C   UNL     1       3.100   7.068  18.032  0.00  0.00    +0.000 C 
ENDROOT
BRANCH   1   4
ATOM      2  C   UNL     1       6.611   5.693  17.326  0.00  0.00    +0.000 A 
ATOM      3  C   UNL     1       5.454   6.122  18.001  0.00  0.00    +0.000 A 
ATOM      4  C   UNL     1       4.350   6.632  17.299  0.00  0.00    +0.000 A 
ATOM      5  C   UNL     1       4.427   6.734  15.903  0.00  0.00    +0.000 A 
ATOM      6  C   UNL     1       5.563   6.296  15.219  0.00  0.00    +0.000 A 
ATOM      7  C   UNL     1       6.644   5.771  15.928  0.00  0.00    +0.000 A 
BRANCH   2   9
ATOM      8  O   UNL     1       8.258   4.095  17.976  0.00  0.00    +0.000 OA
ATOM      9  C   UNL     1       7.744   5.186  18.160  0.00  0.00    +0.000 C 
BRANCH   9  10
ATOM     10  O   UNL     1       8.162   6.022  19.135  0.00  0.00    +0.000 OA
ATOM     11  H   UNL     1       7.642   5.920  19.962  0.00  0.00    +0.000 HD
ENDBRANCH   9  10
ENDBRANCH   2   9
BRANCH   7  12
ATOM     12  O   UNL     1       7.744   5.327  15.236  0.00  0.00    +0.000 OA
ATOM     13  H   UNL     1       8.484   5.219  15.864  0.00  0.00    +0.000 HD
ENDBRANCH   7  12
ENDBRANCH   1   4
BRANCH   1  14
ATOM     14  C   UNL     1       2.473   5.986  18.881  0.00  0.00    +0.000 A 
ATOM     15  C   UNL     1       2.185   6.217  20.232  0.00  0.00    +0.000 A 
ATOM     16  C   UNL     1       1.617   5.216  21.023  0.00  0.00    +0.000 A 
ATOM     17  C   UNL     1       1.329   3.969  20.464  0.00  0.00    +0.000 A 
ATOM     18  C   UNL     1       1.592   3.712  19.112  0.00  0.00    +0.000 A 
ATOM     19  C   UNL     1       2.173   4.728  18.331  0.00  0.00    +0.000 A 
BRANCH  17  20
ATOM     20  O   UNL     1       0.777   2.994  21.258  0.00  0.00    +0.000 OA
ATOM     21  H   UNL     1      -0.184   3.148  21.318  0.00  0.00    +0.000 HD
ENDBRANCH  17  20
BRANCH  18  22
ATOM     22  C   UNL     1       1.284   2.418  18.430  0.00  0.00    +0.000 C 
ATOM     23  O   UNL     1       0.173   1.916  18.448  0.00  0.00    +0.000 OA
BRANCH  22  24
ATOM     24  O   UNL     1       2.327   1.839  17.799  0.00  0.00    +0.000 OA
ATOM     25  H   UNL     1       3.190   2.213  18.083  0.00  0.00    +0.000 HD
ENDBRANCH  22  24
ENDBRANCH  18  22
ENDBRANCH   1  14
TORSDOF 8
ENDMDL
MODEL 3
REMARK VINA RESULT:      -7.4      3.313      5.646
REMARK  Name = 
REMARK  8 active torsions:
REMARK  status: ('A' for Active; 'I' for Inactive)
REMARK    1  A    between atoms: C_2  and  O_3
REMARK    2  A    between atoms: C_2  and  C_4
REMARK    3  A    between atoms: C_6  and  C_7
REMARK    4  A    between atoms: C_7  and  C_8
REMARK    5  A    between atoms: C_11  and  O_12
REMARK    6  A    between atoms: C_13  and  C_14
REMARK    7  A    between atoms: C_14  and  O_16
REMARK    8  A    between atoms: C_20  and  O_21
REMARK                            x       y       z     vdW  Elec       q    Type
REMARK                         _______ _______ _______ _____ _____    ______ ____
ROOT
ATOM      1  C   UNL     1       3.534   6.677  18.246  0.00  0.00    +0.000 C 
ENDROOT
BRANCH   1   4
ATOM      2  C   UNL     1       3.370   2.910  18.952  0.00  0.00    +0.000 A 
ATOM      3  C   UNL     1       3.845   4.229  18.833  0.00  0.00    +0.000 A 
ATOM      4  C   UNL     1       3.022   5.257  18.346  0.00  0.00    +0.000 A 
ATOM      5  C   UNL     1       1.713   4.944  17.953  0.00  0.00    +0.000 A 
ATOM      6  C   UNL     1       1.223   3.642  18.082  0.00  0.00    +0.000 A 
ATOM      7  C   UNL     1       2.046   2.635  18.587  0.00  0.00    +0.000 A 
BRANCH   2   9
ATOM      8  O   UNL     1       4.988   2.037  20.470  0.00  0.00    +0.000 OA
ATOM      9  C   UNL     1       4.327   1.878  19.457  0.00  0.00    +0.000 C 
BRANCH   9  10
ATOM     10  O   UNL     1       4.411   0.755  18.713  0.00  0.00    +0.000 OA
ATOM     11  H   UNL     1       5.140   0.796  18.055  0.00  0.00    +0.000 HD
ENDBRANCH   9  10
ENDBRANCH   2   9
BRANCH   7  12
ATOM     12  O   UNL     1       1.540   1.366  18.724  0.00  0.00    +0.000 OA
ATOM     13  H   UNL     1       0.611   1.366  18.424  0.00  0.00    +0.000 HD
ENDBRANCH   7  12
ENDBRANCH   1   4
BRANCH   1  14
ATOM     14  C   UNL     1       2.518   7.729  18.628  0.00  0.00    +0.000 A 
ATOM     15  C   UNL     1       1.988   8.593  17.662  0.00  0.00    +0.000 A 
ATOM     16  C   UNL     1       1.058   9.574  18.013  0.00  0.00    +0.000 A 
ATOM     17  C   UNL     1       0.647   9.697  19.342  0.00  0.00    +0.000 A 
ATOM     18  C   UNL     1       1.148   8.839  20.329  0.00  0.00    +0.000 A 
ATOM     19  C   UNL     1       2.091   7.861  19.960  0.00  0.00    +0.000 A 
BRANCH  17  20
ATOM     20  O   UNL     1      -0.262  10.672  19.671  0.00  0.00    +0.000 OA
ATOM     21  H   UNL     1      -0.860  10.321  20.358  0.00  0.00    +0.000 HD
ENDBRANCH  17  20
BRANCH  18  22
ATOM     22  C   UNL     1       0.737   8.882  21.765  0.00  0.00    +0.000 C 
ATOM     23  O   UNL     1       1.504   9.204  22.657  0.00  0.00    +0.000 OA
BRANCH  22  24
ATOM     24  O   UNL     1      -0.544   8.531  22.007  0.00  0.00    +0.000 OA
ATOM     25  H   UNL     1      -1.035   8.321  21.183  0.00  0.00    +0.000 HD
ENDBRANCH  22  24
ENDBRANCH  18  22
ENDBRANCH   1  14
TORSDOF 8
ENDMDL
MODEL 4
REMARK VINA RESULT:      -7.3      3.042      6.645
REMARK  Name = 
REMARK  8 active torsions:
REMARK  status: ('A' for Active; 'I' for Inactive)
REMARK    1  A    between atoms: C_2  and  O_3
REMARK    2  A    between atoms: C_2  and  C_4
REMARK    3  A    between atoms: C_6  and  C_7
REMARK    4  A    between atoms: C_7  and  C_8
REMARK    5  A    between atoms: C_11  and  O_12
REMARK    6  A    between atoms: C_13  and  C_14
REMARK    7  A    between atoms: C_14  and  O_16
REMARK    8  A    between atoms: C_20  and  O_21
REMARK                            x       y       z     vdW  Elec       q    Type
REMARK                         _______ _______ _______ _____ _____    ______ ____
ROOT
ATOM      1  C   UNL     1       2.715   5.256  18.682  0.00  0.00    +0.000 C 
ENDROOT
BRANCH   1   4
ATOM      2  C   UNL     1       6.538   5.376  18.376  0.00  0.00    +0.000 A 
ATOM      3  C   UNL     1       5.227   5.567  18.852  0.00  0.00    +0.000 A 
ATOM      4  C   UNL     1       4.119   5.067  18.149  0.00  0.00    +0.000 A 
ATOM      5  C   UNL     1       4.336   4.388  16.943  0.00  0.00    +0.000 A 
ATOM      6  C   UNL     1       5.633   4.177  16.467  0.00  0.00    +0.000 A 
ATOM      7  C   UNL     1       6.726   4.661  17.187  0.00  0.00    +0.000 A 
BRANCH   2   9
ATOM      8  O   UNL     1       8.331   6.896  18.776  0.00  0.00    +0.000 OA
ATOM      9  C   UNL     1       7.652   5.966  19.180  0.00  0.00    +0.000 C 
BRANCH   9  10
ATOM     10  O   UNL     1       7.857   5.399  20.388  0.00  0.00    +0.000 OA
ATOM     11  H   UNL     1       7.040   4.990  20.751  0.00  0.00    +0.000 HD
ENDBRANCH   9  10
ENDBRANCH   2   9
BRANCH   7  12
ATOM     12  O   UNL     1       7.993   4.426  16.714  0.00  0.00    +0.000 OA
ATOM     13  H   UNL     1       8.527   4.035  17.433  0.00  0.00    +0.000 HD
ENDBRANCH   7  12
ENDBRANCH   1   4
BRANCH   1  14
ATOM     14  C   UNL     1       2.309   6.701  18.855  0.00  0.00    +0.000 A 
ATOM     15  C   UNL     1       2.414   7.603  17.789  0.00  0.00    +0.000 A 
ATOM     16  C   UNL     1       2.051   8.943  17.949  0.00  0.00    +0.000 A 
ATOM     17  C   UNL     1       1.575   9.391  19.182  0.00  0.00    +0.000 A 
ATOM     18  C   UNL     1       1.446   8.510  20.263  0.00  0.00    +0.000 A 
ATOM     19  C   UNL     1       1.825   7.166  20.089  0.00  0.00    +0.000 A 
BRANCH  17  20
ATOM     20  O   UNL     1       1.230  10.712  19.323  0.00  0.00    +0.000 OA
ATOM     21  H   UNL     1       1.439  11.180  18.493  0.00  0.00    +0.000 HD
ENDBRANCH  17  20
BRANCH  18  22
ATOM     22  C   UNL     1       0.917   8.901  21.605  0.00  0.00    +0.000 C 
ATOM     23  O   UNL     1       1.548   9.598  22.381  0.00  0.00    +0.000 OA
BRANCH  22  24
ATOM     24  O   UNL     1      -0.309   8.420  21.902  0.00  0.00    +0.000 OA
ATOM     25  H   UNL     1      -1.000   9.118  21.872  0.00  0.00    +0.000 HD
ENDBRANCH  22  24
ENDBRANCH  18  22
ENDBRANCH   1  14
TORSDOF 8
ENDMDL
MODEL 5
REMARK VINA RESULT:      -7.3      3.165      4.445
REMARK  Name = 
REMARK  8 active torsions:
REMARK  status: ('A' for Active; 'I' for Inactive)
REMARK    1  A    between atoms: C_2  and  O_3
REMARK    2  A    between atoms: C_2  and  C_4
REMARK    3  A    between atoms: C_6  and  C_7
REMARK    4  A    between atoms: C_7  and  C_8
REMARK    5  A    between atoms: C_11  and  O_12
REMARK    6  A    between atoms: C_13  and  C_14
REMARK    7  A    between atoms: C_14  and  O_16
REMARK    8  A    between atoms: C_20  and  O_21
REMARK                            x       y       z     vdW  Elec       q    Type
REMARK                         _______ _______ _______ _____ _____    ______ ____
ROOT
ATOM      1  C   UNL     1       2.792   5.296  19.299  0.00  0.00    +0.000 C 
ENDROOT
BRANCH   1   4
ATOM      2  C   UNL     1       1.254   8.665  20.302  0.00  0.00    +0.000 A 
ATOM      3  C   UNL     1       1.704   7.333  20.350  0.00  0.00    +0.000 A 
ATOM      4  C   UNL     1       2.288   6.721  19.229  0.00  0.00    +0.000 A 
ATOM      5  C   UNL     1       2.394   7.455  18.040  0.00  0.00    +0.000 A 
ATOM      6  C   UNL     1       1.967   8.784  17.982  0.00  0.00    +0.000 A 
ATOM      7  C   UNL     1       1.409   9.385  19.110  0.00  0.00    +0.000 A 
BRANCH   2   9
ATOM      8  O   UNL     1       1.071  10.199  22.118  0.00  0.00    +0.000 OA
ATOM      9  C   UNL     1       0.625   9.223  21.538  0.00  0.00    +0.000 C 
BRANCH   9  10
ATOM     10  O   UNL     1      -0.476   8.571  21.970  0.00  0.00    +0.000 OA
ATOM     11  H   UNL     1      -1.258   9.163  22.038  0.00  0.00    +0.000 HD
ENDBRANCH   9  10
ENDBRANCH   2   9
BRANCH   7  12
ATOM     12  O   UNL     1       1.012  10.698  19.040  0.00  0.00    +0.000 OA
ATOM     13  H   UNL     1       1.793  11.249  18.836  0.00  0.00    +0.000 HD
ENDBRANCH   7  12
ENDBRANCH   1   4
BRANCH   1  14
ATOM     14  C   UNL     1       4.128   5.080  18.627  0.00  0.00    +0.000 A 
ATOM     15  C   UNL     1       4.210   4.398  17.407  0.00  0.00    +0.000 A 
ATOM     16  C   UNL     1       5.445   4.185  16.789  0.00  0.00    +0.000 A 
ATOM     17  C   UNL     1       6.613   4.659  17.390  0.00  0.00    +0.000 A 
ATOM     18  C   UNL     1       6.562   5.357  18.603  0.00  0.00    +0.000 A 
ATOM     19  C   UNL     1       5.312   5.555  19.217  0.00  0.00    +0.000 A 
BRANCH  17  20
ATOM     20  O   UNL     1       7.818   4.435  16.772  0.00  0.00    +0.000 OA
ATOM     21  H   UNL     1       8.526   4.480  17.443  0.00  0.00    +0.000 HD
ENDBRANCH  17  20
BRANCH  18  22
ATOM     22  C   UNL     1       7.760   5.925  19.295  0.00  0.00    +0.000 C 
ATOM     23  O   UNL     1       8.423   6.830  18.818  0.00  0.00    +0.000 OA
BRANCH  22  24
ATOM     24  O   UNL     1       8.061   5.357  20.481  0.00  0.00    +0.000 OA
ATOM     25  H   UNL     1       7.825   4.404  20.509  0.00  0.00    +0.000 HD
ENDBRANCH  22  24
ENDBRANCH  18  22
ENDBRANCH   1  14
TORSDOF 8
ENDMDL
MODEL 6
REMARK VINA RESULT:      -7.2      3.381      5.589
REMARK  Name = 
REMARK  8 active torsions:
REMARK  status: ('A' for Active; 'I' for Inactive)
REMARK    1  A    between atoms: C_2  and  O_3
REMARK    2  A    between atoms: C_2  and  C_4
REMARK    3  A    between atoms: C_6  and  C_7
REMARK    4  A    between atoms: C_7  and  C_8
REMARK    5  A    between atoms: C_11  and  O_12
REMARK    6  A    between atoms: C_13  and  C_14
REMARK    7  A    between atoms: C_14  and  O_16
REMARK    8  A    between atoms: C_20  and  O_21
REMARK                            x       y       z     vdW  Elec       q    Type
REMARK                         _______ _______ _______ _____ _____    ______ ____
ROOT
ATOM      1  C   UNL     1       3.338   6.846  18.257  0.00  0.00    +0.000 C 
ENDROOT
BRANCH   1   4
ATOM      2  C   UNL     1       0.943   8.910  20.431  0.00  0.00    +0.000 A 
ATOM      3  C   UNL     1       1.886   7.949  20.021  0.00  0.00    +0.000 A 
ATOM      4  C   UNL     1       2.305   7.866  18.683  0.00  0.00    +0.000 A 
ATOM      5  C   UNL     1       1.746   8.746  17.746  0.00  0.00    +0.000 A 
ATOM      6  C   UNL     1       0.822   9.716  18.142  0.00  0.00    +0.000 A 
ATOM      7  C   UNL     1       0.431   9.801  19.478  0.00  0.00    +0.000 A 
BRANCH   2   9
ATOM      8  O   UNL     1       1.267   9.327  22.756  0.00  0.00    +0.000 OA
ATOM      9  C   UNL     1       0.541   8.906  21.870  0.00  0.00    +0.000 C 
BRANCH   9  10
ATOM     10  O   UNL     1      -0.687   8.405  22.126  0.00  0.00    +0.000 OA
ATOM     11  H   UNL     1      -1.277   8.444  21.341  0.00  0.00    +0.000 HD
ENDBRANCH   9  10
ENDBRANCH   2   9
BRANCH   7  12
ATOM     12  O   UNL     1      -0.463  10.773  19.852  0.00  0.00    +0.000 OA
ATOM     13  H   UNL     1      -1.341  10.361  19.970  0.00  0.00    +0.000 HD
ENDBRANCH   7  12
ENDBRANCH   1   4
BRANCH   1  14
ATOM     14  C   UNL     1       2.900   5.411  18.437  0.00  0.00    +0.000 A 
ATOM     15  C   UNL     1       1.797   4.909  17.736  0.00  0.00    +0.000 A 
ATOM     16  C   UNL     1       1.383   3.586  17.909  0.00  0.00    +0.000 A 
ATOM     17  C   UNL     1       2.074   2.751  18.788  0.00  0.00    +0.000 A 
ATOM     18  C   UNL     1       3.190   3.220  19.493  0.00  0.00    +0.000 A 
ATOM     19  C   UNL     1       3.590   4.557  19.315  0.00  0.00    +0.000 A 
BRANCH  17  20
ATOM     20  O   UNL     1       1.649   1.456  18.952  0.00  0.00    +0.000 OA
ATOM     21  H   UNL     1       2.388   0.927  19.305  0.00  0.00    +0.000 HD
ENDBRANCH  17  20
BRANCH  18  22
ATOM     22  C   UNL     1       4.004   2.383  20.427  0.00  0.00    +0.000 C 
ATOM     23  O   UNL     1       3.665   2.168  21.579  0.00  0.00    +0.000 OA
BRANCH  22  24
ATOM     24  O   UNL     1       5.148   1.890  19.908  0.00  0.00    +0.000 OA
ATOM     25  H   UNL     1       5.641   1.337  20.553  0.00  0.00    +0.000 HD
ENDBRANCH  22  24
ENDBRANCH  18  22
ENDBRANCH   1  14
TORSDOF 8
ENDMDL
MODEL 7
REMARK VINA RESULT:      -7.2      2.188      2.508
REMARK  Name = 
REMARK  8 active torsions:
REMARK  status: ('A' for Active; 'I' for Inactive)
REMARK    1  A    between atoms: C_2  and  O_3
REMARK    2  A    between atoms: C_2  and  C_4
REMARK    3  A    between atoms: C_6  and  C_7
REMARK    4  A    between atoms: C_7  and  C_8
REMARK    5  A    between atoms: C_11  and  O_12
REMARK    6  A    between atoms: C_13  and  C_14
REMARK    7  A    between atoms: C_14  and  O_16
REMARK    8  A    between atoms: C_20  and  O_21
REMARK                            x       y       z     vdW  Elec       q    Type
REMARK                         _______ _______ _______ _____ _____    ______ ____
ROOT
ATOM      1  C   UNL     1       2.811   5.181  17.667  0.00  0.00    +0.000 C 
ENDROOT
BRANCH   1   4
ATOM      2  C   UNL     1       3.700   2.515  20.278  0.00  0.00    +0.000 A 
ATOM      3  C   UNL     1       3.729   3.317  19.123  0.00  0.00    +0.000 A 
ATOM      4  C   UNL     1       2.758   4.307  18.900  0.00  0.00    +0.000 A 
ATOM      5  C   UNL     1       1.734   4.470  19.843  0.00  0.00    +0.000 A 
ATOM      6  C   UNL     1       1.703   3.692  21.003  0.00  0.00    +0.000 A 
ATOM      7  C   UNL     1       2.687   2.727  21.221  0.00  0.00    +0.000 A 
BRANCH   2   9
ATOM      8  O   UNL     1       5.500   1.411  21.385  0.00  0.00    +0.000 OA
ATOM      9  C   UNL     1       4.762   1.471  20.416  0.00  0.00    +0.000 C 
BRANCH   9  10
ATOM     10  O   UNL     1       4.849   0.597  19.391  0.00  0.00    +0.000 OA
ATOM     11  H   UNL     1       4.026   0.567  18.854  0.00  0.00    +0.000 HD
ENDBRANCH   9  10
ENDBRANCH   2   9
BRANCH   7  12
ATOM     12  O   UNL     1       2.651   1.986  22.376  0.00  0.00    +0.000 OA
ATOM     13  H   UNL     1       3.471   2.153  22.879  0.00  0.00    +0.000 HD
ENDBRANCH   7  12
ENDBRANCH   1   4
BRANCH   1  14
ATOM     14  C   UNL     1       4.172   5.242  17.011  0.00  0.00    +0.000 A 
ATOM     15  C   UNL     1       4.438   4.504  15.852  0.00  0.00    +0.000 A 
ATOM     16  C   UNL     1       5.698   4.549  15.250  0.00  0.00    +0.000 A 
ATOM     17  C   UNL     1       6.705   5.339  15.806  0.00  0.00    +0.000 A 
ATOM     18  C   UNL     1       6.465   6.099  16.957  0.00  0.00    +0.000 A 
ATOM     19  C   UNL     1       5.194   6.037  17.557  0.00  0.00    +0.000 A 
BRANCH  17  20
ATOM     20  O   UNL     1       7.940   5.365  15.205  0.00  0.00    +0.000 OA
ATOM     21  H   UNL     1       7.837   5.702  14.296  0.00  0.00    +0.000 HD
ENDBRANCH  17  20
BRANCH  18  22
ATOM     22  C   UNL     1       7.478   6.995  17.596  0.00  0.00    +0.000 C 
ATOM     23  O   UNL     1       7.822   8.054  17.099  0.00  0.00    +0.000 OA
BRANCH  22  24
ATOM     24  O   UNL     1       7.992   6.543  18.759  0.00  0.00    +0.000 OA
ATOM     25  H   UNL     1       7.547   6.937  19.541  0.00  0.00    +0.000 HD
ENDBRANCH  22  24
ENDBRANCH  18  22
ENDBRANCH   1  14
TORSDOF 8
ENDMDL
MODEL 8
REMARK VINA RESULT:      -7.2      3.139      3.999
REMARK  Name = 
REMARK  8 active torsions:
REMARK  status: ('A' for Active; 'I' for Inactive)
REMARK    1  A    between atoms: C_2  and  O_3
REMARK    2  A    between atoms: C_2  and  C_4
REMARK    3  A    between atoms: C_6  and  C_7
REMARK    4  A    between atoms: C_7  and  C_8
REMARK    5  A    between atoms: C_11  and  O_12
REMARK    6  A    between atoms: C_13  and  C_14
REMARK    7  A    between atoms: C_14  and  O_16
REMARK    8  A    between atoms: C_20  and  O_21
REMARK                            x       y       z     vdW  Elec       q    Type
REMARK                         _______ _______ _______ _____ _____    ______ ____
ROOT
ATOM      1  C   UNL     1       2.651   4.700  18.535  0.00  0.00    +0.000 C 
ENDROOT
BRANCH   1   4
ATOM      2  C   UNL     1       1.735   8.411  18.862  0.00  0.00    +0.000 A 
ATOM      3  C   UNL     1       2.138   7.176  18.323  0.00  0.00    +0.000 A 
ATOM      4  C   UNL     1       2.241   6.030  19.129  0.00  0.00    +0.000 A 
ATOM      5  C   UNL     1       1.958   6.140  20.497  0.00  0.00    +0.000 A 
ATOM      6  C   UNL     1       1.540   7.357  21.042  0.00  0.00    +0.000 A 
ATOM      7  C   UNL     1       1.422   8.482  20.225  0.00  0.00    +0.000 A 
BRANCH   2   9
ATOM      8  O   UNL     1       2.670  10.029  17.380  0.00  0.00    +0.000 OA
ATOM      9  C   UNL     1       1.678   9.580  17.931  0.00  0.00    +0.000 C 
BRANCH   9  10
ATOM     10  O   UNL     1       0.450  10.108  17.741  0.00  0.00    +0.000 OA
ATOM     11  H   UNL     1       0.072  10.482  18.568  0.00  0.00    +0.000 HD
ENDBRANCH   9  10
ENDBRANCH   2   9
BRANCH   7  12
ATOM     12  O   UNL     1       0.991   9.664  20.775  0.00  0.00    +0.000 OA
ATOM     13  H   UNL     1       1.743  10.286  20.806  0.00  0.00    +0.000 HD
ENDBRANCH   7  12
ENDBRANCH   1   4
BRANCH   1  14
ATOM     14  C   UNL     1       4.061   4.673  17.993  0.00  0.00    +0.000 A 
ATOM     15  C   UNL     1       4.342   4.063  16.764  0.00  0.00    +0.000 A 
ATOM     16  C   UNL     1       5.647   4.027  16.266  0.00  0.00    +0.000 A 
ATOM     17  C   UNL     1       6.685   4.605  16.998  0.00  0.00    +0.000 A 
ATOM     18  C   UNL     1       6.434   5.235  18.223  0.00  0.00    +0.000 A 
ATOM     19  C   UNL     1       5.117   5.256  18.716  0.00  0.00    +0.000 A 
BRANCH  17  20
ATOM     20  O   UNL     1       7.963   4.553  16.497  0.00  0.00    +0.000 OA
ATOM     21  H   UNL     1       8.302   3.644  16.601  0.00  0.00    +0.000 HD
ENDBRANCH  17  20
BRANCH  18  22
ATOM     22  C   UNL     1       7.483   5.906  19.051  0.00  0.00    +0.000 C 
ATOM     23  O   UNL     1       8.142   6.845  18.639  0.00  0.00    +0.000 OA
BRANCH  22  24
ATOM     24  O   UNL     1       7.656   5.391  20.287  0.00  0.00    +0.000 OA
ATOM     25  H   UNL     1       8.423   5.790  20.753  0.00  0.00    +0.000 HD
ENDBRANCH  22  24
ENDBRANCH  18  22
ENDBRANCH   1  14
TORSDOF 8
ENDMDL
MODEL 9
REMARK VINA RESULT:      -7.2      2.130      6.350
REMARK  Name = 
REMARK  8 active torsions:
REMARK  status: ('A' for Active; 'I' for Inactive)
REMARK    1  A    between atoms: C_2  and  O_3
REMARK    2  A    between atoms: C_2  and  C_4
REMARK    3  A    between atoms: C_6  and  C_7
REMARK    4  A    between atoms: C_7  and  C_8
REMARK    5  A    between atoms: C_11  and  O_12
REMARK    6  A    between atoms: C_13  and  C_14
REMARK    7  A    between atoms: C_14  and  O_16
REMARK    8  A    between atoms: C_20  and  O_21
REMARK                            x       y       z     vdW  Elec       q    Type
REMARK                         _______ _______ _______ _____ _____    ______ ____
ROOT
ATOM      1  C   UNL     1       2.748   5.645  17.990  0.00  0.00    +0.000 C 
ENDROOT
BRANCH   1   4
ATOM      2  C   UNL     1       6.414   6.368  17.120  0.00  0.00    +0.000 A 
ATOM      3  C   UNL     1       5.162   6.391  17.762  0.00  0.00    +0.000 A 
ATOM      4  C   UNL     1       4.083   5.633  17.278  0.00  0.00    +0.000 A 
ATOM      5  C   UNL     1       4.265   4.864  16.121  0.00  0.00    +0.000 A 
ATOM      6  C   UNL     1       5.507   4.819  15.483  0.00  0.00    +0.000 A 
ATOM      7  C   UNL     1       6.576   5.560  15.987  0.00  0.00    +0.000 A 
BRANCH   2   9
ATOM      8  O   UNL     1       8.182   6.871  18.638  0.00  0.00    +0.000 OA
ATOM      9  C   UNL     1       7.496   7.226  17.694  0.00  0.00    +0.000 C 
BRANCH   9  10
ATOM     10  O   UNL     1       7.663   8.423  17.094  0.00  0.00    +0.000 OA
ATOM     11  H   UNL     1       6.869   8.700  16.584  0.00  0.00    +0.000 HD
ENDBRANCH   9  10
ENDBRANCH   2   9
BRANCH   7  12
ATOM     12  O   UNL     1       7.794   5.487  15.358  0.00  0.00    +0.000 OA
ATOM     13  H   UNL     1       8.402   6.123  15.782  0.00  0.00    +0.000 HD
ENDBRANCH   7  12
ENDBRANCH   1   4
BRANCH   1  14
ATOM     14  C   UNL     1       2.652   4.670  19.140  0.00  0.00    +0.000 A 
ATOM     15  C   UNL     1       1.603   4.757  20.063  0.00  0.00    +0.000 A 
ATOM     16  C   UNL     1       1.517   3.864  21.134  0.00  0.00    +0.000 A 
ATOM     17  C   UNL     1       2.486   2.871  21.290  0.00  0.00    +0.000 A 
ATOM     18  C   UNL     1       3.540   2.750  20.375  0.00  0.00    +0.000 A 
ATOM     19  C   UNL     1       3.617   3.662  19.307  0.00  0.00    +0.000 A 
BRANCH  17  20
ATOM     20  O   UNL     1       2.391   2.008  22.353  0.00  0.00    +0.000 OA
ATOM     21  H   UNL     1       2.913   1.208  22.153  0.00  0.00    +0.000 HD
ENDBRANCH  17  20
BRANCH  18  22
ATOM     22  C   UNL     1       4.599   1.697  20.451  0.00  0.00    +0.000 C 
ATOM     23  O   UNL     1       5.284   1.528  21.445  0.00  0.00    +0.000 OA
BRANCH  22  24
ATOM     24  O   UNL     1       4.748   0.951  19.336  0.00  0.00    +0.000 OA
ATOM     25  H   UNL     1       5.433   0.255  19.443  0.00  0.00    +0.000 HD
ENDBRANCH  22  24
ENDBRANCH  18  22
ENDBRANCH   1  14
TORSDOF 8
ENDMDL
