MODEL 1
REMARK VINA RESULT:      -9.4      0.000      0.000
REMARK  Name = 
REMARK  4 active torsions:
REMARK  status: ('A' for Active; 'I' for Inactive)
REMARK    1  A    between atoms: C_2  and  C_3
REMARK    2  A    between atoms: C_6  and  C_7
REMARK    3  A    between atoms: C_7  and  C_9
REMARK    4  A    between atoms: C_22  and  C_23
REMARK                            x       y       z     vdW  Elec       q    Type
REMARK                         _______ _______ _______ _____ _____    ______ ____
ROOT
ATOM      1  O   UNL     1       3.151   3.422  18.357  0.00  0.00    +0.000 OA
ATOM      2  C   UNL     1       3.394   4.560  17.918  0.00  0.00    +0.000 C 
ATOM      3  N   UNL     1       2.749   5.669  18.552  0.00  0.00    +0.000 N 
ATOM      4  C   UNL     1       2.084   5.104  19.797  0.00  0.00    +0.000 C 
ATOM      5  C   UNL     1       1.796   6.351  20.452  0.00  0.00    +0.000 C 
ATOM      6  O   UNL     1       1.152   7.119  21.353  0.00  0.00    +0.000 OA
ATOM      7  C   UNL     1       1.255   8.350  20.640  0.00  0.00    +0.000 A 
ATOM      8  C   UNL     1       0.615   9.339  21.379  0.00  0.00    +0.000 A 
ATOM      9  C   UNL     1       0.462  10.602  20.852  0.00  0.00    +0.000 A 
ATOM     10  C   UNL     1       0.981  10.965  19.592  0.00  0.00    +0.000 A 
ATOM     11  C   UNL     1       1.656   9.927  18.811  0.00  0.00    +0.000 A 
ATOM     12  C   UNL     1       1.829   8.563  19.290  0.00  0.00    +0.000 A 
ATOM     13  C   UNL     1       2.716   7.378  18.319  0.00  0.00    +0.000 C 
ENDROOT
BRANCH  10  14
ATOM     14  C   UNL     1       0.777  12.429  19.236  0.00  0.00    +0.000 A 
ATOM     15  C   UNL     1      -0.458  13.088  19.335  0.00  0.00    +0.000 A 
ATOM     16  C   UNL     1      -0.599  14.483  19.099  0.00  0.00    +0.000 A 
ATOM     17  C   UNL     1       0.526  15.253  18.760  0.00  0.00    +0.000 A 
ATOM     18  N   UNL     1       0.645  16.598  18.473  0.00  0.00    +0.000 NA
ATOM     19  C   UNL     1       1.921  16.788  18.234  0.00  0.00    +0.000 A 
ATOM     20  N   UNL     1       2.641  15.634  18.391  0.00  0.00    +0.000 N 
ATOM     21  C   UNL     1       1.759  14.623  18.695  0.00  0.00    +0.000 A 
ATOM     22  C   UNL     1       1.916  13.245  18.928  0.00  0.00    +0.000 A 
ATOM     23  H   UNL     1       3.643  15.552  18.282  0.00  0.00    +0.000 HD
ENDBRANCH  10  14
BRANCH   2  24
ATOM     24  C   UNL     1       4.391   4.530  16.817  0.00  0.00    +0.000 A 
ATOM     25  C   UNL     1       4.759   5.787  16.249  0.00  0.00    +0.000 A 
ATOM     26  C   UNL     1       5.687   5.900  15.206  0.00  0.00    +0.000 A 
ATOM     27  C   UNL     1       6.276   4.739  14.691  0.00  0.00    +0.000 A 
ATOM     28  C   UNL     1       5.957   3.512  15.268  0.00  0.00    +0.000 A 
ATOM     29  C   UNL     1       5.014   3.400  16.318  0.00  0.00    +0.000 A 
BRANCH  27  30
ATOM     30  C   UNL     1       7.237   4.913  13.566  0.00  0.00    +0.000 C 
ATOM     31  O   UNL     1       8.212   5.645  13.750  0.00  0.00    +0.000 OA
BRANCH  30  32
ATOM     32  C   UNL     1       6.968   4.221  12.229  0.00  0.00    +0.000 C 
ATOM     33  F   UNL     1       7.379   4.924  11.140  0.00  0.00    +0.000 F 
ATOM     34  F   UNL     1       7.602   3.017  12.144  0.00  0.00    +0.000 F 
ATOM     35  F   UNL     1       5.645   3.973  12.038  0.00  0.00    +0.000 F 
ENDBRANCH  30  32
ENDBRANCH  27  30
ENDBRANCH   2  24
TORSDOF 4
ENDMDL
MODEL 2
REMARK VINA RESULT:      -9.2      1.170      1.717
REMARK  Name = 
REMARK  4 active torsions:
REMARK  status: ('A' for Active; 'I' for Inactive)
REMARK    1  A    between atoms: C_2  and  C_3
REMARK    2  A    between atoms: C_6  and  C_7
REMARK    3  A    between atoms: C_7  and  C_9
REMARK    4  A    between atoms: C_22  and  C_23
REMARK                            x       y       z     vdW  Elec       q    Type
REMARK                         _______ _______ _______ _____ _____    ______ ____
ROOT
ATOM      1  O   UNL     1       2.486   4.723  19.289  0.00  0.00    +0.000 OA
ATOM      2  C   UNL     1       2.743   5.825  18.774  0.00  0.00    +0.000 C 
ATOM      3  N   UNL     1       2.114   6.983  19.332  0.00  0.00    +0.000 N 
ATOM      4  C   UNL     1       1.444   6.512  20.614  0.00  0.00    +0.000 C 
ATOM      5  C   UNL     1       1.174   7.804  21.183  0.00  0.00    +0.000 C 
ATOM      6  O   UNL     1       0.542   8.640  22.032  0.00  0.00    +0.000 OA
ATOM      7  C   UNL     1       0.660   9.818  21.237  0.00  0.00    +0.000 A 
ATOM      8  C   UNL     1       0.034  10.863  21.908  0.00  0.00    +0.000 A 
ATOM      9  C   UNL     1      -0.103  12.090  21.297  0.00  0.00    +0.000 A 
ATOM     10  C   UNL     1       0.418  12.360  20.015  0.00  0.00    +0.000 A 
ATOM     11  C   UNL     1       1.078  11.262  19.305  0.00  0.00    +0.000 A 
ATOM     12  C   UNL     1       1.234   9.932  19.875  0.00  0.00    +0.000 A 
ATOM     13  C   UNL     1       2.103   8.673  18.985  0.00  0.00    +0.000 C 
ENDROOT
BRANCH  10  14
ATOM     14  C   UNL     1       0.233  13.799  19.561  0.00  0.00    +0.000 A 
ATOM     15  C   UNL     1      -0.902  14.568  19.859  0.00  0.00    +0.000 A 
ATOM     16  C   UNL     1      -1.004  15.944  19.515  0.00  0.00    +0.000 A 
ATOM     17  C   UNL     1       0.062  16.582  18.859  0.00  0.00    +0.000 A 
ATOM     18  N   UNL     1       0.199  17.881  18.414  0.00  0.00    +0.000 NA
ATOM     19  C   UNL     1       1.397  17.940  17.883  0.00  0.00    +0.000 A 
ATOM     20  N   UNL     1       2.058  16.746  17.999  0.00  0.00    +0.000 N 
ATOM     21  C   UNL     1       1.205  15.845  18.593  0.00  0.00    +0.000 A 
ATOM     22  C   UNL     1       1.322  14.484  18.928  0.00  0.00    +0.000 A 
ATOM     23  H   UNL     1       3.003  16.569  17.681  0.00  0.00    +0.000 HD
ENDBRANCH  10  14
BRANCH   2  24
ATOM     24  C   UNL     1       3.738   5.707  17.676  0.00  0.00    +0.000 A 
ATOM     25  C   UNL     1       4.106   4.385  17.284  0.00  0.00    +0.000 A 
ATOM     26  C   UNL     1       5.033   4.133  16.264  0.00  0.00    +0.000 A 
ATOM     27  C   UNL     1       5.629   5.213  15.603  0.00  0.00    +0.000 A 
ATOM     28  C   UNL     1       5.242   6.507  15.949  0.00  0.00    +0.000 A 
ATOM     29  C   UNL     1       4.311   6.759  16.985  0.00  0.00    +0.000 A 
BRANCH  27  30
ATOM     30  C   UNL     1       6.625   4.891  14.544  0.00  0.00    +0.000 C 
ATOM     31  O   UNL     1       7.755   5.372  14.653  0.00  0.00    +0.000 OA
BRANCH  30  32
ATOM     32  C   UNL     1       6.211   4.021  13.356  0.00  0.00    +0.000 C 
ATOM     33  F   UNL     1       6.890   4.280  12.207  0.00  0.00    +0.000 F 
ATOM     34  F   UNL     1       6.410   2.696  13.604  0.00  0.00    +0.000 F 
ATOM     35  F   UNL     1       4.893   4.163  13.054  0.00  0.00    +0.000 F 
ENDBRANCH  30  32
ENDBRANCH  27  30
ENDBRANCH   2  24
TORSDOF 4
ENDMDL
MODEL 3
REMARK VINA RESULT:      -9.2      1.229      1.998
REMARK  Name = 
REMARK  4 active torsions:
REMARK  status: ('A' for Active; 'I' for Inactive)
REMARK    1  A    between atoms: C_2  and  C_3
REMARK    2  A    between atoms: C_6  and  C_7
REMARK    3  A    between atoms: C_7  and  C_9
REMARK    4  A    between atoms: C_22  and  C_23
REMARK                            x       y       z     vdW  Elec       q    Type
REMARK                         _______ _______ _______ _____ _____    ______ ____
ROOT
ATOM      1  O   UNL     1       2.687   4.249  18.950  0.00  0.00    +0.000 OA
ATOM      2  C   UNL     1       2.913   5.383  18.492  0.00  0.00    +0.000 C 
ATOM      3  N   UNL     1       2.275   6.496  19.126  0.00  0.00    +0.000 N 
ATOM      4  C   UNL     1       1.642   5.943  20.393  0.00  0.00    +0.000 C 
ATOM      5  C   UNL     1       1.361   7.196  21.038  0.00  0.00    +0.000 C 
ATOM      6  O   UNL     1       0.732   7.971  21.945  0.00  0.00    +0.000 OA
ATOM      7  C   UNL     1       0.811   9.193  21.214  0.00  0.00    +0.000 A 
ATOM      8  C   UNL     1       0.181  10.187  21.955  0.00  0.00    +0.000 A 
ATOM      9  C   UNL     1       0.008  11.443  21.416  0.00  0.00    +0.000 A 
ATOM     10  C   UNL     1       0.495  11.793  20.140  0.00  0.00    +0.000 A 
ATOM     11  C   UNL     1       1.159  10.749  19.357  0.00  0.00    +0.000 A 
ATOM     12  C   UNL     1       1.352   9.392  19.849  0.00  0.00    +0.000 A 
ATOM     13  C   UNL     1       2.225   8.201  18.872  0.00  0.00    +0.000 C 
ENDROOT
BRANCH  10  14
ATOM     14  C   UNL     1       0.274  13.251  19.770  0.00  0.00    +0.000 A 
ATOM     15  C   UNL     1       1.097  13.961  18.882  0.00  0.00    +0.000 A 
ATOM     16  C   UNL     1       0.808  15.290  18.469  0.00  0.00    +0.000 A 
ATOM     17  C   UNL     1      -0.344  15.936  18.948  0.00  0.00    +0.000 A 
ATOM     18  N   UNL     1      -0.829  17.206  18.713  0.00  0.00    +0.000 NA
ATOM     19  C   UNL     1      -1.943  17.284  19.404  0.00  0.00    +0.000 A 
ATOM     20  N   UNL     1      -2.220  16.107  20.045  0.00  0.00    +0.000 N 
ATOM     21  C   UNL     1      -1.187  15.234  19.796  0.00  0.00    +0.000 A 
ATOM     22  C   UNL     1      -0.915  13.918  20.212  0.00  0.00    +0.000 A 
ATOM     23  H   UNL     1      -3.039  15.932  20.614  0.00  0.00    +0.000 HD
ENDBRANCH  10  14
BRANCH   2  24
ATOM     24  C   UNL     1       3.885   5.345  17.369  0.00  0.00    +0.000 A 
ATOM     25  C   UNL     1       4.254   4.054  16.883  0.00  0.00    +0.000 A 
ATOM     26  C   UNL     1       5.161   3.876  15.830  0.00  0.00    +0.000 A 
ATOM     27  C   UNL     1       5.736   5.002  15.230  0.00  0.00    +0.000 A 
ATOM     28  C   UNL     1       5.348   6.268  15.667  0.00  0.00    +0.000 A 
ATOM     29  C   UNL     1       4.437   6.444  16.737  0.00  0.00    +0.000 A 
BRANCH  27  30
ATOM     30  C   UNL     1       6.713   4.758  14.132  0.00  0.00    +0.000 C 
ATOM     31  O   UNL     1       7.828   5.273  14.230  0.00  0.00    +0.000 OA
BRANCH  30  32
ATOM     32  C   UNL     1       6.294   3.923  12.921  0.00  0.00    +0.000 C 
ATOM     33  F   UNL     1       4.989   4.063  12.567  0.00  0.00    +0.000 F 
ATOM     34  F   UNL     1       7.009   4.251  11.807  0.00  0.00    +0.000 F 
ATOM     35  F   UNL     1       6.488   2.593  13.124  0.00  0.00    +0.000 F 
ENDBRANCH  30  32
ENDBRANCH  27  30
ENDBRANCH   2  24
TORSDOF 4
ENDMDL
MODEL 4
REMARK VINA RESULT:      -9.0      0.694      1.436
REMARK  Name = 
REMARK  4 active torsions:
REMARK  status: ('A' for Active; 'I' for Inactive)
REMARK    1  A    between atoms: C_2  and  C_3
REMARK    2  A    between atoms: C_6  and  C_7
REMARK    3  A    between atoms: C_7  and  C_9
REMARK    4  A    between atoms: C_22  and  C_23
REMARK                            x       y       z     vdW  Elec       q    Type
REMARK                         _______ _______ _______ _____ _____    ______ ____
ROOT
ATOM      1  O   UNL     1       2.828   3.533  18.551  0.00  0.00    +0.000 OA
ATOM      2  C   UNL     1       3.130   4.662  18.126  0.00  0.00    +0.000 C 
ATOM      3  N   UNL     1       2.536   5.795  18.768  0.00  0.00    +0.000 N 
ATOM      4  C   UNL     1       1.835   5.250  20.003  0.00  0.00    +0.000 C 
ATOM      5  C   UNL     1       1.604   6.503  20.669  0.00  0.00    +0.000 C 
ATOM      6  O   UNL     1       0.993   7.292  21.575  0.00  0.00    +0.000 OA
ATOM      7  C   UNL     1       1.161   8.523  20.876  0.00  0.00    +0.000 A 
ATOM      8  C   UNL     1       0.565   9.535  21.621  0.00  0.00    +0.000 A 
ATOM      9  C   UNL     1       0.478  10.809  21.107  0.00  0.00    +0.000 A 
ATOM     10  C   UNL     1       1.023  11.160  19.854  0.00  0.00    +0.000 A 
ATOM     11  C   UNL     1       1.651  10.098  19.067  0.00  0.00    +0.000 A 
ATOM     12  C   UNL     1       1.754   8.722  19.531  0.00  0.00    +0.000 A 
ATOM     13  C   UNL     1       2.588   7.505  18.553  0.00  0.00    +0.000 C 
ENDROOT
BRANCH  10  14
ATOM     14  C   UNL     1       0.894  12.636  19.513  0.00  0.00    +0.000 A 
ATOM     15  C   UNL     1       1.822  13.335  18.726  0.00  0.00    +0.000 A 
ATOM     16  C   UNL     1       1.624  14.686  18.331  0.00  0.00    +0.000 A 
ATOM     17  C   UNL     1       0.459  15.366  18.725  0.00  0.00    +0.000 A 
ATOM     18  N   UNL     1       0.048  16.662  18.487  0.00  0.00    +0.000 NA
ATOM     19  C   UNL     1      -1.120  16.768  19.077  0.00  0.00    +0.000 A 
ATOM     20  N   UNL     1      -1.501  15.585  19.653  0.00  0.00    +0.000 N 
ATOM     21  C   UNL     1      -0.484  14.677  19.470  0.00  0.00    +0.000 A 
ATOM     22  C   UNL     1      -0.304  13.340  19.867  0.00  0.00    +0.000 A 
ATOM     23  H   UNL     1      -2.374  15.429  20.140  0.00  0.00    +0.000 HD
ENDBRANCH  10  14
BRANCH   2  24
ATOM     24  C   UNL     1       4.132   4.594  17.031  0.00  0.00    +0.000 A 
ATOM     25  C   UNL     1       4.565   5.837  16.479  0.00  0.00    +0.000 A 
ATOM     26  C   UNL     1       5.504   5.915  15.443  0.00  0.00    +0.000 A 
ATOM     27  C   UNL     1       6.039   4.733  14.919  0.00  0.00    +0.000 A 
ATOM     28  C   UNL     1       5.657   3.516  15.482  0.00  0.00    +0.000 A 
ATOM     29  C   UNL     1       4.702   3.440  16.524  0.00  0.00    +0.000 A 
BRANCH  27  30
ATOM     30  C   UNL     1       7.015   4.870  13.802  0.00  0.00    +0.000 C 
ATOM     31  O   UNL     1       7.997   5.594  13.983  0.00  0.00    +0.000 OA
BRANCH  30  32
ATOM     32  C   UNL     1       6.753   4.154  12.477  0.00  0.00    +0.000 C 
ATOM     33  F   UNL     1       7.183   2.865  12.441  0.00  0.00    +0.000 F 
ATOM     34  F   UNL     1       5.422   4.100  12.185  0.00  0.00    +0.000 F 
ATOM     35  F   UNL     1       7.351   4.779  11.429  0.00  0.00    +0.000 F 
ENDBRANCH  30  32
ENDBRANCH  27  30
ENDBRANCH   2  24
TORSDOF 4
ENDMDL
MODEL 5
REMARK VINA RESULT:      -8.9      1.221      1.862
REMARK  Name = 
REMARK  4 active torsions:
REMARK  status: ('A' for Active; 'I' for Inactive)
REMARK    1  A    between atoms: C_2  and  C_3
REMARK    2  A    between atoms: C_6  and  C_7
REMARK    3  A    between atoms: C_7  and  C_9
REMARK    4  A    between atoms: C_22  and  C_23
REMARK                            x       y       z     vdW  Elec       q    Type
REMARK                         _______ _______ _______ _____ _____    ______ ____
ROOT
ATOM      1  O   UNL     1       2.055   4.488  19.359  0.00  0.00    +0.000 OA
ATOM      2  C   UNL     1       2.478   5.537  18.842  0.00  0.00    +0.000 C 
ATOM      3  N   UNL     1       1.978   6.778  19.350  0.00  0.00    +0.000 N 
ATOM      4  C   UNL     1       1.191   6.425  20.602  0.00  0.00    +0.000 C 
ATOM      5  C   UNL     1       1.063   7.753  21.137  0.00  0.00    +0.000 C 
ATOM      6  O   UNL     1       0.504   8.681  21.939  0.00  0.00    +0.000 OA
ATOM      7  C   UNL     1       0.812   9.817  21.134  0.00  0.00    +0.000 A 
ATOM      8  C   UNL     1       0.295  10.948  21.756  0.00  0.00    +0.000 A 
ATOM      9  C   UNL     1       0.348  12.168  21.121  0.00  0.00    +0.000 A 
ATOM     10  C   UNL     1       0.961  12.342  19.863  0.00  0.00    +0.000 A 
ATOM     11  C   UNL     1       1.507  11.153  19.205  0.00  0.00    +0.000 A 
ATOM     12  C   UNL     1       1.461   9.826  19.801  0.00  0.00    +0.000 A 
ATOM     13  C   UNL     1       2.203   8.447  18.976  0.00  0.00    +0.000 C 
ENDROOT
BRANCH  10  14
ATOM     14  C   UNL     1       0.987  13.783  19.378  0.00  0.00    +0.000 A 
ATOM     15  C   UNL     1       2.127  14.402  18.844  0.00  0.00    +0.000 A 
ATOM     16  C   UNL     1       2.098  15.715  18.299  0.00  0.00    +0.000 A 
ATOM     17  C   UNL     1       0.893  16.436  18.276  0.00  0.00    +0.000 A 
ATOM     18  N   UNL     1       0.612  17.709  17.822  0.00  0.00    +0.000 NA
ATOM     19  C   UNL     1      -0.673  17.875  18.032  0.00  0.00    +0.000 A 
ATOM     20  N   UNL     1      -1.245  16.751  18.566  0.00  0.00    +0.000 N 
ATOM     21  C   UNL     1      -0.250  15.823  18.765  0.00  0.00    +0.000 A 
ATOM     22  C   UNL     1      -0.238  14.524  19.307  0.00  0.00    +0.000 A 
ATOM     23  H   UNL     1      -2.227  16.645  18.786  0.00  0.00    +0.000 HD
ENDBRANCH  10  14
BRANCH   2  24
ATOM     24  C   UNL     1       3.502   5.268  17.799  0.00  0.00    +0.000 A 
ATOM     25  C   UNL     1       4.132   6.405  17.210  0.00  0.00    +0.000 A 
ATOM     26  C   UNL     1       5.112   6.294  16.215  0.00  0.00    +0.000 A 
ATOM     27  C   UNL     1       5.490   5.021  15.773  0.00  0.00    +0.000 A 
ATOM     28  C   UNL     1       4.913   3.903  16.373  0.00  0.00    +0.000 A 
ATOM     29  C   UNL     1       3.917   4.019  17.373  0.00  0.00    +0.000 A 
BRANCH  27  30
ATOM     30  C   UNL     1       6.518   4.957  14.697  0.00  0.00    +0.000 C 
ATOM     31  O   UNL     1       7.553   5.609  14.853  0.00  0.00    +0.000 OA
BRANCH  30  32
ATOM     32  C   UNL     1       6.244   4.134  13.438  0.00  0.00    +0.000 C 
ATOM     33  F   UNL     1       7.029   4.456  12.375  0.00  0.00    +0.000 F 
ATOM     34  F   UNL     1       6.448   2.802  13.649  0.00  0.00    +0.000 F 
ATOM     35  F   UNL     1       4.960   4.263  13.010  0.00  0.00    +0.000 F 
ENDBRANCH  30  32
ENDBRANCH  27  30
ENDBRANCH   2  24
TORSDOF 4
ENDMDL
MODEL 6
REMARK VINA RESULT:      -8.8      0.895      1.239
REMARK  Name = 
REMARK  4 active torsions:
REMARK  status: ('A' for Active; 'I' for Inactive)
REMARK    1  A    between atoms: C_2  and  C_3
REMARK    2  A    between atoms: C_6  and  C_7
REMARK    3  A    between atoms: C_7  and  C_9
REMARK    4  A    between atoms: C_22  and  C_23
REMARK                            x       y       z     vdW  Elec       q    Type
REMARK                         _______ _______ _______ _____ _____    ______ ____
ROOT
ATOM      1  O   UNL     1       3.992   3.160  18.085  0.00  0.00    +0.000 OA
ATOM      2  C   UNL     1       4.070   4.347  17.724  0.00  0.00    +0.000 C 
ATOM      3  N   UNL     1       3.270   5.308  18.422  0.00  0.00    +0.000 N 
ATOM      4  C   UNL     1       2.692   4.573  19.621  0.00  0.00    +0.000 C 
ATOM      5  C   UNL     1       2.227   5.720  20.351  0.00  0.00    +0.000 C 
ATOM      6  O   UNL     1       1.478   6.326  21.294  0.00  0.00    +0.000 OA
ATOM      7  C   UNL     1       1.403   7.603  20.663  0.00  0.00    +0.000 A 
ATOM      8  C   UNL     1       0.626   8.439  21.457  0.00  0.00    +0.000 A 
ATOM      9  C   UNL     1       0.293   9.699  21.012  0.00  0.00    +0.000 A 
ATOM     10  C   UNL     1       0.755  10.215  19.784  0.00  0.00    +0.000 A 
ATOM     11  C   UNL     1       1.574   9.338  18.945  0.00  0.00    +0.000 A 
ATOM     12  C   UNL     1       1.942   7.984  19.336  0.00  0.00    +0.000 A 
ATOM     13  C   UNL     1       2.992   7.006  18.299  0.00  0.00    +0.000 C 
ENDROOT
BRANCH  10  14
ATOM     14  C   UNL     1       0.343  11.654  19.521  0.00  0.00    +0.000 A 
ATOM     15  C   UNL     1      -0.948  12.148  19.758  0.00  0.00    +0.000 A 
ATOM     16  C   UNL     1      -1.280  13.523  19.606  0.00  0.00    +0.000 A 
ATOM     17  C   UNL     1      -0.293  14.441  19.212  0.00  0.00    +0.000 A 
ATOM     18  N   UNL     1      -0.365  15.800  18.985  0.00  0.00    +0.000 NA
ATOM     19  C   UNL     1       0.851  16.160  18.647  0.00  0.00    +0.000 A 
ATOM     20  N   UNL     1       1.718  15.099  18.685  0.00  0.00    +0.000 N 
ATOM     21  C   UNL     1       0.997  13.974  19.011  0.00  0.00    +0.000 A 
ATOM     22  C   UNL     1       1.341  12.618  19.159  0.00  0.00    +0.000 A 
ATOM     23  H   UNL     1       2.708  15.149  18.486  0.00  0.00    +0.000 HD
ENDBRANCH  10  14
BRANCH   2  24
ATOM     24  C   UNL     1       5.062   4.533  16.634  0.00  0.00    +0.000 A 
ATOM     25  C   UNL     1       4.602   4.310  15.302  0.00  0.00    +0.000 A 
ATOM     26  C   UNL     1       5.433   4.450  14.183  0.00  0.00    +0.000 A 
ATOM     27  C   UNL     1       6.771   4.816  14.372  0.00  0.00    +0.000 A 
ATOM     28  C   UNL     1       7.219   5.079  15.665  0.00  0.00    +0.000 A 
ATOM     29  C   UNL     1       6.377   4.931  16.795  0.00  0.00    +0.000 A 
BRANCH  27  30
ATOM     30  C   UNL     1       7.619   4.927  13.152  0.00  0.00    +0.000 C 
ATOM     31  O   UNL     1       8.648   5.602  13.228  0.00  0.00    +0.000 OA
BRANCH  30  32
ATOM     32  C   UNL     1       7.174   4.245  11.858  0.00  0.00    +0.000 C 
ATOM     33  F   UNL     1       5.855   3.915  11.823  0.00  0.00    +0.000 F 
ATOM     34  F   UNL     1       7.378   5.041  10.770  0.00  0.00    +0.000 F 
ATOM     35  F   UNL     1       7.856   3.092  11.625  0.00  0.00    +0.000 F 
ENDBRANCH  30  32
ENDBRANCH  27  30
ENDBRANCH   2  24
TORSDOF 4
ENDMDL
MODEL 7
REMARK VINA RESULT:      -8.7      1.765      2.868
REMARK  Name = 
REMARK  4 active torsions:
REMARK  status: ('A' for Active; 'I' for Inactive)
REMARK    1  A    between atoms: C_2  and  C_3
REMARK    2  A    between atoms: C_6  and  C_7
REMARK    3  A    between atoms: C_7  and  C_9
REMARK    4  A    between atoms: C_22  and  C_23
REMARK                            x       y       z     vdW  Elec       q    Type
REMARK                         _______ _______ _______ _____ _____    ______ ____
ROOT
ATOM      1  O   UNL     1       1.990   5.463  19.915  0.00  0.00    +0.000 OA
ATOM      2  C   UNL     1       2.328   6.521  19.356  0.00  0.00    +0.000 C 
ATOM      3  N   UNL     1       1.735   7.738  19.820  0.00  0.00    +0.000 N 
ATOM      4  C   UNL     1       0.984   7.374  21.091  0.00  0.00    +0.000 C 
ATOM      5  C   UNL     1       0.756   8.707  21.577  0.00  0.00    +0.000 C 
ATOM      6  O   UNL     1       0.130   9.619  22.348  0.00  0.00    +0.000 OA
ATOM      7  C   UNL     1       0.346  10.744  21.498  0.00  0.00    +0.000 A 
ATOM      8  C   UNL     1      -0.254  11.854  22.081  0.00  0.00    +0.000 A 
ATOM      9  C   UNL     1      -0.299  13.050  21.400  0.00  0.00    +0.000 A 
ATOM     10  C   UNL     1       0.294  13.223  20.132  0.00  0.00    +0.000 A 
ATOM     11  C   UNL     1       0.927  12.056  19.515  0.00  0.00    +0.000 A 
ATOM     12  C   UNL     1       0.987  10.753  20.161  0.00  0.00    +0.000 A 
ATOM     13  C   UNL     1       1.829   9.404  19.383  0.00  0.00    +0.000 C 
ENDROOT
BRANCH  10  14
ATOM     14  C   UNL     1       0.206  14.642  19.594  0.00  0.00    +0.000 A 
ATOM     15  C   UNL     1       1.238  15.266  18.877  0.00  0.00    +0.000 A 
ATOM     16  C   UNL     1       1.091  16.554  18.292  0.00  0.00    +0.000 A 
ATOM     17  C   UNL     1      -0.127  17.243  18.415  0.00  0.00    +0.000 A 
ATOM     18  N   UNL     1      -0.509  18.487  17.958  0.00  0.00    +0.000 NA
ATOM     19  C   UNL     1      -1.755  18.631  18.344  0.00  0.00    +0.000 A 
ATOM     20  N   UNL     1      -2.210  17.517  18.998  0.00  0.00    +0.000 N 
ATOM     21  C   UNL     1      -1.168  16.623  19.087  0.00  0.00    +0.000 A 
ATOM     22  C   UNL     1      -1.039  15.349  19.671  0.00  0.00    +0.000 A 
ATOM     23  H   UNL     1      -3.146  17.396  19.361  0.00  0.00    +0.000 HD
ENDBRANCH  10  14
BRANCH   2  24
ATOM     24  C   UNL     1       3.365   6.293  18.316  0.00  0.00    +0.000 A 
ATOM     25  C   UNL     1       3.837   4.955  18.163  0.00  0.00    +0.000 A 
ATOM     26  C   UNL     1       4.812   4.602  17.222  0.00  0.00    +0.000 A 
ATOM     27  C   UNL     1       5.354   5.596  16.398  0.00  0.00    +0.000 A 
ATOM     28  C   UNL     1       4.867   6.898  16.509  0.00  0.00    +0.000 A 
ATOM     29  C   UNL     1       3.886   7.252  17.466  0.00  0.00    +0.000 A 
BRANCH  27  30
ATOM     30  C   UNL     1       6.405   5.174  15.431  0.00  0.00    +0.000 C 
ATOM     31  O   UNL     1       7.515   5.701  15.523  0.00  0.00    +0.000 OA
BRANCH  30  32
ATOM     32  C   UNL     1       6.067   4.147  14.349  0.00  0.00    +0.000 C 
ATOM     33  F   UNL     1       6.945   4.117  13.311  0.00  0.00    +0.000 F 
ATOM     34  F   UNL     1       6.047   2.877  14.844  0.00  0.00    +0.000 F 
ATOM     35  F   UNL     1       4.843   4.365  13.800  0.00  0.00    +0.000 F 
ENDBRANCH  30  32
ENDBRANCH  27  30
ENDBRANCH   2  24
TORSDOF 4
ENDMDL
MODEL 8
REMARK VINA RESULT:      -8.5      1.847      2.810
REMARK  Name = 
REMARK  4 active torsions:
REMARK  status: ('A' for Active; 'I' for Inactive)
REMARK    1  A    between atoms: C_2  and  C_3
REMARK    2  A    between atoms: C_6  and  C_7
REMARK    3  A    between atoms: C_7  and  C_9
REMARK    4  A    between atoms: C_22  and  C_23
REMARK                            x       y       z     vdW  Elec       q    Type
REMARK                         _______ _______ _______ _____ _____    ______ ____
ROOT
ATOM      1  O   UNL     1       1.790   5.451  20.606  0.00  0.00    +0.000 OA
ATOM      2  C   UNL     1       2.177   6.492  20.046  0.00  0.00    +0.000 C 
ATOM      3  N   UNL     1       1.507   7.713  20.376  0.00  0.00    +0.000 N 
ATOM      4  C   UNL     1       0.607   7.385  21.557  0.00  0.00    +0.000 C 
ATOM      5  C   UNL     1       0.294   8.732  21.948  0.00  0.00    +0.000 C 
ATOM      6  O   UNL     1      -0.442   9.660  22.591  0.00  0.00    +0.000 OA
ATOM      7  C   UNL     1      -0.142  10.753  21.725  0.00  0.00    +0.000 A 
ATOM      8  C   UNL     1      -0.833  11.872  22.176  0.00  0.00    +0.000 A 
ATOM      9  C   UNL     1      -0.813  13.036  21.441  0.00  0.00    +0.000 A 
ATOM     10  C   UNL     1      -0.068  13.169  20.251  0.00  0.00    +0.000 A 
ATOM     11  C   UNL     1       0.661  11.992  19.773  0.00  0.00    +0.000 A 
ATOM     12  C   UNL     1       0.663  10.720  20.481  0.00  0.00    +0.000 A 
ATOM     13  C   UNL     1       1.623   9.360  19.878  0.00  0.00    +0.000 C 
ENDROOT
BRANCH  10  14
ATOM     14  C   UNL     1      -0.114  14.560  19.641  0.00  0.00    +0.000 A 
ATOM     15  C   UNL     1      -1.175  15.458  19.834  0.00  0.00    +0.000 A 
ATOM     16  C   UNL     1      -1.145  16.792  19.341  0.00  0.00    +0.000 A 
ATOM     17  C   UNL     1      -0.020  17.254  18.640  0.00  0.00    +0.000 A 
ATOM     18  N   UNL     1       0.241  18.478  18.060  0.00  0.00    +0.000 NA
ATOM     19  C   UNL     1       1.444  18.369  17.547  0.00  0.00    +0.000 A 
ATOM     20  N   UNL     1       1.990  17.139  17.803  0.00  0.00    +0.000 N 
ATOM     21  C   UNL     1       1.052  16.391  18.475  0.00  0.00    +0.000 A 
ATOM     22  C   UNL     1       1.039  15.069  18.957  0.00  0.00    +0.000 A 
ATOM     23  H   UNL     1       2.916  16.842  17.523  0.00  0.00    +0.000 HD
ENDBRANCH  10  14
BRANCH   2  24
ATOM     24  C   UNL     1       3.341   6.245  19.157  0.00  0.00    +0.000 A 
ATOM     25  C   UNL     1       3.415   7.026  17.964  0.00  0.00    +0.000 A 
ATOM     26  C   UNL     1       4.459   6.893  17.039  0.00  0.00    +0.000 A 
ATOM     27  C   UNL     1       5.469   5.956  17.284  0.00  0.00    +0.000 A 
ATOM     28  C   UNL     1       5.430   5.220  18.467  0.00  0.00    +0.000 A 
ATOM     29  C   UNL     1       4.370   5.352  19.397  0.00  0.00    +0.000 A 
BRANCH  27  30
ATOM     30  C   UNL     1       6.542   5.836  16.258  0.00  0.00    +0.000 C 
ATOM     31  O   UNL     1       7.494   6.616  16.329  0.00  0.00    +0.000 OA
BRANCH  30  32
ATOM     32  C   UNL     1       6.411   4.795  15.146  0.00  0.00    +0.000 C 
ATOM     33  F   UNL     1       7.450   4.776  14.269  0.00  0.00    +0.000 F 
ATOM     34  F   UNL     1       6.334   3.528  15.644  0.00  0.00    +0.000 F 
ATOM     35  F   UNL     1       5.292   4.983  14.397  0.00  0.00    +0.000 F 
ENDBRANCH  30  32
ENDBRANCH  27  30
ENDBRANCH   2  24
TORSDOF 4
ENDMDL
MODEL 9
REMARK VINA RESULT:      -8.5      1.467      2.088
REMARK  Name = 
REMARK  4 active torsions:
REMARK  status: ('A' for Active; 'I' for Inactive)
REMARK    1  A    between atoms: C_2  and  C_3
REMARK    2  A    between atoms: C_6  and  C_7
REMARK    3  A    between atoms: C_7  and  C_9
REMARK    4  A    between atoms: C_22  and  C_23
REMARK                            x       y       z     vdW  Elec       q    Type
REMARK                         _______ _______ _______ _____ _____    ______ ____
ROOT
ATOM      1  O   UNL     1       1.877   4.538  20.075  0.00  0.00    +0.000 OA
ATOM      2  C   UNL     1       2.316   5.542  19.487  0.00  0.00    +0.000 C 
ATOM      3  N   UNL     1       1.774   6.816  19.850  0.00  0.00    +0.000 N 
ATOM      4  C   UNL     1       0.923   6.566  21.085  0.00  0.00    +0.000 C 
ATOM      5  C   UNL     1       0.751   7.935  21.488  0.00  0.00    +0.000 C 
ATOM      6  O   UNL     1       0.138   8.923  22.170  0.00  0.00    +0.000 OA
ATOM      7  C   UNL     1       0.477   9.985  21.281  0.00  0.00    +0.000 A 
ATOM      8  C   UNL     1      -0.086  11.160  21.768  0.00  0.00    +0.000 A 
ATOM      9  C   UNL     1      -0.012  12.318  21.026  0.00  0.00    +0.000 A 
ATOM     10  C   UNL     1       0.668  12.386  19.793  0.00  0.00    +0.000 A 
ATOM     11  C   UNL     1       1.263  11.151  19.277  0.00  0.00    +0.000 A 
ATOM     12  C   UNL     1       1.199   9.884  19.990  0.00  0.00    +0.000 A 
ATOM     13  C   UNL     1       2.001   8.447  19.337  0.00  0.00    +0.000 C 
ENDROOT
BRANCH  10  14
ATOM     14  C   UNL     1       0.704  13.777  19.180  0.00  0.00    +0.000 A 
ATOM     15  C   UNL     1      -0.360  14.688  19.258  0.00  0.00    +0.000 A 
ATOM     16  C   UNL     1      -0.262  16.020  18.770  0.00  0.00    +0.000 A 
ATOM     17  C   UNL     1       0.938  16.466  18.191  0.00  0.00    +0.000 A 
ATOM     18  N   UNL     1       1.274  17.686  17.640  0.00  0.00    +0.000 NA
ATOM     19  C   UNL     1       2.523  17.560  17.257  0.00  0.00    +0.000 A 
ATOM     20  N   UNL     1       3.023  16.324  17.571  0.00  0.00    +0.000 N 
ATOM     21  C   UNL     1       2.010  15.589  18.141  0.00  0.00    +0.000 A 
ATOM     22  C   UNL     1       1.929  14.269  18.621  0.00  0.00    +0.000 A 
ATOM     23  H   UNL     1       3.970  16.015  17.391  0.00  0.00    +0.000 HD
ENDBRANCH  10  14
BRANCH   2  24
ATOM     24  C   UNL     1       3.399   5.196  18.529  0.00  0.00    +0.000 A 
ATOM     25  C   UNL     1       4.571   6.010  18.564  0.00  0.00    +0.000 A 
ATOM     26  C   UNL     1       5.664   5.793  17.716  0.00  0.00    +0.000 A 
ATOM     27  C   UNL     1       5.611   4.743  16.792  0.00  0.00    +0.000 A 
ATOM     28  C   UNL     1       4.490   3.915  16.781  0.00  0.00    +0.000 A 
ATOM     29  C   UNL     1       3.383   4.141  17.635  0.00  0.00    +0.000 A 
BRANCH  27  30
ATOM     30  C   UNL     1       6.789   4.572  15.897  0.00  0.00    +0.000 C 
ATOM     31  O   UNL     1       7.893   4.413  16.424  0.00  0.00    +0.000 OA
BRANCH  30  32
ATOM     32  C   UNL     1       6.602   4.636  14.380  0.00  0.00    +0.000 C 
ATOM     33  F   UNL     1       6.471   3.424  13.779  0.00  0.00    +0.000 F 
ATOM     34  F   UNL     1       5.482   5.334  14.037  0.00  0.00    +0.000 F 
ATOM     35  F   UNL     1       7.644   5.252  13.761  0.00  0.00    +0.000 F 
ENDBRANCH  30  32
ENDBRANCH  27  30
ENDBRANCH   2  24
TORSDOF 4
ENDMDL
