MODEL 1
REMARK VINA RESULT:      -8.4      0.000      0.000
REMARK  Name = 
REMARK  16 active torsions:
REMARK  status: ('A' for Active; 'I' for Inactive)
REMARK    1  A    between atoms: C_2  and  O_3
REMARK    2  A    between atoms: C_2  and  C_4
REMARK    3  A    between atoms: C_4  and  C_5
REMARK    4  A    between atoms: C_5  and  C_6
REMARK    5  A    between atoms: C_8  and  C_9
REMARK    6  A    between atoms: C_9  and  C_11
REMARK    7  A    between atoms: C_15  and  C_16
REMARK    8  A    between atoms: C_16  and  O_18
REMARK    9  A    between atoms: C_22  and  O_23
REMARK   10  A    between atoms: O_23  and  C_24
REMARK   11  A    between atoms: C_24  and  C_25
REMARK   12  A    between atoms: C_25  and  C_26
REMARK   13  A    between atoms: C_26  and  C_27
REMARK   14  A    between atoms: C_27  and  C_28
REMARK   15  A    between atoms: C_28  and  C_29
REMARK   16  A    between atoms: C_29  and  C_30
REMARK                            x       y       z     vdW  Elec       q    Type
REMARK                         _______ _______ _______ _____ _____    ______ ____
ROOT
ATOM      1  C   UNL     1       3.421   4.170  17.337  0.00  0.00    +0.000 A 
ATOM      2  C   UNL     1       4.599   4.036  16.579  0.00  0.00    +0.000 A 
ATOM      3  C   UNL     1       5.578   5.037  16.551  0.00  0.00    +0.000 A 
ATOM      4  C   UNL     1       5.348   6.247  17.203  0.00  0.00    +0.000 A 
ATOM      5  C   UNL     1       4.196   6.400  17.968  0.00  0.00    +0.000 A 
ATOM      6  C   UNL     1       3.236   5.378  18.057  0.00  0.00    +0.000 A 
ENDROOT
BRANCH   3   7
ATOM      7  C   UNL     1       6.863   4.725  15.880  0.00  0.00    +0.000 C 
ATOM      8  O   UNL     1       7.891   4.626  16.546  0.00  0.00    +0.000 OA
BRANCH   7   9
ATOM      9  C   UNL     1       6.951   4.603  14.401  0.00  0.00    +0.000 A 
ATOM     10  C   UNL     1       7.851   5.378  13.655  0.00  0.00    +0.000 A 
ATOM     11  C   UNL     1       7.882   5.273  12.265  0.00  0.00    +0.000 A 
ATOM     12  C   UNL     1       7.056   4.353  11.627  0.00  0.00    +0.000 A 
ATOM     13  C   UNL     1       6.200   3.528  12.367  0.00  0.00    +0.000 A 
ATOM     14  C   UNL     1       6.135   3.662  13.758  0.00  0.00    +0.000 A 
BRANCH  13  15
ATOM     15  C   UNL     1       5.351   2.571  11.613  0.00  0.00    +0.000 C 
ATOM     16  O   UNL     1       5.738   1.458  11.302  0.00  0.00    +0.000 OA
BRANCH  15  17
ATOM     17  O   UNL     1       4.109   3.019  11.347  0.00  0.00    +0.000 OA
ATOM     18  H   UNL     1       4.061   3.861  10.860  0.00  0.00    +0.000 HD
ENDBRANCH  15  17
ENDBRANCH  13  15
ENDBRANCH   7   9
ENDBRANCH   3   7
BRANCH   1  19
ATOM     19  C   UNL     1       2.448   3.011  17.393  0.00  0.00    +0.000 C 
BRANCH  19  20
ATOM     20  C   UNL     1       2.302   2.208  18.690  0.00  0.00    +0.000 C 
BRANCH  20  22
ATOM     21  O   UNL     1       4.259   2.338  20.126  0.00  0.00    +0.000 OA
ATOM     22  C   UNL     1       3.664   1.803  19.203  0.00  0.00    +0.000 C 
BRANCH  22  23
ATOM     23  O   UNL     1       4.183   0.753  18.525  0.00  0.00    +0.000 OA
ATOM     24  H   UNL     1       5.139   0.831  18.342  0.00  0.00    +0.000 HD
ENDBRANCH  22  23
ENDBRANCH  20  22
ENDBRANCH  19  20
ENDBRANCH   1  19
BRANCH   6  25
ATOM     25  O   UNL     1       2.245   5.685  18.958  0.00  0.00    +0.000 OA
BRANCH  25  26
ATOM     26  C   UNL     1       2.315   6.959  19.577  0.00  0.00    +0.000 C 
BRANCH  26  27
ATOM     27  C   UNL     1       1.499   7.003  20.863  0.00  0.00    +0.000 C 
BRANCH  27  28
ATOM     28  C   UNL     1       1.278   8.472  21.221  0.00  0.00    +0.000 C 
BRANCH  28  29
ATOM     29  C   UNL     1      -0.178   8.802  21.508  0.00  0.00    +0.000 C 
BRANCH  29  30
ATOM     30  C   UNL     1      -0.449  10.276  21.207  0.00  0.00    +0.000 C 
BRANCH  30  31
ATOM     31  C   UNL     1      -0.423  10.542  19.704  0.00  0.00    +0.000 C 
BRANCH  31  32
ATOM     32  C   UNL     1       0.142  11.907  19.397  0.00  0.00    +0.000 A 
ATOM     33  C   UNL     1      -0.718  12.974  19.093  0.00  0.00    +0.000 A 
ATOM     34  C   UNL     1      -0.198  14.230  18.783  0.00  0.00    +0.000 A 
ATOM     35  C   UNL     1       1.178  14.420  18.771  0.00  0.00    +0.000 A 
ATOM     36  F   UNL     1       1.677  15.626  18.472  0.00  0.00    +0.000 F 
ATOM     37  C   UNL     1       2.046  13.374  19.064  0.00  0.00    +0.000 A 
ATOM     38  C   UNL     1       1.528  12.115  19.374  0.00  0.00    +0.000 A 
ENDBRANCH  31  32
ENDBRANCH  30  31
ENDBRANCH  29  30
ENDBRANCH  28  29
ENDBRANCH  27  28
ENDBRANCH  26  27
ENDBRANCH  25  26
ENDBRANCH   6  25
TORSDOF 16
ENDMDL
MODEL 2
REMARK VINA RESULT:      -8.4      3.989      8.456
REMARK  Name = 
REMARK  16 active torsions:
REMARK  status: ('A' for Active; 'I' for Inactive)
REMARK    1  A    between atoms: C_2  and  O_3
REMARK    2  A    between atoms: C_2  and  C_4
REMARK    3  A    between atoms: C_4  and  C_5
REMARK    4  A    between atoms: C_5  and  C_6
REMARK    5  A    between atoms: C_8  and  C_9
REMARK    6  A    between atoms: C_9  and  C_11
REMARK    7  A    between atoms: C_15  and  C_16
REMARK    8  A    between atoms: C_16  and  O_18
REMARK    9  A    between atoms: C_22  and  O_23
REMARK   10  A    between atoms: O_23  and  C_24
REMARK   11  A    between atoms: C_24  and  C_25
REMARK   12  A    between atoms: C_25  and  C_26
REMARK   13  A    between atoms: C_26  and  C_27
REMARK   14  A    between atoms: C_27  and  C_28
REMARK   15  A    between atoms: C_28  and  C_29
REMARK   16  A    between atoms: C_29  and  C_30
REMARK                            x       y       z     vdW  Elec       q    Type
REMARK                         _______ _______ _______ _____ _____    ______ ____
ROOT
ATOM      1  C   UNL     1       2.510   5.896  19.622  0.00  0.00    +0.000 A 
ATOM      2  C   UNL     1       1.863   6.952  20.291  0.00  0.00    +0.000 A 
ATOM      3  C   UNL     1       1.736   8.222  19.718  0.00  0.00    +0.000 A 
ATOM      4  C   UNL     1       2.351   8.494  18.497  0.00  0.00    +0.000 A 
ATOM      5  C   UNL     1       2.988   7.465  17.811  0.00  0.00    +0.000 A 
ATOM      6  C   UNL     1       3.066   6.169  18.346  0.00  0.00    +0.000 A 
ENDROOT
BRANCH   3   7
ATOM      7  C   UNL     1       0.876   9.210  20.414  0.00  0.00    +0.000 C 
ATOM      8  O   UNL     1       0.520   9.001  21.572  0.00  0.00    +0.000 OA
BRANCH   7   9
ATOM      9  C   UNL     1       0.369  10.420  19.715  0.00  0.00    +0.000 A 
ATOM     10  C   UNL     1       1.041  11.648  19.796  0.00  0.00    +0.000 A 
ATOM     11  C   UNL     1       0.519  12.775  19.164  0.00  0.00    +0.000 A 
ATOM     12  C   UNL     1      -0.641  12.664  18.405  0.00  0.00    +0.000 A 
ATOM     13  C   UNL     1      -1.286  11.428  18.265  0.00  0.00    +0.000 A 
ATOM     14  C   UNL     1      -0.788  10.304  18.933  0.00  0.00    +0.000 A 
BRANCH  13  15
ATOM     15  C   UNL     1      -2.518  11.390  17.437  0.00  0.00    +0.000 C 
ATOM     16  O   UNL     1      -3.612  11.125  17.904  0.00  0.00    +0.000 OA
BRANCH  15  17
ATOM     17  O   UNL     1      -2.330  11.720  16.144  0.00  0.00    +0.000 OA
ATOM     18  H   UNL     1      -1.679  11.179  15.663  0.00  0.00    +0.000 HD
ENDBRANCH  15  17
ENDBRANCH  13  15
ENDBRANCH   7   9
ENDBRANCH   3   7
BRANCH   1  19
ATOM     19  C   UNL     1       2.532   4.524  20.264  0.00  0.00    +0.000 C 
BRANCH  19  20
ATOM     20  C   UNL     1       1.309   3.610  20.136  0.00  0.00    +0.000 C 
BRANCH  20  22
ATOM     21  O   UNL     1       1.050   3.263  17.744  0.00  0.00    +0.000 OA
ATOM     22  C   UNL     1       1.375   2.834  18.841  0.00  0.00    +0.000 C 
BRANCH  22  23
ATOM     23  O   UNL     1       1.846   1.578  19.012  0.00  0.00    +0.000 OA
ATOM     24  H   UNL     1       1.266   0.882  18.650  0.00  0.00    +0.000 HD
ENDBRANCH  22  23
ENDBRANCH  20  22
ENDBRANCH  19  20
ENDBRANCH   1  19
BRANCH   6  25
ATOM     25  O   UNL     1       3.623   5.281  17.457  0.00  0.00    +0.000 OA
BRANCH  25  26
ATOM     26  C   UNL     1       4.884   4.734  17.805  0.00  0.00    +0.000 C 
BRANCH  26  27
ATOM     27  C   UNL     1       5.873   4.828  16.649  0.00  0.00    +0.000 C 
BRANCH  27  28
ATOM     28  C   UNL     1       6.322   6.284  16.542  0.00  0.00    +0.000 C 
BRANCH  28  29
ATOM     29  C   UNL     1       6.923   6.817  17.833  0.00  0.00    +0.000 C 
BRANCH  29  30
ATOM     30  C   UNL     1       7.634   8.145  17.569  0.00  0.00    +0.000 C 
BRANCH  30  31
ATOM     31  C   UNL     1       8.646   8.454  18.669  0.00  0.00    +0.000 C 
BRANCH  31  32
ATOM     32  C   UNL     1       8.925   9.933  18.760  0.00  0.00    +0.000 A 
ATOM     33  C   UNL     1       9.470  10.478  19.933  0.00  0.00    +0.000 A 
ATOM     34  C   UNL     1       9.705  11.848  20.030  0.00  0.00    +0.000 A 
ATOM     35  C   UNL     1       9.392  12.676  18.960  0.00  0.00    +0.000 A 
ATOM     36  F   UNL     1       9.616  13.992  19.054  0.00  0.00    +0.000 F 
ATOM     37  C   UNL     1       8.846  12.157  17.791  0.00  0.00    +0.000 A 
ATOM     38  C   UNL     1       8.610  10.784  17.692  0.00  0.00    +0.000 A 
ENDBRANCH  31  32
ENDBRANCH  30  31
ENDBRANCH  29  30
ENDBRANCH  28  29
ENDBRANCH  27  28
ENDBRANCH  26  27
ENDBRANCH  25  26
ENDBRANCH   6  25
TORSDOF 16
ENDMDL
MODEL 3
REMARK VINA RESULT:      -8.3      2.695      3.353
REMARK  Name = 
REMARK  16 active torsions:
REMARK  status: ('A' for Active; 'I' for Inactive)
REMARK    1  A    between atoms: C_2  and  O_3
REMARK    2  A    between atoms: C_2  and  C_4
REMARK    3  A    between atoms: C_4  and  C_5
REMARK    4  A    between atoms: C_5  and  C_6
REMARK    5  A    between atoms: C_8  and  C_9
REMARK    6  A    between atoms: C_9  and  C_11
REMARK    7  A    between atoms: C_15  and  C_16
REMARK    8  A    between atoms: C_16  and  O_18
REMARK    9  A    between atoms: C_22  and  O_23
REMARK   10  A    between atoms: O_23  and  C_24
REMARK   11  A    between atoms: C_24  and  C_25
REMARK   12  A    between atoms: C_25  and  C_26
REMARK   13  A    between atoms: C_26  and  C_27
REMARK   14  A    between atoms: C_27  and  C_28
REMARK   15  A    between atoms: C_28  and  C_29
REMARK   16  A    between atoms: C_29  and  C_30
REMARK                            x       y       z     vdW  Elec       q    Type
REMARK                         _______ _______ _______ _____ _____    ______ ____
ROOT
ATOM      1  C   UNL     1       3.316   4.855  17.791  0.00  0.00    +0.000 A 
ATOM      2  C   UNL     1       4.443   4.415  17.072  0.00  0.00    +0.000 A 
ATOM      3  C   UNL     1       5.368   5.313  16.527  0.00  0.00    +0.000 A 
ATOM      4  C   UNL     1       5.126   6.683  16.599  0.00  0.00    +0.000 A 
ATOM      5  C   UNL     1       4.025   7.144  17.313  0.00  0.00    +0.000 A 
ATOM      6  C   UNL     1       3.124   6.255  17.921  0.00  0.00    +0.000 A 
ENDROOT
BRANCH   3   7
ATOM      7  C   UNL     1       6.617   4.753  15.955  0.00  0.00    +0.000 C 
ATOM      8  O   UNL     1       7.553   4.465  16.697  0.00  0.00    +0.000 OA
BRANCH   7   9
ATOM      9  C   UNL     1       6.792   4.600  14.487  0.00  0.00    +0.000 A 
ATOM     10  C   UNL     1       7.755   5.338  13.784  0.00  0.00    +0.000 A 
ATOM     11  C   UNL     1       7.868   5.205  12.401  0.00  0.00    +0.000 A 
ATOM     12  C   UNL     1       7.060   4.294  11.729  0.00  0.00    +0.000 A 
ATOM     13  C   UNL     1       6.138   3.505  12.430  0.00  0.00    +0.000 A 
ATOM     14  C   UNL     1       5.993   3.667  13.812  0.00  0.00    +0.000 A 
BRANCH  13  15
ATOM     15  C   UNL     1       5.314   2.554  11.642  0.00  0.00    +0.000 C 
ATOM     16  O   UNL     1       4.253   2.874  11.134  0.00  0.00    +0.000 OA
BRANCH  15  17
ATOM     17  O   UNL     1       5.860   1.331  11.497  0.00  0.00    +0.000 OA
ATOM     18  H   UNL     1       6.645   1.154  12.046  0.00  0.00    +0.000 HD
ENDBRANCH  15  17
ENDBRANCH  13  15
ENDBRANCH   7   9
ENDBRANCH   3   7
BRANCH   1  19
ATOM     19  C   UNL     1       2.405   3.828  18.431  0.00  0.00    +0.000 C 
BRANCH  19  20
ATOM     20  C   UNL     1       2.782   3.224  19.788  0.00  0.00    +0.000 C 
BRANCH  20  22
ATOM     21  O   UNL     1       0.975   4.576  20.692  0.00  0.00    +0.000 OA
ATOM     22  C   UNL     1       1.889   3.785  20.870  0.00  0.00    +0.000 C 
BRANCH  22  23
ATOM     23  O   UNL     1       2.204   3.314  22.099  0.00  0.00    +0.000 OA
ATOM     24  H   UNL     1       2.895   2.624  22.095  0.00  0.00    +0.000 HD
ENDBRANCH  22  23
ENDBRANCH  20  22
ENDBRANCH  19  20
ENDBRANCH   1  19
BRANCH   6  25
ATOM     25  O   UNL     1       2.184   6.915  18.676  0.00  0.00    +0.000 OA
BRANCH  25  26
ATOM     26  C   UNL     1       2.333   8.321  18.795  0.00  0.00    +0.000 C 
BRANCH  26  27
ATOM     27  C   UNL     1       0.986   9.032  18.752  0.00  0.00    +0.000 C 
BRANCH  27  28
ATOM     28  C   UNL     1       0.838   9.823  20.051  0.00  0.00    +0.000 C 
BRANCH  28  29
ATOM     29  C   UNL     1      -0.604  10.186  20.366  0.00  0.00    +0.000 C 
BRANCH  29  30
ATOM     30  C   UNL     1      -1.262  10.820  19.140  0.00  0.00    +0.000 C 
BRANCH  30  31
ATOM     31  C   UNL     1      -2.053  12.067  19.526  0.00  0.00    +0.000 C 
BRANCH  31  32
ATOM     32  C   UNL     1      -3.459  12.018  18.981  0.00  0.00    +0.000 A 
ATOM     33  C   UNL     1      -4.524  12.545  19.728  0.00  0.00    +0.000 A 
ATOM     34  C   UNL     1      -5.828  12.477  19.239  0.00  0.00    +0.000 A 
ATOM     35  C   UNL     1      -6.069  11.879  18.009  0.00  0.00    +0.000 A 
ATOM     36  F   UNL     1      -7.322  11.813  17.541  0.00  0.00    +0.000 F 
ATOM     37  C   UNL     1      -5.029  11.346  17.257  0.00  0.00    +0.000 A 
ATOM     38  C   UNL     1      -3.722  11.412  17.745  0.00  0.00    +0.000 A 
ENDBRANCH  31  32
ENDBRANCH  30  31
ENDBRANCH  29  30
ENDBRANCH  28  29
ENDBRANCH  27  28
ENDBRANCH  26  27
ENDBRANCH  25  26
ENDBRANCH   6  25
TORSDOF 16
ENDMDL
MODEL 4
REMARK VINA RESULT:      -8.3      2.131      2.597
REMARK  Name = 
REMARK  16 active torsions:
REMARK  status: ('A' for Active; 'I' for Inactive)
REMARK    1  A    between atoms: C_2  and  O_3
REMARK    2  A    between atoms: C_2  and  C_4
REMARK    3  A    between atoms: C_4  and  C_5
REMARK    4  A    between atoms: C_5  and  C_6
REMARK    5  A    between atoms: C_8  and  C_9
REMARK    6  A    between atoms: C_9  and  C_11
REMARK    7  A    between atoms: C_15  and  C_16
REMARK    8  A    between atoms: C_16  and  O_18
REMARK    9  A    between atoms: C_22  and  O_23
REMARK   10  A    between atoms: O_23  and  C_24
REMARK   11  A    between atoms: C_24  and  C_25
REMARK   12  A    between atoms: C_25  and  C_26
REMARK   13  A    between atoms: C_26  and  C_27
REMARK   14  A    between atoms: C_27  and  C_28
REMARK   15  A    between atoms: C_28  and  C_29
REMARK   16  A    between atoms: C_29  and  C_30
REMARK                            x       y       z     vdW  Elec       q    Type
REMARK                         _______ _______ _______ _____ _____    ______ ____
ROOT
ATOM      1  C   UNL     1       3.477   4.260  17.545  0.00  0.00    +0.000 A 
ATOM      2  C   UNL     1       4.636   4.070  16.769  0.00  0.00    +0.000 A 
ATOM      3  C   UNL     1       5.581   5.087  16.591  0.00  0.00    +0.000 A 
ATOM      4  C   UNL     1       5.331   6.360  17.101  0.00  0.00    +0.000 A 
ATOM      5  C   UNL     1       4.198   6.571  17.880  0.00  0.00    +0.000 A 
ATOM      6  C   UNL     1       3.274   5.541  18.121  0.00  0.00    +0.000 A 
ENDROOT
BRANCH   3   7
ATOM      7  C   UNL     1       6.856   4.733  15.920  0.00  0.00    +0.000 C 
ATOM      8  O   UNL     1       7.879   4.598  16.586  0.00  0.00    +0.000 OA
BRANCH   7   9
ATOM      9  C   UNL     1       6.940   4.612  14.441  0.00  0.00    +0.000 A 
ATOM     10  C   UNL     1       7.825   5.401  13.691  0.00  0.00    +0.000 A 
ATOM     11  C   UNL     1       7.853   5.295  12.302  0.00  0.00    +0.000 A 
ATOM     12  C   UNL     1       7.040   4.362  11.666  0.00  0.00    +0.000 A 
ATOM     13  C   UNL     1       6.199   3.524  12.410  0.00  0.00    +0.000 A 
ATOM     14  C   UNL     1       6.138   3.658  13.801  0.00  0.00    +0.000 A 
BRANCH  13  15
ATOM     15  C   UNL     1       5.364   2.553  11.659  0.00  0.00    +0.000 C 
ATOM     16  O   UNL     1       4.273   2.844  11.201  0.00  0.00    +0.000 OA
BRANCH  15  17
ATOM     17  O   UNL     1       5.935   1.344  11.487  0.00  0.00    +0.000 OA
ATOM     18  H   UNL     1       6.850   1.262  11.811  0.00  0.00    +0.000 HD
ENDBRANCH  15  17
ENDBRANCH  13  15
ENDBRANCH   7   9
ENDBRANCH   3   7
BRANCH   1  19
ATOM     19  C   UNL     1       2.543   3.089  17.770  0.00  0.00    +0.000 C 
BRANCH  19  20
ATOM     20  C   UNL     1       3.008   1.904  18.622  0.00  0.00    +0.000 C 
BRANCH  20  22
ATOM     21  O   UNL     1       3.197   2.953  20.807  0.00  0.00    +0.000 OA
ATOM     22  C   UNL     1       3.727   2.403  19.854  0.00  0.00    +0.000 C 
BRANCH  22  23
ATOM     23  O   UNL     1       5.060   2.175  19.805  0.00  0.00    +0.000 OA
ATOM     24  H   UNL     1       5.304   1.333  19.375  0.00  0.00    +0.000 HD
ENDBRANCH  22  23
ENDBRANCH  20  22
ENDBRANCH  19  20
ENDBRANCH   1  19
BRANCH   6  25
ATOM     25  O   UNL     1       2.300   5.925  19.011  0.00  0.00    +0.000 OA
BRANCH  25  26
ATOM     26  C   UNL     1       2.103   7.319  19.179  0.00  0.00    +0.000 C 
BRANCH  26  27
ATOM     27  C   UNL     1       1.787   7.669  20.629  0.00  0.00    +0.000 C 
BRANCH  27  28
ATOM     28  C   UNL     1       1.077   9.023  20.634  0.00  0.00    +0.000 C 
BRANCH  28  29
ATOM     29  C   UNL     1       0.090   9.172  21.781  0.00  0.00    +0.000 C 
BRANCH  29  30
ATOM     30  C   UNL     1      -0.702  10.470  21.622  0.00  0.00    +0.000 C 
BRANCH  30  31
ATOM     31  C   UNL     1      -1.109  11.033  22.982  0.00  0.00    +0.000 C 
BRANCH  31  32
ATOM     32  C   UNL     1      -1.825  12.353  22.838  0.00  0.00    +0.000 A 
ATOM     33  C   UNL     1      -1.247  13.527  23.346  0.00  0.00    +0.000 A 
ATOM     34  C   UNL     1      -1.917  14.745  23.238  0.00  0.00    +0.000 A 
ATOM     35  C   UNL     1      -3.164  14.790  22.629  0.00  0.00    +0.000 A 
ATOM     36  F   UNL     1      -3.808  15.960  22.527  0.00  0.00    +0.000 F 
ATOM     37  C   UNL     1      -3.756  13.637  22.125  0.00  0.00    +0.000 A 
ATOM     38  C   UNL     1      -3.087  12.417  22.232  0.00  0.00    +0.000 A 
ENDBRANCH  31  32
ENDBRANCH  30  31
ENDBRANCH  29  30
ENDBRANCH  28  29
ENDBRANCH  27  28
ENDBRANCH  26  27
ENDBRANCH  25  26
ENDBRANCH   6  25
TORSDOF 16
ENDMDL
MODEL 5
REMARK VINA RESULT:      -8.2      1.654      2.077
REMARK  Name = 
REMARK  16 active torsions:
REMARK  status: ('A' for Active; 'I' for Inactive)
REMARK    1  A    between atoms: C_2  and  O_3
REMARK    2  A    between atoms: C_2  and  C_4
REMARK    3  A    between atoms: C_4  and  C_5
REMARK    4  A    between atoms: C_5  and  C_6
REMARK    5  A    between atoms: C_8  and  C_9
REMARK    6  A    between atoms: C_9  and  C_11
REMARK    7  A    between atoms: C_15  and  C_16
REMARK    8  A    between atoms: C_16  and  O_18
REMARK    9  A    between atoms: C_22  and  O_23
REMARK   10  A    between atoms: O_23  and  C_24
REMARK   11  A    between atoms: C_24  and  C_25
REMARK   12  A    between atoms: C_25  and  C_26
REMARK   13  A    between atoms: C_26  and  C_27
REMARK   14  A    between atoms: C_27  and  C_28
REMARK   15  A    between atoms: C_28  and  C_29
REMARK   16  A    between atoms: C_29  and  C_30
REMARK                            x       y       z     vdW  Elec       q    Type
REMARK                         _______ _______ _______ _____ _____    ______ ____
ROOT
ATOM      1  C   UNL     1       3.075   5.414  17.953  0.00  0.00    +0.000 A 
ATOM      2  C   UNL     1       4.136   4.757  17.302  0.00  0.00    +0.000 A 
ATOM      3  C   UNL     1       5.146   5.462  16.638  0.00  0.00    +0.000 A 
ATOM      4  C   UNL     1       5.058   6.848  16.519  0.00  0.00    +0.000 A 
ATOM      5  C   UNL     1       4.024   7.522  17.162  0.00  0.00    +0.000 A 
ATOM      6  C   UNL     1       3.040   6.830  17.887  0.00  0.00    +0.000 A 
ENDROOT
BRANCH   3   7
ATOM      7  C   UNL     1       6.317   4.694  16.150  0.00  0.00    +0.000 C 
ATOM      8  O   UNL     1       7.109   4.211  16.955  0.00  0.00    +0.000 OA
BRANCH   7   9
ATOM      9  C   UNL     1       6.597   4.556  14.696  0.00  0.00    +0.000 A 
ATOM     10  C   UNL     1       7.605   5.304  14.071  0.00  0.00    +0.000 A 
ATOM     11  C   UNL     1       7.817   5.185  12.699  0.00  0.00    +0.000 A 
ATOM     12  C   UNL     1       7.063   4.278  11.962  0.00  0.00    +0.000 A 
ATOM     13  C   UNL     1       6.097   3.479  12.587  0.00  0.00    +0.000 A 
ATOM     14  C   UNL     1       5.852   3.627  13.957  0.00  0.00    +0.000 A 
BRANCH  13  15
ATOM     15  C   UNL     1       5.334   2.533  11.733  0.00  0.00    +0.000 C 
ATOM     16  O   UNL     1       4.295   2.845  11.178  0.00  0.00    +0.000 OA
BRANCH  15  17
ATOM     17  O   UNL     1       5.913   1.325  11.587  0.00  0.00    +0.000 OA
ATOM     18  H   UNL     1       5.428   0.692  11.029  0.00  0.00    +0.000 HD
ENDBRANCH  15  17
ENDBRANCH  13  15
ENDBRANCH   7   9
ENDBRANCH   3   7
BRANCH   1  19
ATOM     19  C   UNL     1       2.066   4.592  18.728  0.00  0.00    +0.000 C 
BRANCH  19  20
ATOM     20  C   UNL     1       2.557   3.514  19.700  0.00  0.00    +0.000 C 
BRANCH  20  22
ATOM     21  O   UNL     1       2.265   3.242  22.099  0.00  0.00    +0.000 OA
ATOM     22  C   UNL     1       2.360   3.975  21.126  0.00  0.00    +0.000 C 
BRANCH  22  23
ATOM     23  O   UNL     1       2.300   5.322  21.231  0.00  0.00    +0.000 OA
ATOM     24  H   UNL     1       1.799   5.755  20.514  0.00  0.00    +0.000 HD
ENDBRANCH  22  23
ENDBRANCH  20  22
ENDBRANCH  19  20
ENDBRANCH   1  19
BRANCH   6  25
ATOM     25  O   UNL     1       2.190   7.689  18.543  0.00  0.00    +0.000 OA
BRANCH  25  26
ATOM     26  C   UNL     1       2.150   9.028  18.078  0.00  0.00    +0.000 C 
BRANCH  26  27
ATOM     27  C   UNL     1       0.717   9.524  17.926  0.00  0.00    +0.000 C 
BRANCH  27  28
ATOM     28  C   UNL     1       0.179   9.819  19.326  0.00  0.00    +0.000 C 
BRANCH  28  29
ATOM     29  C   UNL     1      -0.667  11.081  19.384  0.00  0.00    +0.000 C 
BRANCH  29  30
ATOM     30  C   UNL     1      -0.381  11.842  20.678  0.00  0.00    +0.000 C 
BRANCH  30  31
ATOM     31  C   UNL     1       1.114  12.105  20.841  0.00  0.00    +0.000 C 
BRANCH  31  32
ATOM     32  C   UNL     1       1.573  13.237  19.956  0.00  0.00    +0.000 A 
ATOM     33  C   UNL     1       1.044  14.526  20.128  0.00  0.00    +0.000 A 
ATOM     34  C   UNL     1       1.447  15.569  19.295  0.00  0.00    +0.000 A 
ATOM     35  C   UNL     1       2.371  15.325  18.288  0.00  0.00    +0.000 A 
ATOM     36  F   UNL     1       2.756  16.326  17.487  0.00  0.00    +0.000 F 
ATOM     37  C   UNL     1       2.902  14.054  18.098  0.00  0.00    +0.000 A 
ATOM     38  C   UNL     1       2.501  13.008  18.931  0.00  0.00    +0.000 A 
ENDBRANCH  31  32
ENDBRANCH  30  31
ENDBRANCH  29  30
ENDBRANCH  28  29
ENDBRANCH  27  28
ENDBRANCH  26  27
ENDBRANCH  25  26
ENDBRANCH   6  25
TORSDOF 16
ENDMDL
MODEL 6
REMARK VINA RESULT:      -8.2      3.061      3.758
REMARK  Name = 
REMARK  16 active torsions:
REMARK  status: ('A' for Active; 'I' for Inactive)
REMARK    1  A    between atoms: C_2  and  O_3
REMARK    2  A    between atoms: C_2  and  C_4
REMARK    3  A    between atoms: C_4  and  C_5
REMARK    4  A    between atoms: C_5  and  C_6
REMARK    5  A    between atoms: C_8  and  C_9
REMARK    6  A    between atoms: C_9  and  C_11
REMARK    7  A    between atoms: C_15  and  C_16
REMARK    8  A    between atoms: C_16  and  O_18
REMARK    9  A    between atoms: C_22  and  O_23
REMARK   10  A    between atoms: O_23  and  C_24
REMARK   11  A    between atoms: C_24  and  C_25
REMARK   12  A    between atoms: C_25  and  C_26
REMARK   13  A    between atoms: C_26  and  C_27
REMARK   14  A    between atoms: C_27  and  C_28
REMARK   15  A    between atoms: C_28  and  C_29
REMARK   16  A    between atoms: C_29  and  C_30
REMARK                            x       y       z     vdW  Elec       q    Type
REMARK                         _______ _______ _______ _____ _____    ______ ____
ROOT
ATOM      1  C   UNL     1       3.276   5.262  17.596  0.00  0.00    +0.000 A 
ATOM      2  C   UNL     1       4.384   4.755  16.892  0.00  0.00    +0.000 A 
ATOM      3  C   UNL     1       5.488   5.556  16.576  0.00  0.00    +0.000 A 
ATOM      4  C   UNL     1       5.458   6.919  16.865  0.00  0.00    +0.000 A 
ATOM      5  C   UNL     1       4.379   7.442  17.569  0.00  0.00    +0.000 A 
ATOM      6  C   UNL     1       3.294   6.635  17.950  0.00  0.00    +0.000 A 
ENDROOT
BRANCH   3   7
ATOM      7  C   UNL     1       6.683   4.888  16.005  0.00  0.00    +0.000 C 
ATOM      8  O   UNL     1       7.594   4.529  16.747  0.00  0.00    +0.000 OA
BRANCH   7   9
ATOM      9  C   UNL     1       6.839   4.709  14.538  0.00  0.00    +0.000 A 
ATOM     10  C   UNL     1       7.791   5.436  13.809  0.00  0.00    +0.000 A 
ATOM     11  C   UNL     1       7.887   5.278  12.427  0.00  0.00    +0.000 A 
ATOM     12  C   UNL     1       7.072   4.354  11.783  0.00  0.00    +0.000 A 
ATOM     13  C   UNL     1       6.162   3.575  12.510  0.00  0.00    +0.000 A 
ATOM     14  C   UNL     1       6.034   3.762  13.891  0.00  0.00    +0.000 A 
BRANCH  13  15
ATOM     15  C   UNL     1       5.329   2.608  11.750  0.00  0.00    +0.000 C 
ATOM     16  O   UNL     1       4.228   2.894  11.314  0.00  0.00    +0.000 OA
BRANCH  15  17
ATOM     17  O   UNL     1       5.915   1.412  11.543  0.00  0.00    +0.000 OA
ATOM     18  H   UNL     1       5.699   0.979  10.699  0.00  0.00    +0.000 HD
ENDBRANCH  15  17
ENDBRANCH  13  15
ENDBRANCH   7   9
ENDBRANCH   3   7
BRANCH   1  19
ATOM     19  C   UNL     1       2.157   4.317  17.984  0.00  0.00    +0.000 C 
BRANCH  19  20
ATOM     20  C   UNL     1       2.175   2.873  17.471  0.00  0.00    +0.000 C 
BRANCH  20  22
ATOM     21  O   UNL     1       3.729   1.822  19.018  0.00  0.00    +0.000 OA
ATOM     22  C   UNL     1       2.594   1.936  18.580  0.00  0.00    +0.000 C 
BRANCH  22  23
ATOM     23  O   UNL     1       1.560   1.210  19.063  0.00  0.00    +0.000 OA
ATOM     24  H   UNL     1       1.825   0.368  19.481  0.00  0.00    +0.000 HD
ENDBRANCH  22  23
ENDBRANCH  20  22
ENDBRANCH  19  20
ENDBRANCH   1  19
BRANCH   6  25
ATOM     25  O   UNL     1       2.401   7.319  18.740  0.00  0.00    +0.000 OA
BRANCH  25  26
ATOM     26  C   UNL     1       2.205   8.692  18.443  0.00  0.00    +0.000 C 
BRANCH  26  27
ATOM     27  C   UNL     1       0.898   8.921  17.693  0.00  0.00    +0.000 C 
BRANCH  27  28
ATOM     28  C   UNL     1       0.117   9.999  18.443  0.00  0.00    +0.000 C 
BRANCH  28  29
ATOM     29  C   UNL     1      -0.911  10.703  17.573  0.00  0.00    +0.000 C 
BRANCH  29  30
ATOM     30  C   UNL     1      -2.321  10.391  18.075  0.00  0.00    +0.000 C 
BRANCH  30  31
ATOM     31  C   UNL     1      -3.343  11.353  17.475  0.00  0.00    +0.000 C 
BRANCH  31  32
ATOM     32  C   UNL     1      -4.554  11.494  18.363  0.00  0.00    +0.000 A 
ATOM     33  C   UNL     1      -4.481  12.256  19.539  0.00  0.00    +0.000 A 
ATOM     34  C   UNL     1      -5.591  12.367  20.375  0.00  0.00    +0.000 A 
ATOM     35  C   UNL     1      -6.770  11.715  20.041  0.00  0.00    +0.000 A 
ATOM     36  F   UNL     1      -7.835  11.821  20.846  0.00  0.00    +0.000 F 
ATOM     37  C   UNL     1      -6.861  10.951  18.883  0.00  0.00    +0.000 A 
ATOM     38  C   UNL     1      -5.751  10.838  18.044  0.00  0.00    +0.000 A 
ENDBRANCH  31  32
ENDBRANCH  30  31
ENDBRANCH  29  30
ENDBRANCH  28  29
ENDBRANCH  27  28
ENDBRANCH  26  27
ENDBRANCH  25  26
ENDBRANCH   6  25
TORSDOF 16
ENDMDL
MODEL 7
REMARK VINA RESULT:      -8.2      2.173      2.815
REMARK  Name = 
REMARK  16 active torsions:
REMARK  status: ('A' for Active; 'I' for Inactive)
REMARK    1  A    between atoms: C_2  and  O_3
REMARK    2  A    between atoms: C_2  and  C_4
REMARK    3  A    between atoms: C_4  and  C_5
REMARK    4  A    between atoms: C_5  and  C_6
REMARK    5  A    between atoms: C_8  and  C_9
REMARK    6  A    between atoms: C_9  and  C_11
REMARK    7  A    between atoms: C_15  and  C_16
REMARK    8  A    between atoms: C_16  and  O_18
REMARK    9  A    between atoms: C_22  and  O_23
REMARK   10  A    between atoms: O_23  and  C_24
REMARK   11  A    between atoms: C_24  and  C_25
REMARK   12  A    between atoms: C_25  and  C_26
REMARK   13  A    between atoms: C_26  and  C_27
REMARK   14  A    between atoms: C_27  and  C_28
REMARK   15  A    between atoms: C_28  and  C_29
REMARK   16  A    between atoms: C_29  and  C_30
REMARK                            x       y       z     vdW  Elec       q    Type
REMARK                         _______ _______ _______ _____ _____    ______ ____
ROOT
ATOM      1  C   UNL     1       3.406   4.180  17.602  0.00  0.00    +0.000 A 
ATOM      2  C   UNL     1       4.576   3.990  16.843  0.00  0.00    +0.000 A 
ATOM      3  C   UNL     1       5.448   5.045  16.551  0.00  0.00    +0.000 A 
ATOM      4  C   UNL     1       5.109   6.344  16.925  0.00  0.00    +0.000 A 
ATOM      5  C   UNL     1       3.963   6.558  17.684  0.00  0.00    +0.000 A 
ATOM      6  C   UNL     1       3.114   5.497  18.040  0.00  0.00    +0.000 A 
ENDROOT
BRANCH   3   7
ATOM      7  C   UNL     1       6.745   4.712  15.913  0.00  0.00    +0.000 C 
ATOM      8  O   UNL     1       7.755   4.604  16.604  0.00  0.00    +0.000 OA
BRANCH   7   9
ATOM      9  C   UNL     1       6.866   4.578  14.438  0.00  0.00    +0.000 A 
ATOM     10  C   UNL     1       7.780   5.350  13.706  0.00  0.00    +0.000 A 
ATOM     11  C   UNL     1       7.842   5.233  12.318  0.00  0.00    +0.000 A 
ATOM     12  C   UNL     1       7.034   4.306  11.669  0.00  0.00    +0.000 A 
ATOM     13  C   UNL     1       6.164   3.484  12.396  0.00  0.00    +0.000 A 
ATOM     14  C   UNL     1       6.068   3.629  13.785  0.00  0.00    +0.000 A 
BRANCH  13  15
ATOM     15  C   UNL     1       5.336   2.517  11.631  0.00  0.00    +0.000 C 
ATOM     16  O   UNL     1       4.241   2.806  11.182  0.00  0.00    +0.000 OA
BRANCH  15  17
ATOM     17  O   UNL     1       5.919   1.318  11.437  0.00  0.00    +0.000 OA
ATOM     18  H   UNL     1       5.393   0.545  11.709  0.00  0.00    +0.000 HD
ENDBRANCH  15  17
ENDBRANCH  13  15
ENDBRANCH   7   9
ENDBRANCH   3   7
BRANCH   1  19
ATOM     19  C   UNL     1       2.556   2.977  17.956  0.00  0.00    +0.000 C 
BRANCH  19  20
ATOM     20  C   UNL     1       2.415   2.557  19.423  0.00  0.00    +0.000 C 
BRANCH  20  22
ATOM     21  O   UNL     1       0.005   2.655  19.121  0.00  0.00    +0.000 OA
ATOM     22  C   UNL     1       0.975   2.688  19.863  0.00  0.00    +0.000 C 
BRANCH  22  23
ATOM     23  O   UNL     1       0.855   2.849  21.200  0.00  0.00    +0.000 OA
ATOM     24  H   UNL     1       0.712   2.017  21.690  0.00  0.00    +0.000 HD
ENDBRANCH  22  23
ENDBRANCH  20  22
ENDBRANCH  19  20
ENDBRANCH   1  19
BRANCH   6  25
ATOM     25  O   UNL     1       2.115   5.905  18.891  0.00  0.00    +0.000 OA
BRANCH  25  26
ATOM     26  C   UNL     1       2.378   7.053  19.682  0.00  0.00    +0.000 C 
BRANCH  26  27
ATOM     27  C   UNL     1       1.838   8.319  19.028  0.00  0.00    +0.000 C 
BRANCH  27  28
ATOM     28  C   UNL     1       0.838   8.950  19.996  0.00  0.00    +0.000 C 
BRANCH  28  29
ATOM     29  C   UNL     1       1.069  10.438  20.204  0.00  0.00    +0.000 C 
BRANCH  29  30
ATOM     30  C   UNL     1       0.876  11.186  18.885  0.00  0.00    +0.000 C 
BRANCH  30  31
ATOM     31  C   UNL     1      -0.176  12.284  19.027  0.00  0.00    +0.000 C 
BRANCH  31  32
ATOM     32  C   UNL     1      -1.550  11.780  18.660  0.00  0.00    +0.000 A 
ATOM     33  C   UNL     1      -2.689  12.343  19.255  0.00  0.00    +0.000 A 
ATOM     34  C   UNL     1      -3.959  11.863  18.939  0.00  0.00    +0.000 A 
ATOM     35  C   UNL     1      -4.091  10.818  18.033  0.00  0.00    +0.000 A 
ATOM     36  F   UNL     1      -5.311  10.356  17.730  0.00  0.00    +0.000 F 
ATOM     37  C   UNL     1      -2.974  10.244  17.437  0.00  0.00    +0.000 A 
ATOM     38  C   UNL     1      -1.702  10.723  17.753  0.00  0.00    +0.000 A 
ENDBRANCH  31  32
ENDBRANCH  30  31
ENDBRANCH  29  30
ENDBRANCH  28  29
ENDBRANCH  27  28
ENDBRANCH  26  27
ENDBRANCH  25  26
ENDBRANCH   6  25
TORSDOF 16
ENDMDL
MODEL 8
REMARK VINA RESULT:      -8.1      3.871      6.789
REMARK  Name = 
REMARK  16 active torsions:
REMARK  status: ('A' for Active; 'I' for Inactive)
REMARK    1  A    between atoms: C_2  and  O_3
REMARK    2  A    between atoms: C_2  and  C_4
REMARK    3  A    between atoms: C_4  and  C_5
REMARK    4  A    between atoms: C_5  and  C_6
REMARK    5  A    between atoms: C_8  and  C_9
REMARK    6  A    between atoms: C_9  and  C_11
REMARK    7  A    between atoms: C_15  and  C_16
REMARK    8  A    between atoms: C_16  and  O_18
REMARK    9  A    between atoms: C_22  and  O_23
REMARK   10  A    between atoms: O_23  and  C_24
REMARK   11  A    between atoms: C_24  and  C_25
REMARK   12  A    between atoms: C_25  and  C_26
REMARK   13  A    between atoms: C_26  and  C_27
REMARK   14  A    between atoms: C_27  and  C_28
REMARK   15  A    between atoms: C_28  and  C_29
REMARK   16  A    between atoms: C_29  and  C_30
REMARK                            x       y       z     vdW  Elec       q    Type
REMARK                         _______ _______ _______ _____ _____    ______ ____
ROOT
ATOM      1  C   UNL     1       1.531   8.294  20.153  0.00  0.00    +0.000 A 
ATOM      2  C   UNL     1       2.173   7.195  19.552  0.00  0.00    +0.000 A 
ATOM      3  C   UNL     1       2.714   7.270  18.262  0.00  0.00    +0.000 A 
ATOM      4  C   UNL     1       2.528   8.423  17.501  0.00  0.00    +0.000 A 
ATOM      5  C   UNL     1       1.905   9.526  18.077  0.00  0.00    +0.000 A 
ATOM      6  C   UNL     1       1.417   9.486  19.393  0.00  0.00    +0.000 A 
ENDROOT
BRANCH   3   7
ATOM      7  C   UNL     1       3.534   6.128  17.791  0.00  0.00    +0.000 C 
ATOM      8  O   UNL     1       4.483   6.328  17.036  0.00  0.00    +0.000 OA
BRANCH   7   9
ATOM      9  C   UNL     1       3.188   4.729  18.154  0.00  0.00    +0.000 A 
ATOM     10  C   UNL     1       2.415   3.923  17.306  0.00  0.00    +0.000 A 
ATOM     11  C   UNL     1       2.071   2.628  17.691  0.00  0.00    +0.000 A 
ATOM     12  C   UNL     1       2.545   2.120  18.896  0.00  0.00    +0.000 A 
ATOM     13  C   UNL     1       3.371   2.894  19.721  0.00  0.00    +0.000 A 
ATOM     14  C   UNL     1       3.683   4.208  19.357  0.00  0.00    +0.000 A 
BRANCH  13  15
ATOM     15  C   UNL     1       3.839   2.279  20.990  0.00  0.00    +0.000 C 
ATOM     16  O   UNL     1       4.949   1.793  21.111  0.00  0.00    +0.000 OA
BRANCH  15  17
ATOM     17  O   UNL     1       2.952   2.350  22.002  0.00  0.00    +0.000 OA
ATOM     18  H   UNL     1       3.330   2.299  22.898  0.00  0.00    +0.000 HD
ENDBRANCH  15  17
ENDBRANCH  13  15
ENDBRANCH   7   9
ENDBRANCH   3   7
BRANCH   1  19
ATOM     19  C   UNL     1       1.051   8.171  21.585  0.00  0.00    +0.000 C 
BRANCH  19  20
ATOM     20  C   UNL     1      -0.363   8.635  21.950  0.00  0.00    +0.000 C 
BRANCH  20  22
ATOM     21  O   UNL     1       0.486   9.665  23.982  0.00  0.00    +0.000 OA
ATOM     22  C   UNL     1      -0.300   9.673  23.046  0.00  0.00    +0.000 C 
BRANCH  22  23
ATOM     23  O   UNL     1      -1.225  10.647  22.891  0.00  0.00    +0.000 OA
ATOM     24  H   UNL     1      -2.119  10.401  23.197  0.00  0.00    +0.000 HD
ENDBRANCH  22  23
ENDBRANCH  20  22
ENDBRANCH  19  20
ENDBRANCH   1  19
BRANCH   6  25
ATOM     25  O   UNL     1       0.955  10.713  19.805  0.00  0.00    +0.000 OA
BRANCH  25  26
ATOM     26  C   UNL     1      -0.096  11.288  19.046  0.00  0.00    +0.000 C 
BRANCH  26  27
ATOM     27  C   UNL     1      -0.212  12.787  19.295  0.00  0.00    +0.000 C 
BRANCH  27  28
ATOM     28  C   UNL     1      -1.686  13.166  19.166  0.00  0.00    +0.000 C 
BRANCH  28  29
ATOM     29  C   UNL     1      -2.606  12.253  19.960  0.00  0.00    +0.000 C 
BRANCH  29  30
ATOM     30  C   UNL     1      -4.065  12.551  19.613  0.00  0.00    +0.000 C 
BRANCH  30  31
ATOM     31  C   UNL     1      -4.748  11.325  19.012  0.00  0.00    +0.000 C 
BRANCH  31  32
ATOM     32  C   UNL     1      -4.104  10.921  17.709  0.00  0.00    +0.000 A 
ATOM     33  C   UNL     1      -4.458  11.570  16.516  0.00  0.00    +0.000 A 
ATOM     34  C   UNL     1      -3.884  11.182  15.306  0.00  0.00    +0.000 A 
ATOM     35  C   UNL     1      -2.963  10.144  15.286  0.00  0.00    +0.000 A 
ATOM     36  F   UNL     1      -2.413   9.770  14.123  0.00  0.00    +0.000 F 
ATOM     37  C   UNL     1      -2.603   9.484  16.456  0.00  0.00    +0.000 A 
ATOM     38  C   UNL     1      -3.176   9.871  17.669  0.00  0.00    +0.000 A 
ENDBRANCH  31  32
ENDBRANCH  30  31
ENDBRANCH  29  30
ENDBRANCH  28  29
ENDBRANCH  27  28
ENDBRANCH  26  27
ENDBRANCH  25  26
ENDBRANCH   6  25
TORSDOF 16
ENDMDL
MODEL 9
REMARK VINA RESULT:      -8.1      2.180      2.782
REMARK  Name = 
REMARK  16 active torsions:
REMARK  status: ('A' for Active; 'I' for Inactive)
REMARK    1  A    between atoms: C_2  and  O_3
REMARK    2  A    between atoms: C_2  and  C_4
REMARK    3  A    between atoms: C_4  and  C_5
REMARK    4  A    between atoms: C_5  and  C_6
REMARK    5  A    between atoms: C_8  and  C_9
REMARK    6  A    between atoms: C_9  and  C_11
REMARK    7  A    between atoms: C_15  and  C_16
REMARK    8  A    between atoms: C_16  and  O_18
REMARK    9  A    between atoms: C_22  and  O_23
REMARK   10  A    between atoms: O_23  and  C_24
REMARK   11  A    between atoms: C_24  and  C_25
REMARK   12  A    between atoms: C_25  and  C_26
REMARK   13  A    between atoms: C_26  and  C_27
REMARK   14  A    between atoms: C_27  and  C_28
REMARK   15  A    between atoms: C_28  and  C_29
REMARK   16  A    between atoms: C_29  and  C_30
REMARK                            x       y       z     vdW  Elec       q    Type
REMARK                         _______ _______ _______ _____ _____    ______ ____
ROOT
ATOM      1  C   UNL     1       3.488   4.756  17.486  0.00  0.00    +0.000 A 
ATOM      2  C   UNL     1       4.610   4.434  16.698  0.00  0.00    +0.000 A 
ATOM      3  C   UNL     1       5.838   5.086  16.859  0.00  0.00    +0.000 A 
ATOM      4  C   UNL     1       5.941   6.157  17.745  0.00  0.00    +0.000 A 
ATOM      5  C   UNL     1       4.850   6.488  18.543  0.00  0.00    +0.000 A 
ATOM      6  C   UNL     1       3.631   5.798  18.438  0.00  0.00    +0.000 A 
ENDROOT
BRANCH   3   7
ATOM      7  C   UNL     1       7.006   4.549  16.119  0.00  0.00    +0.000 C 
ATOM      8  O   UNL     1       7.993   4.159  16.738  0.00  0.00    +0.000 OA
BRANCH   7   9
ATOM      9  C   UNL     1       7.040   4.541  14.633  0.00  0.00    +0.000 A 
ATOM     10  C   UNL     1       7.902   5.384  13.916  0.00  0.00    +0.000 A 
ATOM     11  C   UNL     1       7.882   5.384  12.523  0.00  0.00    +0.000 A 
ATOM     12  C   UNL     1       7.045   4.504  11.846  0.00  0.00    +0.000 A 
ATOM     13  C   UNL     1       6.226   3.613  12.552  0.00  0.00    +0.000 A 
ATOM     14  C   UNL     1       6.212   3.640  13.951  0.00  0.00    +0.000 A 
BRANCH  13  15
ATOM     15  C   UNL     1       5.362   2.703  11.757  0.00  0.00    +0.000 C 
ATOM     16  O   UNL     1       5.713   1.581  11.437  0.00  0.00    +0.000 OA
BRANCH  15  17
ATOM     17  O   UNL     1       4.145   3.205  11.467  0.00  0.00    +0.000 OA
ATOM     18  H   UNL     1       3.458   3.057  12.140  0.00  0.00    +0.000 HD
ENDBRANCH  15  17
ENDBRANCH  13  15
ENDBRANCH   7   9
ENDBRANCH   3   7
BRANCH   1  19
ATOM     19  C   UNL     1       2.218   3.948  17.321  0.00  0.00    +0.000 C 
BRANCH  19  20
ATOM     20  C   UNL     1       1.636   3.199  18.524  0.00  0.00    +0.000 C 
BRANCH  20  22
ATOM     21  O   UNL     1       3.202   2.506  20.251  0.00  0.00    +0.000 OA
ATOM     22  C   UNL     1       2.698   2.326  19.153  0.00  0.00    +0.000 C 
BRANCH  22  23
ATOM     23  O   UNL     1       3.051   1.288  18.360  0.00  0.00    +0.000 OA
ATOM     24  H   UNL     1       3.958   1.349  18.004  0.00  0.00    +0.000 HD
ENDBRANCH  22  23
ENDBRANCH  20  22
ENDBRANCH  19  20
ENDBRANCH   1  19
BRANCH   6  25
ATOM     25  O   UNL     1       2.732   6.198  19.397  0.00  0.00    +0.000 OA
BRANCH  25  26
ATOM     26  C   UNL     1       2.225   7.518  19.286  0.00  0.00    +0.000 C 
BRANCH  26  27
ATOM     27  C   UNL     1       2.322   8.036  17.856  0.00  0.00    +0.000 C 
BRANCH  27  28
ATOM     28  C   UNL     1       1.292   9.155  17.698  0.00  0.00    +0.000 C 
BRANCH  28  29
ATOM     29  C   UNL     1       1.636  10.396  18.505  0.00  0.00    +0.000 C 
BRANCH  29  30
ATOM     30  C   UNL     1       0.431  10.823  19.344  0.00  0.00    +0.000 C 
BRANCH  30  31
ATOM     31  C   UNL     1      -0.300  11.997  18.697  0.00  0.00    +0.000 C 
BRANCH  31  32
ATOM     32  C   UNL     1      -1.739  11.654  18.403  0.00  0.00    +0.000 A 
ATOM     33  C   UNL     1      -2.059  10.835  17.309  0.00  0.00    +0.000 A 
ATOM     34  C   UNL     1      -3.390  10.537  17.019  0.00  0.00    +0.000 A 
ATOM     35  C   UNL     1      -4.400  11.059  17.816  0.00  0.00    +0.000 A 
ATOM     36  F   UNL     1      -5.678  10.774  17.536  0.00  0.00    +0.000 F 
ATOM     37  C   UNL     1      -4.103  11.877  18.901  0.00  0.00    +0.000 A 
ATOM     38  C   UNL     1      -2.772  12.177  19.194  0.00  0.00    +0.000 A 
ENDBRANCH  31  32
ENDBRANCH  30  31
ENDBRANCH  29  30
ENDBRANCH  28  29
ENDBRANCH  27  28
ENDBRANCH  26  27
ENDBRANCH  25  26
ENDBRANCH   6  25
TORSDOF 16
ENDMDL
