MODEL 1
REMARK VINA RESULT:      -8.6      0.000      0.000
REMARK  Name = 
REMARK  5 active torsions:
REMARK  status: ('A' for Active; 'I' for Inactive)
REMARK    1  A    between atoms: C_1  and  C_2
REMARK    2  A    between atoms: C_11  and  C_12
REMARK    3  A    between atoms: C_14  and  O_15
REMARK    4  A    between atoms: O_15  and  C_16
REMARK    5  A    between atoms: C_19  and  O_20
REMARK                            x       y       z     vdW  Elec       q    Type
REMARK                         _______ _______ _______ _____ _____    ______ ____
ROOT
ATOM      1  C   UNL     1       1.516   8.937  19.601  0.00  0.00    +0.000 A 
ATOM      2  C   UNL     1       1.806   7.641  20.094  0.00  0.00    +0.000 A 
ATOM      3  C   UNL     1       2.588   6.732  19.373  0.00  0.00    +0.000 A 
ATOM      4  C   UNL     1       3.059   7.102  18.116  0.00  0.00    +0.000 A 
ATOM      5  C   UNL     1       2.806   8.379  17.619  0.00  0.00    +0.000 A 
ATOM      6  C   UNL     1       2.098   9.314  18.383  0.00  0.00    +0.000 A 
ATOM      7 CL   UNL     1       2.174  10.951  17.824  0.00  0.00    +0.000 Cl
ENDROOT
BRANCH   1  18
ATOM      8  C   UNL     1      -1.995  12.923  22.721  0.00  0.00    +0.000 C 
ATOM      9  C   UNL     1      -1.769  12.173  21.438  0.00  0.00    +0.000 A 
ATOM     10  N   UNL     1      -2.564  12.356  20.424  0.00  0.00    +0.000 NA
ATOM     11  C   UNL     1      -2.333  11.597  19.253  0.00  0.00    +0.000 A 
ATOM     12  C   UNL     1      -3.138  11.832  18.142  0.00  0.00    +0.000 A 
ATOM     13  C   UNL     1      -2.943  11.097  16.975  0.00  0.00    +0.000 A 
ATOM     14  C   UNL     1      -1.972  10.109  16.973  0.00  0.00    +0.000 A 
ATOM     15  N   UNL     1      -1.170   9.831  18.028  0.00  0.00    +0.000 NA
ATOM     16  C   UNL     1      -1.332  10.613  19.124  0.00  0.00    +0.000 A 
ATOM     17  N   UNL     1      -0.442  10.520  20.218  0.00  0.00    +0.000 N 
ATOM     18  C   UNL     1       0.735   9.822  20.470  0.00  0.00    +0.000 A 
ATOM     19  N   UNL     1       1.075  10.074  21.732  0.00  0.00    +0.000 NA
ATOM     20  N   UNL     1       0.204  10.977  22.277  0.00  0.00    +0.000 NA
ATOM     21  C   UNL     1      -0.679  11.252  21.349  0.00  0.00    +0.000 A 
ENDBRANCH   1  18
BRANCH   3  22
ATOM     22  O   UNL     1       2.821   5.524  19.979  0.00  0.00    +0.000 OA
BRANCH  22  23
ATOM     23  C   UNL     1       2.069   4.396  19.512  0.00  0.00    +0.000 C 
ATOM     24  C   UNL     1       2.997   3.184  19.381  0.00  0.00    +0.000 C 
ATOM     25  C   UNL     1       3.134   2.623  20.799  0.00  0.00    +0.000 C 
ATOM     26  C   UNL     1       1.998   3.252  21.602  0.00  0.00    +0.000 C 
ATOM     27  C   UNL     1       1.087   3.906  20.573  0.00  0.00    +0.000 C 
BRANCH  26  28
ATOM     28  O   UNL     1       1.292   2.300  22.377  0.00  0.00    +0.000 OA
ATOM     29  H   UNL     1       1.157   2.669  23.266  0.00  0.00    +0.000 HD
ENDBRANCH  26  28
ENDBRANCH  22  23
ENDBRANCH   3  22
TORSDOF 4
ENDMDL
MODEL 2
REMARK VINA RESULT:      -8.4      1.089      1.402
REMARK  Name = 
REMARK  5 active torsions:
REMARK  status: ('A' for Active; 'I' for Inactive)
REMARK    1  A    between atoms: C_1  and  C_2
REMARK    2  A    between atoms: C_11  and  C_12
REMARK    3  A    between atoms: C_14  and  O_15
REMARK    4  A    between atoms: O_15  and  C_16
REMARK    5  A    between atoms: C_19  and  O_20
REMARK                            x       y       z     vdW  Elec       q    Type
REMARK                         _______ _______ _______ _____ _____    ______ ____
ROOT
ATOM      1  C   UNL     1       1.610   8.619  19.669  0.00  0.00    +0.000 A 
ATOM      2  C   UNL     1       1.864   7.287  20.080  0.00  0.00    +0.000 A 
ATOM      3  C   UNL     1       2.578   6.389  19.279  0.00  0.00    +0.000 A 
ATOM      4  C   UNL     1       3.014   6.808  18.026  0.00  0.00    +0.000 A 
ATOM      5  C   UNL     1       2.795   8.120  17.608  0.00  0.00    +0.000 A 
ATOM      6  C   UNL     1       2.158   9.039  18.450  0.00  0.00    +0.000 A 
ATOM      7 CL   UNL     1       2.282  10.700  17.977  0.00  0.00    +0.000 Cl
ENDROOT
BRANCH   1  18
ATOM      8  C   UNL     1      -1.582  12.581  23.143  0.00  0.00    +0.000 C 
ATOM      9  C   UNL     1      -1.425  11.917  21.804  0.00  0.00    +0.000 A 
ATOM     10  N   UNL     1      -2.219  12.229  20.821  0.00  0.00    +0.000 NA
ATOM     11  C   UNL     1      -2.056  11.547  19.592  0.00  0.00    +0.000 A 
ATOM     12  C   UNL     1      -2.857  11.918  18.517  0.00  0.00    +0.000 A 
ATOM     13  C   UNL     1      -2.728  11.262  17.295  0.00  0.00    +0.000 A 
ATOM     14  C   UNL     1      -1.826  10.216  17.201  0.00  0.00    +0.000 A 
ATOM     15  N   UNL     1      -1.031   9.806  18.218  0.00  0.00    +0.000 NA
ATOM     16  C   UNL     1      -1.125  10.511  19.372  0.00  0.00    +0.000 A 
ATOM     17  N   UNL     1      -0.228  10.276  20.439  0.00  0.00    +0.000 N 
ATOM     18  C   UNL     1       0.902   9.485  20.617  0.00  0.00    +0.000 A 
ATOM     19  N   UNL     1       1.276   9.617  21.887  0.00  0.00    +0.000 NA
ATOM     20  N   UNL     1       0.475  10.533  22.514  0.00  0.00    +0.000 NA
ATOM     21  C   UNL     1      -0.400  10.935  21.626  0.00  0.00    +0.000 A 
ENDBRANCH   1  18
BRANCH   3  22
ATOM     22  O   UNL     1       2.783   5.141  19.809  0.00  0.00    +0.000 OA
BRANCH  22  23
ATOM     23  C   UNL     1       1.756   4.161  19.607  0.00  0.00    +0.000 C 
ATOM     24  C   UNL     1       1.426   4.070  18.113  0.00  0.00    +0.000 C 
ATOM     25  C   UNL     1       2.520   3.183  17.510  0.00  0.00    +0.000 C 
ATOM     26  C   UNL     1       3.180   2.481  18.694  0.00  0.00    +0.000 C 
ATOM     27  C   UNL     1       2.270   2.751  19.884  0.00  0.00    +0.000 C 
BRANCH  26  28
ATOM     28  O   UNL     1       3.338   1.091  18.478  0.00  0.00    +0.000 OA
ATOM     29  H   UNL     1       3.262   0.638  19.335  0.00  0.00    +0.000 HD
ENDBRANCH  26  28
ENDBRANCH  22  23
ENDBRANCH   3  22
TORSDOF 4
ENDMDL
MODEL 3
REMARK VINA RESULT:      -8.4      5.647      7.915
REMARK  Name = 
REMARK  5 active torsions:
REMARK  status: ('A' for Active; 'I' for Inactive)
REMARK    1  A    between atoms: C_1  and  C_2
REMARK    2  A    between atoms: C_11  and  C_12
REMARK    3  A    between atoms: C_14  and  O_15
REMARK    4  A    between atoms: O_15  and  C_16
REMARK    5  A    between atoms: C_19  and  O_20
REMARK                            x       y       z     vdW  Elec       q    Type
REMARK                         _______ _______ _______ _____ _____    ______ ____
ROOT
ATOM      1  C   UNL     1       5.477   4.266  17.348  0.00  0.00    +0.000 A 
ATOM      2  C   UNL     1       5.400   3.572  16.116  0.00  0.00    +0.000 A 
ATOM      3  C   UNL     1       6.245   3.874  15.042  0.00  0.00    +0.000 A 
ATOM      4  C   UNL     1       7.159   4.915  15.180  0.00  0.00    +0.000 A 
ATOM      5  C   UNL     1       7.268   5.598  16.390  0.00  0.00    +0.000 A 
ATOM      6  C   UNL     1       6.481   5.232  17.488  0.00  0.00    +0.000 A 
ATOM      7 CL   UNL     1       6.969   5.894  19.012  0.00  0.00    +0.000 Cl
ENDROOT
BRANCH   1  18
ATOM      8  C   UNL     1       1.646   3.020  22.009  0.00  0.00    +0.000 C 
ATOM      9  C   UNL     1       2.126   4.027  21.002  0.00  0.00    +0.000 A 
ATOM     10  N   UNL     1       1.634   5.233  20.997  0.00  0.00    +0.000 NA
ATOM     11  C   UNL     1       2.089   6.132  20.004  0.00  0.00    +0.000 A 
ATOM     12  C   UNL     1       1.617   7.441  20.031  0.00  0.00    +0.000 A 
ATOM     13  C   UNL     1       2.039   8.350  19.063  0.00  0.00    +0.000 A 
ATOM     14  C   UNL     1       2.889   7.904  18.065  0.00  0.00    +0.000 A 
ATOM     15  N   UNL     1       3.368   6.640  17.985  0.00  0.00    +0.000 NA
ATOM     16  C   UNL     1       3.001   5.797  18.982  0.00  0.00    +0.000 A 
ATOM     17  N   UNL     1       3.571   4.508  19.088  0.00  0.00    +0.000 N 
ATOM     18  C   UNL     1       4.580   3.822  18.420  0.00  0.00    +0.000 A 
ATOM     19  N   UNL     1       4.608   2.588  18.916  0.00  0.00    +0.000 NA
ATOM     20  N   UNL     1       3.709   2.479  19.941  0.00  0.00    +0.000 NA
ATOM     21  C   UNL     1       3.119   3.644  20.047  0.00  0.00    +0.000 A 
ENDBRANCH   1  18
BRANCH   3  22
ATOM     22  O   UNL     1       6.090   3.104  13.917  0.00  0.00    +0.000 OA
BRANCH  22  23
ATOM     23  C   UNL     1       6.326   3.732  12.650  0.00  0.00    +0.000 C 
ATOM     24  C   UNL     1       6.807   2.682  11.643  0.00  0.00    +0.000 C 
ATOM     25  C   UNL     1       5.539   1.973  11.160  0.00  0.00    +0.000 C 
ATOM     26  C   UNL     1       4.379   2.876  11.573  0.00  0.00    +0.000 C 
ATOM     27  C   UNL     1       5.021   4.188  12.003  0.00  0.00    +0.000 C 
BRANCH  26  28
ATOM     28  O   UNL     1       3.454   3.083  10.521  0.00  0.00    +0.000 OA
ATOM     29  H   UNL     1       3.237   4.030  10.486  0.00  0.00    +0.000 HD
ENDBRANCH  26  28
ENDBRANCH  22  23
ENDBRANCH   3  22
TORSDOF 4
ENDMDL
MODEL 4
REMARK VINA RESULT:      -8.4      0.915      1.069
REMARK  Name = 
REMARK  5 active torsions:
REMARK  status: ('A' for Active; 'I' for Inactive)
REMARK    1  A    between atoms: C_1  and  C_2
REMARK    2  A    between atoms: C_11  and  C_12
REMARK    3  A    between atoms: C_14  and  O_15
REMARK    4  A    between atoms: O_15  and  C_16
REMARK    5  A    between atoms: C_19  and  O_20
REMARK                            x       y       z     vdW  Elec       q    Type
REMARK                         _______ _______ _______ _____ _____    ______ ____
ROOT
ATOM      1  C   UNL     1       1.477   8.851  19.675  0.00  0.00    +0.000 A 
ATOM      2  C   UNL     1       1.720   7.558  20.200  0.00  0.00    +0.000 A 
ATOM      3  C   UNL     1       2.482   6.609  19.509  0.00  0.00    +0.000 A 
ATOM      4  C   UNL     1       2.980   6.936  18.251  0.00  0.00    +0.000 A 
ATOM      5  C   UNL     1       2.774   8.209  17.723  0.00  0.00    +0.000 A 
ATOM      6  C   UNL     1       2.086   9.182  18.457  0.00  0.00    +0.000 A 
ATOM      7 CL   UNL     1       2.222  10.804  17.864  0.00  0.00    +0.000 Cl
ENDROOT
BRANCH   1  18
ATOM      8  C   UNL     1      -1.944  13.013  22.661  0.00  0.00    +0.000 C 
ATOM      9  C   UNL     1      -1.726  12.228  21.398  0.00  0.00    +0.000 A 
ATOM     10  N   UNL     1      -2.503  12.413  20.370  0.00  0.00    +0.000 NA
ATOM     11  C   UNL     1      -2.281  11.621  19.219  0.00  0.00    +0.000 A 
ATOM     12  C   UNL     1      -3.065  11.857  18.093  0.00  0.00    +0.000 A 
ATOM     13  C   UNL     1      -2.879  11.090  16.945  0.00  0.00    +0.000 A 
ATOM     14  C   UNL     1      -1.939  10.073  16.977  0.00  0.00    +0.000 A 
ATOM     15  N   UNL     1      -1.160   9.794  18.048  0.00  0.00    +0.000 NA
ATOM     16  C   UNL     1      -1.310  10.604  19.125  0.00  0.00    +0.000 A 
ATOM     17  N   UNL     1      -0.437  10.507  20.232  0.00  0.00    +0.000 N 
ATOM     18  C   UNL     1       0.714   9.779  20.515  0.00  0.00    +0.000 A 
ATOM     19  N   UNL     1       1.047  10.047  21.775  0.00  0.00    +0.000 NA
ATOM     20  N   UNL     1       0.198  10.990  22.289  0.00  0.00    +0.000 NA
ATOM     21  C   UNL     1      -0.664  11.272  21.344  0.00  0.00    +0.000 A 
ENDBRANCH   1  18
BRANCH   3  22
ATOM     22  O   UNL     1       2.669   5.408  20.144  0.00  0.00    +0.000 OA
BRANCH  22  23
ATOM     23  C   UNL     1       3.113   4.302  19.346  0.00  0.00    +0.000 C 
ATOM     24  C   UNL     1       3.253   3.059  20.232  0.00  0.00    +0.000 C 
ATOM     25  C   UNL     1       1.834   2.503  20.379  0.00  0.00    +0.000 C 
ATOM     26  C   UNL     1       1.013   3.175  19.280  0.00  0.00    +0.000 C 
ATOM     27  C   UNL     1       2.030   3.850  18.370  0.00  0.00    +0.000 C 
BRANCH  26  28
ATOM     28  O   UNL     1       0.219   2.251  18.558  0.00  0.00    +0.000 OA
ATOM     29  H   UNL     1      -0.132   2.699  17.770  0.00  0.00    +0.000 HD
ENDBRANCH  26  28
ENDBRANCH  22  23
ENDBRANCH   3  22
TORSDOF 4
ENDMDL
MODEL 5
REMARK VINA RESULT:      -7.4      5.281      7.811
REMARK  Name = 
REMARK  5 active torsions:
REMARK  status: ('A' for Active; 'I' for Inactive)
REMARK    1  A    between atoms: C_1  and  C_2
REMARK    2  A    between atoms: C_11  and  C_12
REMARK    3  A    between atoms: C_14  and  O_15
REMARK    4  A    between atoms: O_15  and  C_16
REMARK    5  A    between atoms: C_19  and  O_20
REMARK                            x       y       z     vdW  Elec       q    Type
REMARK                         _______ _______ _______ _____ _____    ______ ____
ROOT
ATOM      1  C   UNL     1       5.310   5.569  17.143  0.00  0.00    +0.000 A 
ATOM      2  C   UNL     1       4.902   4.952  15.935  0.00  0.00    +0.000 A 
ATOM      3  C   UNL     1       5.775   4.168  15.172  0.00  0.00    +0.000 A 
ATOM      4  C   UNL     1       7.094   4.027  15.595  0.00  0.00    +0.000 A 
ATOM      5  C   UNL     1       7.514   4.607  16.791  0.00  0.00    +0.000 A 
ATOM      6  C   UNL     1       6.613   5.315  17.594  0.00  0.00    +0.000 A 
ATOM      7 CL   UNL     1       7.152   5.656  19.204  0.00  0.00    +0.000 Cl
ENDROOT
BRANCH   1  18
ATOM      8  C   UNL     1       0.787   8.151  20.432  0.00  0.00    +0.000 C 
ATOM      9  C   UNL     1       1.648   6.942  20.199  0.00  0.00    +0.000 A 
ATOM     10  N   UNL     1       1.464   5.862  20.903  0.00  0.00    +0.000 NA
ATOM     11  C   UNL     1       2.326   4.764  20.673  0.00  0.00    +0.000 A 
ATOM     12  C   UNL     1       2.097   3.585  21.374  0.00  0.00    +0.000 A 
ATOM     13  C   UNL     1       2.932   2.486  21.178  0.00  0.00    +0.000 A 
ATOM     14  C   UNL     1       4.005   2.621  20.313  0.00  0.00    +0.000 A 
ATOM     15  N   UNL     1       4.281   3.749  19.615  0.00  0.00    +0.000 NA
ATOM     16  C   UNL     1       3.409   4.775  19.770  0.00  0.00    +0.000 A 
ATOM     17  N   UNL     1       3.506   5.935  18.967  0.00  0.00    +0.000 N 
ATOM     18  C   UNL     1       4.293   6.318  17.886  0.00  0.00    +0.000 A 
ATOM     19  N   UNL     1       3.983   7.582  17.606  0.00  0.00    +0.000 NA
ATOM     20  N   UNL     1       2.962   8.000  18.416  0.00  0.00    +0.000 NA
ATOM     21  C   UNL     1       2.673   6.994  19.203  0.00  0.00    +0.000 A 
ENDBRANCH   1  18
BRANCH   3  22
ATOM     22  O   UNL     1       5.244   3.600  14.042  0.00  0.00    +0.000 OA
BRANCH  22  23
ATOM     23  C   UNL     1       5.765   4.033  12.779  0.00  0.00    +0.000 C 
ATOM     24  C   UNL     1       6.459   2.857  12.084  0.00  0.00    +0.000 C 
ATOM     25  C   UNL     1       5.331   2.041  11.444  0.00  0.00    +0.000 C 
ATOM     26  C   UNL     1       4.112   2.960  11.438  0.00  0.00    +0.000 C 
ATOM     27  C   UNL     1       4.643   4.342  11.791  0.00  0.00    +0.000 C 
BRANCH  26  28
ATOM     28  O   UNL     1       3.452   2.972  10.185  0.00  0.00    +0.000 OA
ATOM     29  H   UNL     1       3.764   3.744   9.683  0.00  0.00    +0.000 HD
ENDBRANCH  26  28
ENDBRANCH  22  23
ENDBRANCH   3  22
TORSDOF 4
ENDMDL
MODEL 6
REMARK VINA RESULT:      -7.3      1.432      1.884
REMARK  Name = 
REMARK  5 active torsions:
REMARK  status: ('A' for Active; 'I' for Inactive)
REMARK    1  A    between atoms: C_1  and  C_2
REMARK    2  A    between atoms: C_11  and  C_12
REMARK    3  A    between atoms: C_14  and  O_15
REMARK    4  A    between atoms: O_15  and  C_16
REMARK    5  A    between atoms: C_19  and  O_20
REMARK                            x       y       z     vdW  Elec       q    Type
REMARK                         _______ _______ _______ _____ _____    ______ ____
ROOT
ATOM      1  C   UNL     1       0.795  10.254  19.860  0.00  0.00    +0.000 A 
ATOM      2  C   UNL     1       1.106   8.900  20.140  0.00  0.00    +0.000 A 
ATOM      3  C   UNL     1       1.911   8.134  19.289  0.00  0.00    +0.000 A 
ATOM      4  C   UNL     1       2.385   8.711  18.114  0.00  0.00    +0.000 A 
ATOM      5  C   UNL     1       2.110  10.048  17.828  0.00  0.00    +0.000 A 
ATOM      6  C   UNL     1       1.379  10.833  18.726  0.00  0.00    +0.000 A 
ATOM      7 CL   UNL     1       1.429  12.541  18.441  0.00  0.00    +0.000 Cl
ENDROOT
BRANCH   1  18
ATOM      8  C   UNL     1      -2.909  13.519  23.543  0.00  0.00    +0.000 C 
ATOM      9  C   UNL     1      -2.717  12.863  22.205  0.00  0.00    +0.000 A 
ATOM     10  N   UNL     1      -3.639  12.957  21.290  0.00  0.00    +0.000 NA
ATOM     11  C   UNL     1      -3.427  12.289  20.062  0.00  0.00    +0.000 A 
ATOM     12  C   UNL     1      -4.377  12.436  19.056  0.00  0.00    +0.000 A 
ATOM     13  C   UNL     1      -4.205  11.785  17.837  0.00  0.00    +0.000 A 
ATOM     14  C   UNL     1      -3.101  10.963  17.679  0.00  0.00    +0.000 A 
ATOM     15  N   UNL     1      -2.154  10.774  18.628  0.00  0.00    +0.000 NA
ATOM     16  C   UNL     1      -2.309  11.479  19.776  0.00  0.00    +0.000 A 
ATOM     17  N   UNL     1      -1.298  11.485  20.764  0.00  0.00    +0.000 N 
ATOM     18  C   UNL     1      -0.009  10.972  20.854  0.00  0.00    +0.000 A 
ATOM     19  N   UNL     1       0.429  11.226  22.085  0.00  0.00    +0.000 NA
ATOM     20  N   UNL     1      -0.503  11.961  22.766  0.00  0.00    +0.000 NA
ATOM     21  C   UNL     1      -1.516  12.129  21.952  0.00  0.00    +0.000 A 
ENDBRANCH   1  18
BRANCH   3  22
ATOM     22  O   UNL     1       2.162   6.848  19.693  0.00  0.00    +0.000 OA
BRANCH  22  23
ATOM     23  C   UNL     1       2.990   6.040  18.846  0.00  0.00    +0.000 C 
ATOM     24  C   UNL     1       3.688   4.968  19.689  0.00  0.00    +0.000 C 
ATOM     25  C   UNL     1       2.647   3.862  19.883  0.00  0.00    +0.000 C 
ATOM     26  C   UNL     1       1.564   4.130  18.841  0.00  0.00    +0.000 C 
ATOM     27  C   UNL     1       2.151   5.179  17.906  0.00  0.00    +0.000 C 
BRANCH  26  28
ATOM     28  O   UNL     1       1.198   2.961  18.129  0.00  0.00    +0.000 OA
ATOM     29  H   UNL     1       1.820   2.845  17.391  0.00  0.00    +0.000 HD
ENDBRANCH  26  28
ENDBRANCH  22  23
ENDBRANCH   3  22
TORSDOF 4
ENDMDL
MODEL 7
REMARK VINA RESULT:      -7.3      4.118      8.335
REMARK  Name = 
REMARK  5 active torsions:
REMARK  status: ('A' for Active; 'I' for Inactive)
REMARK    1  A    between atoms: C_1  and  C_2
REMARK    2  A    between atoms: C_11  and  C_12
REMARK    3  A    between atoms: C_14  and  O_15
REMARK    4  A    between atoms: O_15  and  C_16
REMARK    5  A    between atoms: C_19  and  O_20
REMARK                            x       y       z     vdW  Elec       q    Type
REMARK                         _______ _______ _______ _____ _____    ______ ____
ROOT
ATOM      1  C   UNL     1       2.317   7.450  19.115  0.00  0.00    +0.000 A 
ATOM      2  C   UNL     1       1.865   8.750  18.780  0.00  0.00    +0.000 A 
ATOM      3  C   UNL     1       1.021   9.482  19.624  0.00  0.00    +0.000 A 
ATOM      4  C   UNL     1       0.583   8.894  20.807  0.00  0.00    +0.000 A 
ATOM      5  C   UNL     1       1.031   7.624  21.169  0.00  0.00    +0.000 A 
ATOM      6  C   UNL     1       1.944   6.935  20.364  0.00  0.00    +0.000 A 
ATOM      7 CL   UNL     1       2.699   5.558  21.097  0.00  0.00    +0.000 Cl
ENDROOT
BRANCH   1  18
ATOM      8  C   UNL     1       6.083   4.190  15.491  0.00  0.00    +0.000 C 
ATOM      9  C   UNL     1       4.887   4.185  16.400  0.00  0.00    +0.000 A 
ATOM     10  N   UNL     1       4.274   3.068  16.670  0.00  0.00    +0.000 NA
ATOM     11  C   UNL     1       3.129   3.121  17.499  0.00  0.00    +0.000 A 
ATOM     12  C   UNL     1       2.506   1.926  17.844  0.00  0.00    +0.000 A 
ATOM     13  C   UNL     1       1.371   1.942  18.652  0.00  0.00    +0.000 A 
ATOM     14  C   UNL     1       0.866   3.168  19.053  0.00  0.00    +0.000 A 
ATOM     15  N   UNL     1       1.425   4.360  18.736  0.00  0.00    +0.000 NA
ATOM     16  C   UNL     1       2.570   4.309  18.012  0.00  0.00    +0.000 A 
ATOM     17  N   UNL     1       3.324   5.479  17.766  0.00  0.00    +0.000 N 
ATOM     18  C   UNL     1       3.244   6.805  18.181  0.00  0.00    +0.000 A 
ATOM     19  N   UNL     1       4.198   7.474  17.538  0.00  0.00    +0.000 NA
ATOM     20  N   UNL     1       4.946   6.609  16.786  0.00  0.00    +0.000 NA
ATOM     21  C   UNL     1       4.426   5.419  16.957  0.00  0.00    +0.000 A 
ENDBRANCH   1  18
BRANCH   3  22
ATOM     22  O   UNL     1       0.686  10.741  19.197  0.00  0.00    +0.000 OA
BRANCH  22  23
ATOM     23  C   UNL     1      -0.474  11.348  19.781  0.00  0.00    +0.000 C 
ATOM     24  C   UNL     1      -0.414  12.865  19.572  0.00  0.00    +0.000 C 
ATOM     25  C   UNL     1      -0.900  13.097  18.138  0.00  0.00    +0.000 C 
ATOM     26  C   UNL     1      -1.590  11.800  17.723  0.00  0.00    +0.000 C 
ATOM     27  C   UNL     1      -1.739  10.992  19.004  0.00  0.00    +0.000 C 
BRANCH  26  28
ATOM     28  O   UNL     1      -2.849  12.028  17.116  0.00  0.00    +0.000 OA
ATOM     29  H   UNL     1      -2.960  12.986  16.992  0.00  0.00    +0.000 HD
ENDBRANCH  26  28
ENDBRANCH  22  23
ENDBRANCH   3  22
TORSDOF 4
ENDMDL
MODEL 8
REMARK VINA RESULT:      -7.3      0.956      1.053
REMARK  Name = 
REMARK  5 active torsions:
REMARK  status: ('A' for Active; 'I' for Inactive)
REMARK    1  A    between atoms: C_1  and  C_2
REMARK    2  A    between atoms: C_11  and  C_12
REMARK    3  A    between atoms: C_14  and  O_15
REMARK    4  A    between atoms: O_15  and  C_16
REMARK    5  A    between atoms: C_19  and  O_20
REMARK                            x       y       z     vdW  Elec       q    Type
REMARK                         _______ _______ _______ _____ _____    ______ ____
ROOT
ATOM      1  C   UNL     1       1.296   9.724  19.308  0.00  0.00    +0.000 A 
ATOM      2  C   UNL     1       1.439   8.367  19.685  0.00  0.00    +0.000 A 
ATOM      3  C   UNL     1       2.247   7.479  18.965  0.00  0.00    +0.000 A 
ATOM      4  C   UNL     1       2.894   7.938  17.821  0.00  0.00    +0.000 A 
ATOM      5  C   UNL     1       2.785   9.275  17.441  0.00  0.00    +0.000 A 
ATOM      6  C   UNL     1       2.048  10.178  18.215  0.00  0.00    +0.000 A 
ATOM      7 CL   UNL     1       2.297  11.853  17.853  0.00  0.00    +0.000 Cl
ENDROOT
BRANCH   1  18
ATOM      8  C   UNL     1      -2.481  13.475  22.408  0.00  0.00    +0.000 C 
ATOM      9  C   UNL     1      -2.255  12.648  21.174  0.00  0.00    +0.000 A 
ATOM     10  N   UNL     1      -3.146  12.630  20.225  0.00  0.00    +0.000 NA
ATOM     11  C   UNL     1      -2.905  11.805  19.102  0.00  0.00    +0.000 A 
ATOM     12  C   UNL     1      -3.820  11.828  18.054  0.00  0.00    +0.000 A 
ATOM     13  C   UNL     1      -3.617  11.022  16.936  0.00  0.00    +0.000 A 
ATOM     14  C   UNL     1      -2.520  10.176  16.924  0.00  0.00    +0.000 A 
ATOM     15  N   UNL     1      -1.606  10.105  17.921  0.00  0.00    +0.000 NA
ATOM     16  C   UNL     1      -1.789  10.955  18.961  0.00  0.00    +0.000 A 
ATOM     17  N   UNL     1      -0.810  11.082  19.973  0.00  0.00    +0.000 N 
ATOM     18  C   UNL     1       0.470  10.574  20.172  0.00  0.00    +0.000 A 
ATOM     19  N   UNL     1       0.871  10.982  21.373  0.00  0.00    +0.000 NA
ATOM     20  N   UNL     1      -0.072  11.808  21.921  0.00  0.00    +0.000 NA
ATOM     21  C   UNL     1      -1.056  11.877  21.059  0.00  0.00    +0.000 A 
ENDBRANCH   1  18
BRANCH   3  22
ATOM     22  O   UNL     1       2.325   6.201  19.458  0.00  0.00    +0.000 OA
BRANCH  22  23
ATOM     23  C   UNL     1       2.461   5.136  18.508  0.00  0.00    +0.000 C 
ATOM     24  C   UNL     1       3.800   4.424  18.728  0.00  0.00    +0.000 C 
ATOM     25  C   UNL     1       3.565   3.471  19.903  0.00  0.00    +0.000 C 
ATOM     26  C   UNL     1       2.049   3.365  20.050  0.00  0.00    +0.000 C 
ATOM     27  C   UNL     1       1.474   4.007  18.795  0.00  0.00    +0.000 C 
BRANCH  26  28
ATOM     28  O   UNL     1       1.612   2.024  20.182  0.00  0.00    +0.000 OA
ATOM     29  H   UNL     1       1.935   1.680  21.032  0.00  0.00    +0.000 HD
ENDBRANCH  26  28
ENDBRANCH  22  23
ENDBRANCH   3  22
TORSDOF 4
ENDMDL
MODEL 9
REMARK VINA RESULT:      -7.2      1.165      1.459
REMARK  Name = 
REMARK  5 active torsions:
REMARK  status: ('A' for Active; 'I' for Inactive)
REMARK    1  A    between atoms: C_1  and  C_2
REMARK    2  A    between atoms: C_11  and  C_12
REMARK    3  A    between atoms: C_14  and  O_15
REMARK    4  A    between atoms: O_15  and  C_16
REMARK    5  A    between atoms: C_19  and  O_20
REMARK                            x       y       z     vdW  Elec       q    Type
REMARK                         _______ _______ _______ _____ _____    ______ ____
ROOT
ATOM      1  C   UNL     1       1.344   9.364  19.259  0.00  0.00    +0.000 A 
ATOM      2  C   UNL     1       1.418   7.980  19.548  0.00  0.00    +0.000 A 
ATOM      3  C   UNL     1       2.188   7.102  18.776  0.00  0.00    +0.000 A 
ATOM      4  C   UNL     1       2.867   7.602  17.669  0.00  0.00    +0.000 A 
ATOM      5  C   UNL     1       2.827   8.964  17.377  0.00  0.00    +0.000 A 
ATOM      6  C   UNL     1       2.127   9.850  18.204  0.00  0.00    +0.000 A 
ATOM      7 CL   UNL     1       2.461  11.531  17.953  0.00  0.00    +0.000 Cl
ENDROOT
BRANCH   1  18
ATOM      8  C   UNL     1      -2.265  13.098  22.573  0.00  0.00    +0.000 C 
ATOM      9  C   UNL     1      -2.060  12.358  21.281  0.00  0.00    +0.000 A 
ATOM     10  N   UNL     1      -2.925  12.475  20.316  0.00  0.00    +0.000 NA
ATOM     11  C   UNL     1      -2.708  11.726  19.135  0.00  0.00    +0.000 A 
ATOM     12  C   UNL     1      -3.593  11.893  18.074  0.00  0.00    +0.000 A 
ATOM     13  C   UNL     1      -3.413  11.166  16.899  0.00  0.00    +0.000 A 
ATOM     14  C   UNL     1      -2.373  10.254  16.841  0.00  0.00    +0.000 A 
ATOM     15  N   UNL     1      -1.491  10.044  17.847  0.00  0.00    +0.000 NA
ATOM     16  C   UNL     1      -1.646  10.819  18.949  0.00  0.00    +0.000 A 
ATOM     17  N   UNL     1      -0.687  10.800  19.988  0.00  0.00    +0.000 N 
ATOM     18  C   UNL     1       0.552  10.195  20.171  0.00  0.00    +0.000 A 
ATOM     19  N   UNL     1       0.947  10.479  21.409  0.00  0.00    +0.000 NA
ATOM     20  N   UNL     1       0.045  11.319  22.003  0.00  0.00    +0.000 NA
ATOM     21  C   UNL     1      -0.910  11.521  21.129  0.00  0.00    +0.000 A 
ENDBRANCH   1  18
BRANCH   3  22
ATOM     22  O   UNL     1       2.199   5.792  19.184  0.00  0.00    +0.000 OA
BRANCH  22  23
ATOM     23  C   UNL     1       3.078   5.445  20.263  0.00  0.00    +0.000 C 
ATOM     24  C   UNL     1       2.479   4.276  21.051  0.00  0.00    +0.000 C 
ATOM     25  C   UNL     1       2.825   3.022  20.243  0.00  0.00    +0.000 C 
ATOM     26  C   UNL     1       3.924   3.449  19.272  0.00  0.00    +0.000 C 
ATOM     27  C   UNL     1       4.373   4.823  19.747  0.00  0.00    +0.000 C 
BRANCH  26  28
ATOM     28  O   UNL     1       5.008   2.538  19.250  0.00  0.00    +0.000 OA
ATOM     29  H   UNL     1       4.660   1.654  19.045  0.00  0.00    +0.000 HD
ENDBRANCH  26  28
ENDBRANCH  22  23
ENDBRANCH   3  22
TORSDOF 4
ENDMDL
