MODEL 1
REMARK VINA RESULT:      -6.7      0.000      0.000
REMARK  Name = 
REMARK  3 active torsions:
REMARK  status: ('A' for Active; 'I' for Inactive)
REMARK    1  A    between atoms: C_2  and  C_3
REMARK    2  A    between atoms: C_13  and  N_14
REMARK    3  A    between atoms: C_28  and  C_30
REMARK                            x       y       z     vdW  Elec       q    Type
REMARK                         _______ _______ _______ _____ _____    ______ ____
ROOT
ATOM      1  C   UNL     1       6.617  15.424  19.658  0.00  0.00    +0.000 A 
ATOM      2  C   UNL     1       7.030  15.636  18.348  0.00  0.00    +0.000 A 
ATOM      3  N   UNL     1       8.051  14.996  17.750  0.00  0.00    +0.000 NA
ATOM      4  C   UNL     1       8.761  14.143  18.487  0.00  0.00    +0.000 A 
ATOM      5  C   UNL     1       9.815  13.524  17.826  0.00  0.00    +0.000 A 
ATOM      6  C   UNL     1      10.676  12.645  18.472  0.00  0.00    +0.000 A 
ATOM      7  C   UNL     1      10.430  12.340  19.791  0.00  0.00    +0.000 A 
ATOM      8  F   UNL     1      11.247  11.506  20.448  0.00  0.00    +0.000 F 
ATOM      9  C   UNL     1       9.338  12.894  20.453  0.00  0.00    +0.000 A 
ATOM     10  C   UNL     1       8.486  13.862  19.851  0.00  0.00    +0.000 A 
ATOM     11  C   UNL     1       7.369  14.553  20.480  0.00  0.00    +0.000 A 
ENDROOT
BRANCH   1  13
ATOM     12  O   UNL     1       5.618  17.324  20.624  0.00  0.00    +0.000 OA
ATOM     13  C   UNL     1       5.437  16.248  20.064  0.00  0.00    +0.000 C 
ATOM     14  N   UNL     1       4.151  15.802  19.672  0.00  0.00    +0.000 N 
ATOM     15  C   UNL     1       2.973  16.583  20.109  0.00  0.00    +0.000 C 
ATOM     16  C   UNL     1       1.652  16.258  19.358  0.00  0.00    +0.000 C 
ATOM     17  N   UNL     1       1.504  14.838  19.007  0.00  0.00    +0.000 N 
ATOM     18  C   UNL     1       0.333  14.148  19.303  0.00  0.00    +0.000 C 
ATOM     19  O   UNL     1      -0.565  14.632  19.982  0.00  0.00    +0.000 OA
ATOM     20  C   UNL     1       2.694  14.263  18.394  0.00  0.00    +0.000 C 
ATOM     21  C   UNL     1       3.869  14.396  19.361  0.00  0.00    +0.000 C 
BRANCH  18  22
ATOM     22  C   UNL     1       0.171  12.758  18.751  0.00  0.00    +0.000 C 
ATOM     23  C   UNL     1      -0.649  11.715  19.478  0.00  0.00    +0.000 C 
ATOM     24  C   UNL     1      -1.165  12.308  18.200  0.00  0.00    +0.000 C 
ENDBRANCH  18  22
ENDBRANCH   1  13
BRANCH  11  25
ATOM     25  N   UNL     1       7.093  14.400  21.846  0.00  0.00    +0.000 N 
ATOM     26  C   UNL     1       5.920  13.690  22.360  0.00  0.00    +0.000 C 
ATOM     27  C   UNL     1       6.333  12.755  23.475  0.00  0.00    +0.000 C 
ATOM     28  C   UNL     1       7.175  13.430  24.565  0.00  0.00    +0.000 C 
ATOM     29  C   UNL     1       7.832  12.334  25.424  0.00  0.00    +0.000 C 
ATOM     30  C   UNL     1       7.390  12.622  26.834  0.00  0.00    +0.000 C 
ATOM     31  C   UNL     1       6.099  13.375  26.635  0.00  0.00    +0.000 C 
ATOM     32  O   UNL     1       6.280  14.154  25.445  0.00  0.00    +0.000 OA
ATOM     33  C   UNL     1       8.214  14.428  24.020  0.00  0.00    +0.000 C 
ATOM     34  C   UNL     1       7.714  15.272  22.844  0.00  0.00    +0.000 C 
ENDBRANCH  11  25
TORSDOF 3
ENDMDL
MODEL 2
REMARK VINA RESULT:      -6.7      2.729      6.736
REMARK  Name = 
REMARK  3 active torsions:
REMARK  status: ('A' for Active; 'I' for Inactive)
REMARK    1  A    between atoms: C_2  and  C_3
REMARK    2  A    between atoms: C_13  and  N_14
REMARK    3  A    between atoms: C_28  and  C_30
REMARK                            x       y       z     vdW  Elec       q    Type
REMARK                         _______ _______ _______ _____ _____    ______ ____
ROOT
ATOM      1  C   UNL     1       4.864  16.167  19.318  0.00  0.00    +0.000 A 
ATOM      2  C   UNL     1       4.171  16.166  18.114  0.00  0.00    +0.000 A 
ATOM      3  N   UNL     1       3.066  15.441  17.863  0.00  0.00    +0.000 NA
ATOM      4  C   UNL     1       2.642  14.611  18.814  0.00  0.00    +0.000 A 
ATOM      5  C   UNL     1       1.509  13.873  18.495  0.00  0.00    +0.000 A 
ATOM      6  C   UNL     1       0.973  12.931  19.366  0.00  0.00    +0.000 A 
ATOM      7  C   UNL     1       1.556  12.778  20.603  0.00  0.00    +0.000 A 
ATOM      8  F   UNL     1       1.073  11.871  21.462  0.00  0.00    +0.000 F 
ATOM      9  C   UNL     1       2.649  13.558  20.971  0.00  0.00    +0.000 A 
ATOM     10  C   UNL     1       3.277  14.470  20.076  0.00  0.00    +0.000 A 
ATOM     11  C   UNL     1       4.464  15.272  20.339  0.00  0.00    +0.000 A 
ENDROOT
BRANCH   1  13
ATOM     12  O   UNL     1       5.888  18.255  19.679  0.00  0.00    +0.000 OA
ATOM     13  C   UNL     1       6.043  17.086  19.340  0.00  0.00    +0.000 C 
ATOM     14  N   UNL     1       7.320  16.533  19.082  0.00  0.00    +0.000 N 
ATOM     15  C   UNL     1       8.487  17.440  19.053  0.00  0.00    +0.000 C 
ATOM     16  C   UNL     1       9.871  16.738  19.129  0.00  0.00    +0.000 C 
ATOM     17  N   UNL     1       9.921  15.451  18.418  0.00  0.00    +0.000 N 
ATOM     18  C   UNL     1      10.948  15.172  17.521  0.00  0.00    +0.000 C 
ATOM     19  O   UNL     1      11.769  16.013  17.175  0.00  0.00    +0.000 OA
ATOM     20  C   UNL     1       8.793  14.578  18.712  0.00  0.00    +0.000 C 
ATOM     21  C   UNL     1       7.497  15.288  18.324  0.00  0.00    +0.000 C 
BRANCH  18  22
ATOM     22  C   UNL     1      11.049  13.775  16.972  0.00  0.00    +0.000 C 
ATOM     23  C   UNL     1      12.331  13.264  16.354  0.00  0.00    +0.000 C 
ATOM     24  C   UNL     1      11.886  12.735  17.685  0.00  0.00    +0.000 C 
ENDBRANCH  18  22
ENDBRANCH   1  13
BRANCH  11  25
ATOM     25  N   UNL     1       5.199  15.120  21.522  0.00  0.00    +0.000 N 
ATOM     26  C   UNL     1       5.163  16.081  22.626  0.00  0.00    +0.000 C 
ATOM     27  C   UNL     1       5.007  15.349  23.941  0.00  0.00    +0.000 C 
ATOM     28  C   UNL     1       6.023  14.216  24.138  0.00  0.00    +0.000 C 
ATOM     29  C   UNL     1       5.544  13.328  25.302  0.00  0.00    +0.000 C 
ATOM     30  C   UNL     1       6.684  13.321  26.286  0.00  0.00    +0.000 C 
ATOM     31  C   UNL     1       7.400  14.612  25.980  0.00  0.00    +0.000 C 
ATOM     32  O   UNL     1       7.278  14.802  24.564  0.00  0.00    +0.000 OA
ATOM     33  C   UNL     1       6.292  13.392  22.865  0.00  0.00    +0.000 C 
ATOM     34  C   UNL     1       6.357  14.226  21.582  0.00  0.00    +0.000 C 
ENDBRANCH  11  25
TORSDOF 3
ENDMDL
MODEL 3
REMARK VINA RESULT:      -6.6      5.424      8.548
REMARK  Name = 
REMARK  3 active torsions:
REMARK  status: ('A' for Active; 'I' for Inactive)
REMARK    1  A    between atoms: C_2  and  C_3
REMARK    2  A    between atoms: C_13  and  N_14
REMARK    3  A    between atoms: C_28  and  C_30
REMARK                            x       y       z     vdW  Elec       q    Type
REMARK                         _______ _______ _______ _____ _____    ______ ____
ROOT
ATOM      1  C   UNL     1      -1.011  12.916  22.864  0.00  0.00    +0.000 A 
ATOM      2  C   UNL     1      -1.677  11.897  23.534  0.00  0.00    +0.000 A 
ATOM      3  N   UNL     1      -1.484  10.583  23.324  0.00  0.00    +0.000 NA
ATOM      4  C   UNL     1      -0.640  10.230  22.356  0.00  0.00    +0.000 A 
ATOM      5  C   UNL     1      -0.491   8.861  22.169  0.00  0.00    +0.000 A 
ATOM      6  C   UNL     1       0.317   8.337  21.167  0.00  0.00    +0.000 A 
ATOM      7  C   UNL     1       1.035   9.210  20.383  0.00  0.00    +0.000 A 
ATOM      8  F   UNL     1       1.815   8.741  19.401  0.00  0.00    +0.000 F 
ATOM      9  C   UNL     1       0.957  10.583  20.600  0.00  0.00    +0.000 A 
ATOM     10  C   UNL     1       0.076  11.160  21.557  0.00  0.00    +0.000 A 
ATOM     11  C   UNL     1      -0.134  12.580  21.806  0.00  0.00    +0.000 A 
ENDROOT
BRANCH   1  13
ATOM     12  O   UNL     1      -0.776  14.820  24.228  0.00  0.00    +0.000 OA
ATOM     13  C   UNL     1      -1.394  14.291  23.311  0.00  0.00    +0.000 C 
ATOM     14  N   UNL     1      -2.387  14.975  22.569  0.00  0.00    +0.000 N 
ATOM     15  C   UNL     1      -2.810  16.315  23.030  0.00  0.00    +0.000 C 
ATOM     16  C   UNL     1      -3.614  17.147  21.992  0.00  0.00    +0.000 C 
ATOM     17  N   UNL     1      -4.513  16.338  21.155  0.00  0.00    +0.000 N 
ATOM     18  C   UNL     1      -5.846  16.701  20.984  0.00  0.00    +0.000 C 
ATOM     19  O   UNL     1      -6.369  17.611  21.617  0.00  0.00    +0.000 OA
ATOM     20  C   UNL     1      -3.883  15.146  20.604  0.00  0.00    +0.000 C 
ATOM     21  C   UNL     1      -3.381  14.270  21.751  0.00  0.00    +0.000 C 
BRANCH  18  22
ATOM     22  C   UNL     1      -6.662  15.946  19.971  0.00  0.00    +0.000 C 
ATOM     23  C   UNL     1      -7.915  16.540  19.370  0.00  0.00    +0.000 C 
ATOM     24  C   UNL     1      -6.684  16.393  18.525  0.00  0.00    +0.000 C 
ENDBRANCH  18  22
ENDBRANCH   1  13
BRANCH  11  25
ATOM     25  N   UNL     1       0.463  13.558  20.998  0.00  0.00    +0.000 N 
ATOM     26  C   UNL     1       1.525  14.452  21.462  0.00  0.00    +0.000 C 
ATOM     27  C   UNL     1       2.631  14.513  20.431  0.00  0.00    +0.000 C 
ATOM     28  C   UNL     1       2.136  14.823  19.014  0.00  0.00    +0.000 C 
ATOM     29  C   UNL     1       3.266  14.498  18.019  0.00  0.00    +0.000 C 
ATOM     30  C   UNL     1       3.499  15.776  17.258  0.00  0.00    +0.000 C 
ATOM     31  C   UNL     1       3.016  16.833  18.218  0.00  0.00    +0.000 C 
ATOM     32  O   UNL     1       1.907  16.251  18.915  0.00  0.00    +0.000 OA
ATOM     33  C   UNL     1       0.824  14.106  18.641  0.00  0.00    +0.000 C 
ATOM     34  C   UNL     1      -0.196  14.037  19.782  0.00  0.00    +0.000 C 
ENDBRANCH  11  25
TORSDOF 3
ENDMDL
MODEL 4
REMARK VINA RESULT:      -6.5      7.324     10.635
REMARK  Name = 
REMARK  3 active torsions:
REMARK  status: ('A' for Active; 'I' for Inactive)
REMARK    1  A    between atoms: C_2  and  C_3
REMARK    2  A    between atoms: C_13  and  N_14
REMARK    3  A    between atoms: C_28  and  C_30
REMARK                            x       y       z     vdW  Elec       q    Type
REMARK                         _______ _______ _______ _____ _____    ______ ____
ROOT
ATOM      1  C   UNL     1      -2.578  12.249  18.778  0.00  0.00    +0.000 A 
ATOM      2  C   UNL     1      -3.223  11.512  17.792  0.00  0.00    +0.000 A 
ATOM      3  N   UNL     1      -4.523  11.168  17.816  0.00  0.00    +0.000 NA
ATOM      4  C   UNL     1      -5.230  11.499  18.895  0.00  0.00    +0.000 A 
ATOM      5  C   UNL     1      -6.562  11.102  18.876  0.00  0.00    +0.000 A 
ATOM      6  C   UNL     1      -7.416  11.333  19.949  0.00  0.00    +0.000 A 
ATOM      7  C   UNL     1      -6.931  12.030  21.031  0.00  0.00    +0.000 A 
ATOM      8  F   UNL     1      -7.722  12.259  22.087  0.00  0.00    +0.000 F 
ATOM      9  C   UNL     1      -5.620  12.499  21.042  0.00  0.00    +0.000 A 
ATOM     10  C   UNL     1      -4.693  12.209  20.001  0.00  0.00    +0.000 A 
ATOM     11  C   UNL     1      -3.288  12.587  19.955  0.00  0.00    +0.000 A 
ENDROOT
BRANCH   1  13
ATOM     12  O   UNL     1      -0.776  13.661  18.232  0.00  0.00    +0.000 OA
ATOM     13  C   UNL     1      -1.135  12.518  18.490  0.00  0.00    +0.000 C 
ATOM     14  N   UNL     1      -0.218  11.450  18.647  0.00  0.00    +0.000 N 
ATOM     15  C   UNL     1       1.203  11.691  18.318  0.00  0.00    +0.000 C 
ATOM     16  C   UNL     1       2.193  10.617  18.849  0.00  0.00    +0.000 C 
ATOM     17  N   UNL     1       1.653   9.249  18.823  0.00  0.00    +0.000 N 
ATOM     18  C   UNL     1       2.384   8.205  18.265  0.00  0.00    +0.000 C 
ATOM     19  O   UNL     1       3.430   8.384  17.653  0.00  0.00    +0.000 OA
ATOM     20  C   UNL     1       0.309   9.144  19.373  0.00  0.00    +0.000 C 
ATOM     21  C   UNL     1      -0.632  10.044  18.574  0.00  0.00    +0.000 C 
BRANCH  18  22
ATOM     22  C   UNL     1       1.863   6.804  18.439  0.00  0.00    +0.000 C 
ATOM     23  C   UNL     1       2.725   5.601  18.129  0.00  0.00    +0.000 C 
ATOM     24  C   UNL     1       2.390   5.927  19.554  0.00  0.00    +0.000 C 
ENDBRANCH  18  22
ENDBRANCH   1  13
BRANCH  11  25
ATOM     25  N   UNL     1      -2.662  13.205  21.047  0.00  0.00    +0.000 N 
ATOM     26  C   UNL     1      -2.377  14.640  21.110  0.00  0.00    +0.000 C 
ATOM     27  C   UNL     1      -2.789  15.187  22.458  0.00  0.00    +0.000 C 
ATOM     28  C   UNL     1      -2.229  14.391  23.643  0.00  0.00    +0.000 C 
ATOM     29  C   UNL     1      -2.997  14.801  24.914  0.00  0.00    +0.000 C 
ATOM     30  C   UNL     1      -1.939  15.271  25.877  0.00  0.00    +0.000 C 
ATOM     31  C   UNL     1      -0.819  15.700  24.964  0.00  0.00    +0.000 C 
ATOM     32  O   UNL     1      -0.853  14.797  23.852  0.00  0.00    +0.000 OA
ATOM     33  C   UNL     1      -2.246  12.865  23.433  0.00  0.00    +0.000 C 
ATOM     34  C   UNL     1      -1.884  12.426  22.011  0.00  0.00    +0.000 C 
ENDBRANCH  11  25
TORSDOF 3
ENDMDL
MODEL 5
REMARK VINA RESULT:      -6.5      2.798      5.885
REMARK  Name = 
REMARK  3 active torsions:
REMARK  status: ('A' for Active; 'I' for Inactive)
REMARK    1  A    between atoms: C_2  and  C_3
REMARK    2  A    between atoms: C_13  and  N_14
REMARK    3  A    between atoms: C_28  and  C_30
REMARK                            x       y       z     vdW  Elec       q    Type
REMARK                         _______ _______ _______ _____ _____    ______ ____
ROOT
ATOM      1  C   UNL     1       4.266  15.117  21.553  0.00  0.00    +0.000 A 
ATOM      2  C   UNL     1       5.134  14.288  22.254  0.00  0.00    +0.000 A 
ATOM      3  N   UNL     1       6.423  14.075  21.931  0.00  0.00    +0.000 NA
ATOM      4  C   UNL     1       6.884  14.646  20.820  0.00  0.00    +0.000 A 
ATOM      5  C   UNL     1       8.214  14.377  20.523  0.00  0.00    +0.000 A 
ATOM      6  C   UNL     1       8.826  14.862  19.373  0.00  0.00    +0.000 A 
ATOM      7  C   UNL     1       8.099  15.683  18.542  0.00  0.00    +0.000 A 
ATOM      8  F   UNL     1       8.653  16.158  17.419  0.00  0.00    +0.000 F 
ATOM      9  C   UNL     1       6.786  16.023  18.857  0.00  0.00    +0.000 A 
ATOM     10  C   UNL     1       6.099  15.478  19.978  0.00  0.00    +0.000 A 
ATOM     11  C   UNL     1       4.710  15.711  20.348  0.00  0.00    +0.000 A 
ENDROOT
BRANCH   1  13
ATOM     12  O   UNL     1       2.713  15.869  23.154  0.00  0.00    +0.000 OA
ATOM     13  C   UNL     1       2.895  15.199  22.143  0.00  0.00    +0.000 C 
ATOM     14  N   UNL     1       1.830  14.590  21.434  0.00  0.00    +0.000 N 
ATOM     15  C   UNL     1       0.479  14.622  22.032  0.00  0.00    +0.000 C 
ATOM     16  C   UNL     1      -0.681  14.271  21.059  0.00  0.00    +0.000 C 
ATOM     17  N   UNL     1      -0.335  13.233  20.076  0.00  0.00    +0.000 N 
ATOM     18  C   UNL     1      -1.169  12.137  19.873  0.00  0.00    +0.000 C 
ATOM     19  O   UNL     1      -2.142  11.908  20.582  0.00  0.00    +0.000 OA
ATOM     20  C   UNL     1       0.946  13.455  19.420  0.00  0.00    +0.000 C 
ATOM     21  C   UNL     1       2.048  13.498  20.477  0.00  0.00    +0.000 C 
BRANCH  18  22
ATOM     22  C   UNL     1      -0.859  11.214  18.727  0.00  0.00    +0.000 C 
ATOM     23  C   UNL     1      -1.811  10.109  18.327  0.00  0.00    +0.000 C 
ATOM     24  C   UNL     1      -1.647  11.307  17.438  0.00  0.00    +0.000 C 
ENDBRANCH  18  22
ENDBRANCH   1  13
BRANCH  11  25
ATOM     25  N   UNL     1       3.848  16.443  19.520  0.00  0.00    +0.000 N 
ATOM     26  C   UNL     1       3.664  16.164  18.094  0.00  0.00    +0.000 C 
ATOM     27  C   UNL     1       2.190  16.165  17.757  0.00  0.00    +0.000 C 
ATOM     28  C   UNL     1       1.448  17.415  18.243  0.00  0.00    +0.000 C 
ATOM     29  C   UNL     1      -0.067  17.141  18.177  0.00  0.00    +0.000 C 
ATOM     30  C   UNL     1      -0.626  18.235  17.306  0.00  0.00    +0.000 C 
ATOM     31  C   UNL     1       0.557  18.631  16.461  0.00  0.00    +0.000 C 
ATOM     32  O   UNL     1       1.707  18.490  17.306  0.00  0.00    +0.000 OA
ATOM     33  C   UNL     1       1.881  17.892  19.643  0.00  0.00    +0.000 C 
ATOM     34  C   UNL     1       3.385  17.778  19.904  0.00  0.00    +0.000 C 
ENDBRANCH  11  25
TORSDOF 3
ENDMDL
MODEL 6
REMARK VINA RESULT:      -6.4      1.201      1.277
REMARK  Name = 
REMARK  3 active torsions:
REMARK  status: ('A' for Active; 'I' for Inactive)
REMARK    1  A    between atoms: C_2  and  C_3
REMARK    2  A    between atoms: C_13  and  N_14
REMARK    3  A    between atoms: C_28  and  C_30
REMARK                            x       y       z     vdW  Elec       q    Type
REMARK                         _______ _______ _______ _____ _____    ______ ____
ROOT
ATOM      1  C   UNL     1       6.625  15.244  19.115  0.00  0.00    +0.000 A 
ATOM      2  C   UNL     1       6.838  14.889  17.788  0.00  0.00    +0.000 A 
ATOM      3  N   UNL     1       7.725  13.967  17.371  0.00  0.00    +0.000 NA
ATOM      4  C   UNL     1       8.503  13.399  18.290  0.00  0.00    +0.000 A 
ATOM      5  C   UNL     1       9.413  12.468  17.803  0.00  0.00    +0.000 A 
ATOM      6  C   UNL     1      10.326  11.825  18.632  0.00  0.00    +0.000 A 
ATOM      7  C   UNL     1      10.275  12.082  19.983  0.00  0.00    +0.000 A 
ATOM      8  F   UNL     1      11.147  11.490  20.809  0.00  0.00    +0.000 F 
ATOM      9  C   UNL     1       9.325  12.957  20.502  0.00  0.00    +0.000 A 
ATOM     10  C   UNL     1       8.432  13.698  19.677  0.00  0.00    +0.000 A 
ATOM     11  C   UNL     1       7.458  14.688  20.114  0.00  0.00    +0.000 A 
ENDROOT
BRANCH   1  13
ATOM     12  O   UNL     1       5.881  17.444  19.494  0.00  0.00    +0.000 OA
ATOM     13  C   UNL     1       5.560  16.276  19.304  0.00  0.00    +0.000 C 
ATOM     14  N   UNL     1       4.212  15.876  19.134  0.00  0.00    +0.000 N 
ATOM     15  C   UNL     1       3.148  16.876  19.366  0.00  0.00    +0.000 C 
ATOM     16  C   UNL     1       1.746  16.486  18.819  0.00  0.00    +0.000 C 
ATOM     17  N   UNL     1       1.445  15.051  18.931  0.00  0.00    +0.000 N 
ATOM     18  C   UNL     1       0.245  14.616  19.484  0.00  0.00    +0.000 C 
ATOM     19  O   UNL     1      -0.548  15.378  20.024  0.00  0.00    +0.000 OA
ATOM     20  C   UNL     1       2.526  14.191  18.468  0.00  0.00    +0.000 C 
ATOM     21  C   UNL     1       3.782  14.481  19.287  0.00  0.00    +0.000 C 
BRANCH  18  22
ATOM     22  C   UNL     1      -0.085  13.150  19.398  0.00  0.00    +0.000 C 
ATOM     23  C   UNL     1      -1.500  12.651  19.581  0.00  0.00    +0.000 C 
ATOM     24  C   UNL     1      -0.870  12.614  18.221  0.00  0.00    +0.000 C 
ENDBRANCH  18  22
ENDBRANCH   1  13
BRANCH  11  25
ATOM     25  N   UNL     1       7.392  15.104  21.451  0.00  0.00    +0.000 N 
ATOM     26  C   UNL     1       6.304  14.737  22.360  0.00  0.00    +0.000 C 
ATOM     27  C   UNL     1       6.874  14.291  23.689  0.00  0.00    +0.000 C 
ATOM     28  C   UNL     1       7.878  15.282  24.292  0.00  0.00    +0.000 C 
ATOM     29  C   UNL     1       8.649  14.570  25.419  0.00  0.00    +0.000 C 
ATOM     30  C   UNL     1       8.429  15.421  26.643  0.00  0.00    +0.000 C 
ATOM     31  C   UNL     1       7.130  16.121  26.337  0.00  0.00    +0.000 C 
ATOM     32  O   UNL     1       7.135  16.354  24.922  0.00  0.00    +0.000 OA
ATOM     33  C   UNL     1       8.831  15.910  23.258  0.00  0.00    +0.000 C 
ATOM     34  C   UNL     1       8.165  16.254  21.922  0.00  0.00    +0.000 C 
ENDBRANCH  11  25
TORSDOF 3
ENDMDL
MODEL 7
REMARK VINA RESULT:      -6.3      2.740      6.756
REMARK  Name = 
REMARK  3 active torsions:
REMARK  status: ('A' for Active; 'I' for Inactive)
REMARK    1  A    between atoms: C_2  and  C_3
REMARK    2  A    between atoms: C_13  and  N_14
REMARK    3  A    between atoms: C_28  and  C_30
REMARK                            x       y       z     vdW  Elec       q    Type
REMARK                         _______ _______ _______ _____ _____    ______ ____
ROOT
ATOM      1  C   UNL     1       4.592  15.854  19.256  0.00  0.00    +0.000 A 
ATOM      2  C   UNL     1       3.952  15.745  18.027  0.00  0.00    +0.000 A 
ATOM      3  N   UNL     1       2.795  15.091  17.819  0.00  0.00    +0.000 NA
ATOM      4  C   UNL     1       2.256  14.444  18.850  0.00  0.00    +0.000 A 
ATOM      5  C   UNL     1       1.073  13.770  18.575  0.00  0.00    +0.000 A 
ATOM      6  C   UNL     1       0.416  13.010  19.536  0.00  0.00    +0.000 A 
ATOM      7  C   UNL     1       0.931  12.982  20.811  0.00  0.00    +0.000 A 
ATOM      8  F   UNL     1       0.331  12.251  21.759  0.00  0.00    +0.000 F 
ATOM      9  C   UNL     1       2.076  13.708  21.128  0.00  0.00    +0.000 A 
ATOM     10  C   UNL     1       2.823  14.426  20.152  0.00  0.00    +0.000 A 
ATOM     11  C   UNL     1       4.068  15.150  20.366  0.00  0.00    +0.000 A 
ENDROOT
BRANCH   1  13
ATOM     12  O   UNL     1       5.787  17.881  19.325  0.00  0.00    +0.000 OA
ATOM     13  C   UNL     1       5.850  16.661  19.216  0.00  0.00    +0.000 C 
ATOM     14  N   UNL     1       7.083  15.965  19.173  0.00  0.00    +0.000 N 
ATOM     15  C   UNL     1       8.332  16.752  19.083  0.00  0.00    +0.000 C 
ATOM     16  C   UNL     1       9.632  15.964  19.404  0.00  0.00    +0.000 C 
ATOM     17  N   UNL     1       9.607  14.568  18.942  0.00  0.00    +0.000 N 
ATOM     18  C   UNL     1      10.663  14.043  18.203  0.00  0.00    +0.000 C 
ATOM     19  O   UNL     1      11.584  14.734  17.784  0.00  0.00    +0.000 OA
ATOM     20  C   UNL     1       8.381  13.861  19.289  0.00  0.00    +0.000 C 
ATOM     21  C   UNL     1       7.191  14.591  18.669  0.00  0.00    +0.000 C 
BRANCH  18  22
ATOM     22  C   UNL     1      10.666  12.564  17.924  0.00  0.00    +0.000 C 
ATOM     23  C   UNL     1      11.958  11.785  17.825  0.00  0.00    +0.000 C 
ATOM     24  C   UNL     1      11.059  11.585  19.008  0.00  0.00    +0.000 C 
ENDBRANCH  18  22
ENDBRANCH   1  13
BRANCH  11  25
ATOM     25  N   UNL     1       4.737  15.103  21.597  0.00  0.00    +0.000 N 
ATOM     26  C   UNL     1       5.441  13.917  22.090  0.00  0.00    +0.000 C 
ATOM     27  C   UNL     1       6.798  14.312  22.629  0.00  0.00    +0.000 C 
ATOM     28  C   UNL     1       6.748  15.467  23.637  0.00  0.00    +0.000 C 
ATOM     29  C   UNL     1       8.176  16.013  23.825  0.00  0.00    +0.000 C 
ATOM     30  C   UNL     1       8.444  15.912  25.303  0.00  0.00    +0.000 C 
ATOM     31  C   UNL     1       7.519  14.804  25.738  0.00  0.00    +0.000 C 
ATOM     32  O   UNL     1       6.347  14.930  24.922  0.00  0.00    +0.000 OA
ATOM     33  C   UNL     1       5.755  16.582  23.258  0.00  0.00    +0.000 C 
ATOM     34  C   UNL     1       4.444  16.072  22.654  0.00  0.00    +0.000 C 
ENDBRANCH  11  25
TORSDOF 3
ENDMDL
MODEL 8
REMARK VINA RESULT:      -6.3      6.473      8.914
REMARK  Name = 
REMARK  3 active torsions:
REMARK  status: ('A' for Active; 'I' for Inactive)
REMARK    1  A    between atoms: C_2  and  C_3
REMARK    2  A    between atoms: C_13  and  N_14
REMARK    3  A    between atoms: C_28  and  C_30
REMARK                            x       y       z     vdW  Elec       q    Type
REMARK                         _______ _______ _______ _____ _____    ______ ____
ROOT
ATOM      1  C   UNL     1      -0.700  12.071  22.422  0.00  0.00    +0.000 A 
ATOM      2  C   UNL     1      -0.793  10.841  23.062  0.00  0.00    +0.000 A 
ATOM      3  N   UNL     1      -0.260   9.694  22.605  0.00  0.00    +0.000 NA
ATOM      4  C   UNL     1       0.344   9.723  21.418  0.00  0.00    +0.000 A 
ATOM      5  C   UNL     1       0.859   8.508  20.985  0.00  0.00    +0.000 A 
ATOM      6  C   UNL     1       1.476   8.367  19.747  0.00  0.00    +0.000 A 
ATOM      7  C   UNL     1       1.629   9.487  18.963  0.00  0.00    +0.000 A 
ATOM      8  F   UNL     1       2.208   9.387  17.759  0.00  0.00    +0.000 F 
ATOM      9  C   UNL     1       1.184  10.729  19.408  0.00  0.00    +0.000 A 
ATOM     10  C   UNL     1       0.472  10.897  20.629  0.00  0.00    +0.000 A 
ATOM     11  C   UNL     1      -0.097  12.134  21.144  0.00  0.00    +0.000 A 
ENDROOT
BRANCH   1  13
ATOM     12  O   UNL     1      -0.704  13.848  23.966  0.00  0.00    +0.000 OA
ATOM     13  C   UNL     1      -1.358  13.192  23.162  0.00  0.00    +0.000 C 
ATOM     14  N   UNL     1      -2.688  13.528  22.811  0.00  0.00    +0.000 N 
ATOM     15  C   UNL     1      -3.365  14.602  23.569  0.00  0.00    +0.000 C 
ATOM     16  C   UNL     1      -4.658  15.159  22.910  0.00  0.00    +0.000 C 
ATOM     17  N   UNL     1      -5.452  14.138  22.210  0.00  0.00    +0.000 N 
ATOM     18  C   UNL     1      -6.820  14.018  22.439  0.00  0.00    +0.000 C 
ATOM     19  O   UNL     1      -7.399  14.645  23.318  0.00  0.00    +0.000 OA
ATOM     20  C   UNL     1      -4.661  13.281  21.337  0.00  0.00    +0.000 C 
ATOM     21  C   UNL     1      -3.595  12.569  22.168  0.00  0.00    +0.000 C 
BRANCH  18  22
ATOM     22  C   UNL     1      -7.607  13.087  21.557  0.00  0.00    +0.000 C 
ATOM     23  C   UNL     1      -6.954  11.899  20.888  0.00  0.00    +0.000 C 
ATOM     24  C   UNL     1      -7.915  11.679  22.019  0.00  0.00    +0.000 C 
ENDBRANCH  18  22
ENDBRANCH   1  13
BRANCH  11  25
ATOM     25  N   UNL     1      -0.093  13.311  20.383  0.00  0.00    +0.000 N 
ATOM     26  C   UNL     1      -1.194  13.709  19.502  0.00  0.00    +0.000 C 
ATOM     27  C   UNL     1      -1.523  15.169  19.719  0.00  0.00    +0.000 C 
ATOM     28  C   UNL     1      -0.302  16.093  19.641  0.00  0.00    +0.000 C 
ATOM     29  C   UNL     1      -0.687  17.463  20.232  0.00  0.00    +0.000 C 
ATOM     30  C   UNL     1      -0.397  18.458  19.139  0.00  0.00    +0.000 C 
ATOM     31  C   UNL     1      -0.496  17.622  17.888  0.00  0.00    +0.000 C 
ATOM     32  O   UNL     1       0.002  16.326  18.244  0.00  0.00    +0.000 OA
ATOM     33  C   UNL     1       0.960  15.518  20.312  0.00  0.00    +0.000 C 
ATOM     34  C   UNL     1       1.155  14.015  20.088  0.00  0.00    +0.000 C 
ENDBRANCH  11  25
TORSDOF 3
ENDMDL
MODEL 9
REMARK VINA RESULT:      -6.2      6.299      8.952
REMARK  Name = 
REMARK  3 active torsions:
REMARK  status: ('A' for Active; 'I' for Inactive)
REMARK    1  A    between atoms: C_2  and  C_3
REMARK    2  A    between atoms: C_13  and  N_14
REMARK    3  A    between atoms: C_28  and  C_30
REMARK                            x       y       z     vdW  Elec       q    Type
REMARK                         _______ _______ _______ _____ _____    ______ ____
ROOT
ATOM      1  C   UNL     1      -0.924  12.412  22.660  0.00  0.00    +0.000 A 
ATOM      2  C   UNL     1      -1.118  11.108  23.101  0.00  0.00    +0.000 A 
ATOM      3  N   UNL     1      -0.606  10.013  22.511  0.00  0.00    +0.000 NA
ATOM      4  C   UNL     1       0.081  10.182  21.384  0.00  0.00    +0.000 A 
ATOM      5  C   UNL     1       0.570   9.016  20.807  0.00  0.00    +0.000 A 
ATOM      6  C   UNL     1       1.266   9.025  19.603  0.00  0.00    +0.000 A 
ATOM      7  C   UNL     1       1.525  10.238  19.007  0.00  0.00    +0.000 A 
ATOM      8  F   UNL     1       2.183  10.283  17.841  0.00  0.00    +0.000 F 
ATOM      9  C   UNL     1       1.107  11.423  19.604  0.00  0.00    +0.000 A 
ATOM     10  C   UNL     1       0.318  11.450  20.789  0.00  0.00    +0.000 A 
ATOM     11  C   UNL     1      -0.230  12.628  21.446  0.00  0.00    +0.000 A 
ENDROOT
BRANCH   1  13
ATOM     12  O   UNL     1      -0.905  14.080  24.320  0.00  0.00    +0.000 OA
ATOM     13  C   UNL     1      -1.581  13.447  23.517  0.00  0.00    +0.000 C 
ATOM     14  N   UNL     1      -2.946  13.737  23.276  0.00  0.00    +0.000 N 
ATOM     15  C   UNL     1      -3.619  14.723  24.148  0.00  0.00    +0.000 C 
ATOM     16  C   UNL     1      -4.977  15.257  23.613  0.00  0.00    +0.000 C 
ATOM     17  N   UNL     1      -5.770  14.247  22.897  0.00  0.00    +0.000 N 
ATOM     18  C   UNL     1      -7.112  14.043  23.204  0.00  0.00    +0.000 C 
ATOM     19  O   UNL     1      -7.658  14.580  24.160  0.00  0.00    +0.000 OA
ATOM     20  C   UNL     1      -5.000  13.490  21.918  0.00  0.00    +0.000 C 
ATOM     21  C   UNL     1      -3.849  12.779  22.628  0.00  0.00    +0.000 C 
BRANCH  18  22
ATOM     22  C   UNL     1      -7.913  13.134  22.312  0.00  0.00    +0.000 C 
ATOM     23  C   UNL     1      -7.238  12.202  21.330  0.00  0.00    +0.000 C 
ATOM     24  C   UNL     1      -7.909  11.639  22.548  0.00  0.00    +0.000 C 
ENDBRANCH  18  22
ENDBRANCH   1  13
BRANCH  11  25
ATOM     25  N   UNL     1      -0.119  13.901  20.872  0.00  0.00    +0.000 N 
ATOM     26  C   UNL     1       0.665  14.989  21.461  0.00  0.00    +0.000 C 
ATOM     27  C   UNL     1       1.506  15.653  20.393  0.00  0.00    +0.000 C 
ATOM     28  C   UNL     1       0.709  16.066  19.150  0.00  0.00    +0.000 C 
ATOM     29  C   UNL     1       1.701  16.378  18.014  0.00  0.00    +0.000 C 
ATOM     30  C   UNL     1       1.385  17.789  17.593  0.00  0.00    +0.000 C 
ATOM     31  C   UNL     1       0.758  18.378  18.830  0.00  0.00    +0.000 C 
ATOM     32  O   UNL     1       0.024  17.309  19.443  0.00  0.00    +0.000 OA
ATOM     33  C   UNL     1      -0.349  15.033  18.716  0.00  0.00    +0.000 C 
ATOM     34  C   UNL     1      -1.088  14.369  19.881  0.00  0.00    +0.000 C 
ENDBRANCH  11  25
TORSDOF 3
ENDMDL
