MODEL 1
REMARK VINA RESULT:      -6.9      0.000      0.000
REMARK  Name = 
REMARK  3 active torsions:
REMARK  status: ('A' for Active; 'I' for Inactive)
REMARK    1  A    between atoms: N_3  and  C_4
REMARK    2  A    between atoms: C_4  and  C_5
REMARK    3  A    between atoms: N_13  and  C_14
REMARK                            x       y       z     vdW  Elec       q    Type
REMARK                         _______ _______ _______ _____ _____    ______ ____
ROOT
ATOM      1  O   UNL     1       8.454   7.352  18.909  0.00  0.00    +0.000 OA
ATOM      2  C   UNL     1       8.004   8.181  18.130  0.00  0.00    +0.000 C 
ATOM      3  N   UNL     1       8.460   9.480  18.106  0.00  0.00    +0.000 N 
ATOM      4  N   UNL     1       7.038   7.963  17.171  0.00  0.00    +0.000 N 
ATOM      5  H   UNL     1       7.796  10.184  17.817  0.00  0.00    +0.000 HD
ATOM      6  H   UNL     1       6.897   8.710  16.509  0.00  0.00    +0.000 HD
ENDROOT
BRANCH   4   7
ATOM      7  C   UNL     1       6.348   6.753  16.934  0.00  0.00    +0.000 A 
ATOM      8  C   UNL     1       6.921   5.627  16.343  0.00  0.00    +0.000 A 
ATOM      9  C   UNL     1       6.148   4.488  16.118  0.00  0.00    +0.000 A 
ATOM     10  C   UNL     1       4.823   4.504  16.508  0.00  0.00    +0.000 A 
ATOM     11  F   UNL     1       4.075   3.415  16.280  0.00  0.00    +0.000 F 
ATOM     12  N   UNL     1       4.227   5.558  17.103  0.00  0.00    +0.000 NA
ATOM     13  C   UNL     1       5.006   6.651  17.302  0.00  0.00    +0.000 A 
ENDBRANCH   4   7
BRANCH   3  14
ATOM     14  C   UNL     1       9.426   9.901  19.102  0.00  0.00    +0.000 C 
BRANCH  14  15
ATOM     15  C   UNL     1       9.910  11.302  18.835  0.00  0.00    +0.000 A 
ATOM     16  C   UNL     1      10.521  11.576  17.597  0.00  0.00    +0.000 A 
ATOM     17  C   UNL     1      10.983  12.858  17.296  0.00  0.00    +0.000 A 
ATOM     18  C   UNL     1      10.833  13.881  18.227  0.00  0.00    +0.000 A 
ATOM     19 CL   UNL     1      11.396  15.463  17.856  0.00  0.00    +0.000 Cl
ATOM     20  C   UNL     1      10.222  13.636  19.455  0.00  0.00    +0.000 A 
ATOM     21  C   UNL     1       9.758  12.352  19.754  0.00  0.00    +0.000 A 
ATOM     22 CL   UNL     1       8.978  12.118  21.278  0.00  0.00    +0.000 Cl
ENDBRANCH  14  15
ENDBRANCH   3  14
TORSDOF 3
ENDMDL
MODEL 2
REMARK VINA RESULT:      -6.9      7.540      8.804
REMARK  Name = 
REMARK  3 active torsions:
REMARK  status: ('A' for Active; 'I' for Inactive)
REMARK    1  A    between atoms: N_3  and  C_4
REMARK    2  A    between atoms: C_4  and  C_5
REMARK    3  A    between atoms: N_13  and  C_14
REMARK                            x       y       z     vdW  Elec       q    Type
REMARK                         _______ _______ _______ _____ _____    ______ ____
ROOT
ATOM      1  O   UNL     1       2.175   6.920  18.861  0.00  0.00    +0.000 OA
ATOM      2  C   UNL     1       2.037   6.701  20.056  0.00  0.00    +0.000 C 
ATOM      3  N   UNL     1       1.703   7.699  20.945  0.00  0.00    +0.000 N 
ATOM      4  N   UNL     1       2.152   5.479  20.683  0.00  0.00    +0.000 N 
ATOM      5  H   UNL     1       2.042   7.590  21.890  0.00  0.00    +0.000 HD
ATOM      6  H   UNL     1       1.851   5.446  21.645  0.00  0.00    +0.000 HD
ENDROOT
BRANCH   4   7
ATOM      7  C   UNL     1       2.498   4.252  20.074  0.00  0.00    +0.000 A 
ATOM      8  C   UNL     1       1.587   3.235  19.789  0.00  0.00    +0.000 A 
ATOM      9  C   UNL     1       2.031   2.043  19.216  0.00  0.00    +0.000 A 
ATOM     10  C   UNL     1       3.376   1.910  18.930  0.00  0.00    +0.000 A 
ATOM     11  F   UNL     1       3.806   0.759  18.393  0.00  0.00    +0.000 F 
ATOM     12  N   UNL     1       4.293   2.871  19.166  0.00  0.00    +0.000 NA
ATOM     13  C   UNL     1       3.829   4.015  19.727  0.00  0.00    +0.000 A 
ENDBRANCH   4   7
BRANCH   3  14
ATOM     14  C   UNL     1       1.617   9.064  20.465  0.00  0.00    +0.000 C 
BRANCH  14  15
ATOM     15  C   UNL     1       0.547   9.833  21.193  0.00  0.00    +0.000 A 
ATOM     16  C   UNL     1       0.197   9.427  22.495  0.00  0.00    +0.000 A 
ATOM     17  C   UNL     1      -0.783  10.109  23.217  0.00  0.00    +0.000 A 
ATOM     18  C   UNL     1      -1.420  11.207  22.649  0.00  0.00    +0.000 A 
ATOM     19 CL   UNL     1      -2.625  12.051  23.540  0.00  0.00    +0.000 Cl
ATOM     20  C   UNL     1      -1.083  11.634  21.367  0.00  0.00    +0.000 A 
ATOM     21  C   UNL     1      -0.099  10.952  20.645  0.00  0.00    +0.000 A 
ATOM     22 CL   UNL     1       0.299  11.550  19.073  0.00  0.00    +0.000 Cl
ENDBRANCH  14  15
ENDBRANCH   3  14
TORSDOF 3
ENDMDL
MODEL 3
REMARK VINA RESULT:      -6.9      4.873      8.602
REMARK  Name = 
REMARK  3 active torsions:
REMARK  status: ('A' for Active; 'I' for Inactive)
REMARK    1  A    between atoms: N_3  and  C_4
REMARK    2  A    between atoms: C_4  and  C_5
REMARK    3  A    between atoms: N_13  and  C_14
REMARK                            x       y       z     vdW  Elec       q    Type
REMARK                         _______ _______ _______ _____ _____    ______ ____
ROOT
ATOM      1  O   UNL     1       8.518   7.409  18.881  0.00  0.00    +0.000 OA
ATOM      2  C   UNL     1       7.967   7.937  17.925  0.00  0.00    +0.000 C 
ATOM      3  N   UNL     1       7.221   7.212  17.021  0.00  0.00    +0.000 N 
ATOM      4  N   UNL     1       7.969   9.281  17.620  0.00  0.00    +0.000 N 
ATOM      5  H   UNL     1       7.192   7.567  16.077  0.00  0.00    +0.000 HD
ATOM      6  H   UNL     1       7.336   9.570  16.891  0.00  0.00    +0.000 HD
ENDROOT
BRANCH   4   7
ATOM      7  C   UNL     1       8.646  10.301  18.326  0.00  0.00    +0.000 A 
ATOM      8  C   UNL     1       9.304  10.110  19.541  0.00  0.00    +0.000 A 
ATOM      9  C   UNL     1       9.916  11.188  20.180  0.00  0.00    +0.000 A 
ATOM     10  C   UNL     1       9.863  12.429  19.574  0.00  0.00    +0.000 A 
ATOM     11  F   UNL     1      10.439  13.469  20.194  0.00  0.00    +0.000 F 
ATOM     12  N   UNL     1       9.259  12.662  18.391  0.00  0.00    +0.000 NA
ATOM     13  C   UNL     1       8.671  11.593  17.799  0.00  0.00    +0.000 A 
ENDBRANCH   4   7
BRANCH   3  14
ATOM     14  C   UNL     1       7.176   5.769  17.150  0.00  0.00    +0.000 C 
BRANCH  14  15
ATOM     15  C   UNL     1       5.810   5.301  17.577  0.00  0.00    +0.000 A 
ATOM     16  C   UNL     1       5.410   5.524  18.908  0.00  0.00    +0.000 A 
ATOM     17  C   UNL     1       4.152   5.116  19.354  0.00  0.00    +0.000 A 
ATOM     18  C   UNL     1       3.279   4.487  18.473  0.00  0.00    +0.000 A 
ATOM     19 CL   UNL     1       1.727   3.988  19.021  0.00  0.00    +0.000 Cl
ATOM     20  C   UNL     1       3.649   4.265  17.149  0.00  0.00    +0.000 A 
ATOM     21  C   UNL     1       4.908   4.676  16.702  0.00  0.00    +0.000 A 
ATOM     22 CL   UNL     1       5.296   4.404  15.040  0.00  0.00    +0.000 Cl
ENDBRANCH  14  15
ENDBRANCH   3  14
TORSDOF 3
ENDMDL
MODEL 4
REMARK VINA RESULT:      -6.9      6.792      8.154
REMARK  Name = 
REMARK  3 active torsions:
REMARK  status: ('A' for Active; 'I' for Inactive)
REMARK    1  A    between atoms: N_3  and  C_4
REMARK    2  A    between atoms: C_4  and  C_5
REMARK    3  A    between atoms: N_13  and  C_14
REMARK                            x       y       z     vdW  Elec       q    Type
REMARK                         _______ _______ _______ _____ _____    ______ ____
ROOT
ATOM      1  O   UNL     1       3.822   3.515  16.511  0.00  0.00    +0.000 OA
ATOM      2  C   UNL     1       4.852   3.624  17.162  0.00  0.00    +0.000 C 
ATOM      3  N   UNL     1       4.875   3.433  18.526  0.00  0.00    +0.000 N 
ATOM      4  N   UNL     1       6.107   3.907  16.666  0.00  0.00    +0.000 N 
ATOM      5  H   UNL     1       5.570   3.955  19.040  0.00  0.00    +0.000 HD
ATOM      6  H   UNL     1       6.872   3.802  17.314  0.00  0.00    +0.000 HD
ENDROOT
BRANCH   4   7
ATOM      7  C   UNL     1       6.437   4.173  15.318  0.00  0.00    +0.000 A 
ATOM      8  C   UNL     1       5.905   3.481  14.230  0.00  0.00    +0.000 A 
ATOM      9  C   UNL     1       6.319   3.794  12.935  0.00  0.00    +0.000 A 
ATOM     10  C   UNL     1       7.245   4.805  12.766  0.00  0.00    +0.000 A 
ATOM     11  F   UNL     1       7.655   5.096  11.524  0.00  0.00    +0.000 F 
ATOM     12  N   UNL     1       7.773   5.517  13.782  0.00  0.00    +0.000 NA
ATOM     13  C   UNL     1       7.352   5.185  15.028  0.00  0.00    +0.000 A 
ENDBRANCH   4   7
BRANCH   3  14
ATOM     14  C   UNL     1       3.625   3.202  19.221  0.00  0.00    +0.000 C 
BRANCH  14  15
ATOM     15  C   UNL     1       2.987   4.498  19.646  0.00  0.00    +0.000 A 
ATOM     16  C   UNL     1       3.442   5.694  19.058  0.00  0.00    +0.000 A 
ATOM     17  C   UNL     1       2.882   6.922  19.410  0.00  0.00    +0.000 A 
ATOM     18  C   UNL     1       1.857   6.968  20.350  0.00  0.00    +0.000 A 
ATOM     19 CL   UNL     1       1.162   8.481  20.781  0.00  0.00    +0.000 Cl
ATOM     20  C   UNL     1       1.384   5.797  20.937  0.00  0.00    +0.000 A 
ATOM     21  C   UNL     1       1.943   4.567  20.582  0.00  0.00    +0.000 A 
ATOM     22 CL   UNL     1       1.291   3.147  21.319  0.00  0.00    +0.000 Cl
ENDBRANCH  14  15
ENDBRANCH   3  14
TORSDOF 3
ENDMDL
MODEL 5
REMARK VINA RESULT:      -6.9      7.198      9.227
REMARK  Name = 
REMARK  3 active torsions:
REMARK  status: ('A' for Active; 'I' for Inactive)
REMARK    1  A    between atoms: N_3  and  C_4
REMARK    2  A    between atoms: C_4  and  C_5
REMARK    3  A    between atoms: N_13  and  C_14
REMARK                            x       y       z     vdW  Elec       q    Type
REMARK                         _______ _______ _______ _____ _____    ______ ____
ROOT
ATOM      1  O   UNL     1       1.449   6.332  20.789  0.00  0.00    +0.000 OA
ATOM      2  C   UNL     1       1.878   7.158  19.995  0.00  0.00    +0.000 C 
ATOM      3  N   UNL     1       2.706   6.805  18.953  0.00  0.00    +0.000 N 
ATOM      4  N   UNL     1       1.594   8.506  19.985  0.00  0.00    +0.000 N 
ATOM      5  H   UNL     1       3.362   7.507  18.644  0.00  0.00    +0.000 HD
ATOM      6  H   UNL     1       1.899   9.016  19.171  0.00  0.00    +0.000 HD
ENDROOT
BRANCH   4   7
ATOM      7  C   UNL     1       0.793   9.203  20.917  0.00  0.00    +0.000 A 
ATOM      8  C   UNL     1       0.827   8.988  22.295  0.00  0.00    +0.000 A 
ATOM      9  C   UNL     1      -0.029   9.703  23.134  0.00  0.00    +0.000 A 
ATOM     10  C   UNL     1      -0.886  10.626  22.567  0.00  0.00    +0.000 A 
ATOM     11  F   UNL     1      -1.719  11.303  23.371  0.00  0.00    +0.000 F 
ATOM     12  N   UNL     1      -0.943  10.887  21.245  0.00  0.00    +0.000 NA
ATOM     13  C   UNL     1      -0.101  10.172  20.458  0.00  0.00    +0.000 A 
ENDBRANCH   4   7
BRANCH   3  14
ATOM     14  C   UNL     1       3.166   5.433  18.860  0.00  0.00    +0.000 C 
BRANCH  14  15
ATOM     15  C   UNL     1       4.047   5.233  17.654  0.00  0.00    +0.000 A 
ATOM     16  C   UNL     1       4.583   6.370  17.019  0.00  0.00    +0.000 A 
ATOM     17  C   UNL     1       5.410   6.241  15.903  0.00  0.00    +0.000 A 
ATOM     18  C   UNL     1       5.716   4.975  15.414  0.00  0.00    +0.000 A 
ATOM     19 CL   UNL     1       6.740   4.816  14.041  0.00  0.00    +0.000 Cl
ATOM     20  C   UNL     1       5.206   3.837  16.032  0.00  0.00    +0.000 A 
ATOM     21  C   UNL     1       4.380   3.966  17.152  0.00  0.00    +0.000 A 
ATOM     22 CL   UNL     1       3.807   2.516  17.896  0.00  0.00    +0.000 Cl
ENDBRANCH  14  15
ENDBRANCH   3  14
TORSDOF 3
ENDMDL
MODEL 6
REMARK VINA RESULT:      -6.9      0.746      1.122
REMARK  Name = 
REMARK  3 active torsions:
REMARK  status: ('A' for Active; 'I' for Inactive)
REMARK    1  A    between atoms: N_3  and  C_4
REMARK    2  A    between atoms: C_4  and  C_5
REMARK    3  A    between atoms: N_13  and  C_14
REMARK                            x       y       z     vdW  Elec       q    Type
REMARK                         _______ _______ _______ _____ _____    ______ ____
ROOT
ATOM      1  O   UNL     1       8.543   7.442  18.998  0.00  0.00    +0.000 OA
ATOM      2  C   UNL     1       8.092   8.269  18.217  0.00  0.00    +0.000 C 
ATOM      3  N   UNL     1       8.530   9.575  18.207  0.00  0.00    +0.000 N 
ATOM      4  N   UNL     1       7.145   8.042  17.242  0.00  0.00    +0.000 N 
ATOM      5  H   UNL     1       7.860  10.270  17.912  0.00  0.00    +0.000 HD
ATOM      6  H   UNL     1       7.003   8.791  16.582  0.00  0.00    +0.000 HD
ENDROOT
BRANCH   4   7
ATOM      7  C   UNL     1       6.476   6.824  16.988  0.00  0.00    +0.000 A 
ATOM      8  C   UNL     1       5.100   6.643  17.121  0.00  0.00    +0.000 A 
ATOM      9  C   UNL     1       4.535   5.390  16.880  0.00  0.00    +0.000 A 
ATOM     10  C   UNL     1       5.366   4.356  16.496  0.00  0.00    +0.000 A 
ATOM     11  F   UNL     1       4.826   3.148  16.278  0.00  0.00    +0.000 F 
ATOM     12  N   UNL     1       6.699   4.484  16.333  0.00  0.00    +0.000 NA
ATOM     13  C   UNL     1       7.216   5.713  16.579  0.00  0.00    +0.000 A 
ENDBRANCH   4   7
BRANCH   3  14
ATOM     14  C   UNL     1       9.474  10.004  19.220  0.00  0.00    +0.000 C 
BRANCH  14  15
ATOM     15  C   UNL     1      10.041  11.362  18.898  0.00  0.00    +0.000 A 
ATOM     16  C   UNL     1      10.480  11.611  17.585  0.00  0.00    +0.000 A 
ATOM     17  C   UNL     1      11.009  12.853  17.231  0.00  0.00    +0.000 A 
ATOM     18  C   UNL     1      11.098  13.861  18.185  0.00  0.00    +0.000 A 
ATOM     19 CL   UNL     1      11.744  15.394  17.749  0.00  0.00    +0.000 Cl
ATOM     20  C   UNL     1      10.659  13.641  19.489  0.00  0.00    +0.000 A 
ATOM     21  C   UNL     1      10.128  12.398  19.842  0.00  0.00    +0.000 A 
ATOM     22 CL   UNL     1       9.570  12.196  21.464  0.00  0.00    +0.000 Cl
ENDBRANCH  14  15
ENDBRANCH   3  14
TORSDOF 3
ENDMDL
MODEL 7
REMARK VINA RESULT:      -6.8      6.593      8.256
REMARK  Name = 
REMARK  3 active torsions:
REMARK  status: ('A' for Active; 'I' for Inactive)
REMARK    1  A    between atoms: N_3  and  C_4
REMARK    2  A    between atoms: C_4  and  C_5
REMARK    3  A    between atoms: N_13  and  C_14
REMARK                            x       y       z     vdW  Elec       q    Type
REMARK                         _______ _______ _______ _____ _____    ______ ____
ROOT
ATOM      1  O   UNL     1       2.073   5.781  18.612  0.00  0.00    +0.000 OA
ATOM      2  C   UNL     1       2.822   6.140  19.511  0.00  0.00    +0.000 C 
ATOM      3  N   UNL     1       3.963   5.439  19.831  0.00  0.00    +0.000 N 
ATOM      4  N   UNL     1       2.679   7.265  20.293  0.00  0.00    +0.000 N 
ATOM      5  H   UNL     1       4.264   5.487  20.794  0.00  0.00    +0.000 HD
ATOM      6  H   UNL     1       3.467   7.500  20.878  0.00  0.00    +0.000 HD
ENDROOT
BRANCH   4   7
ATOM      7  C   UNL     1       1.617   8.195  20.241  0.00  0.00    +0.000 A 
ATOM      8  C   UNL     1       0.686   8.379  21.264  0.00  0.00    +0.000 A 
ATOM      9  C   UNL     1      -0.350   9.300  21.106  0.00  0.00    +0.000 A 
ATOM     10  C   UNL     1      -0.415  10.023  19.930  0.00  0.00    +0.000 A 
ATOM     11  F   UNL     1      -1.419  10.897  19.771  0.00  0.00    +0.000 F 
ATOM     12  N   UNL     1       0.471   9.898  18.921  0.00  0.00    +0.000 NA
ATOM     13  C   UNL     1       1.463   8.992  19.106  0.00  0.00    +0.000 A 
ENDBRANCH   4   7
BRANCH   3  14
ATOM     14  C   UNL     1       4.227   4.184  19.155  0.00  0.00    +0.000 C 
BRANCH  14  15
ATOM     15  C   UNL     1       5.053   4.396  17.913  0.00  0.00    +0.000 A 
ATOM     16  C   UNL     1       4.500   4.036  16.670  0.00  0.00    +0.000 A 
ATOM     17  C   UNL     1       5.220   4.216  15.488  0.00  0.00    +0.000 A 
ATOM     18  C   UNL     1       6.497   4.765  15.536  0.00  0.00    +0.000 A 
ATOM     19 CL   UNL     1       7.383   4.993  14.079  0.00  0.00    +0.000 Cl
ATOM     20  C   UNL     1       7.060   5.140  16.753  0.00  0.00    +0.000 A 
ATOM     21  C   UNL     1       6.338   4.961  17.936  0.00  0.00    +0.000 A 
ATOM     22 CL   UNL     1       7.076   5.476  19.411  0.00  0.00    +0.000 Cl
ENDBRANCH  14  15
ENDBRANCH   3  14
TORSDOF 3
ENDMDL
MODEL 8
REMARK VINA RESULT:      -6.8      1.251      1.278
REMARK  Name = 
REMARK  3 active torsions:
REMARK  status: ('A' for Active; 'I' for Inactive)
REMARK    1  A    between atoms: N_3  and  C_4
REMARK    2  A    between atoms: C_4  and  C_5
REMARK    3  A    between atoms: N_13  and  C_14
REMARK                            x       y       z     vdW  Elec       q    Type
REMARK                         _______ _______ _______ _____ _____    ______ ____
ROOT
ATOM      1  O   UNL     1       8.469   7.461  18.790  0.00  0.00    +0.000 OA
ATOM      2  C   UNL     1       7.926   8.156  17.943  0.00  0.00    +0.000 C 
ATOM      3  N   UNL     1       8.267   9.477  17.756  0.00  0.00    +0.000 N 
ATOM      4  N   UNL     1       6.954   7.751  17.053  0.00  0.00    +0.000 N 
ATOM      5  H   UNL     1       7.536  10.085  17.418  0.00  0.00    +0.000 HD
ATOM      6  H   UNL     1       6.729   8.403  16.318  0.00  0.00    +0.000 HD
ENDROOT
BRANCH   4   7
ATOM      7  C   UNL     1       6.365   6.469  16.979  0.00  0.00    +0.000 A 
ATOM      8  C   UNL     1       6.901   5.400  16.262  0.00  0.00    +0.000 A 
ATOM      9  C   UNL     1       6.227   4.179  16.220  0.00  0.00    +0.000 A 
ATOM     10  C   UNL     1       5.038   4.060  16.915  0.00  0.00    +0.000 A 
ATOM     11  F   UNL     1       4.382   2.892  16.865  0.00  0.00    +0.000 F 
ATOM     12  N   UNL     1       4.489   5.055  17.641  0.00  0.00    +0.000 NA
ATOM     13  C   UNL     1       5.168   6.229  17.656  0.00  0.00    +0.000 A 
ENDBRANCH   4   7
BRANCH   3  14
ATOM     14  C   UNL     1       9.222  10.087  18.660  0.00  0.00    +0.000 C 
BRANCH  14  15
ATOM     15  C   UNL     1       9.202  11.588  18.545  0.00  0.00    +0.000 A 
ATOM     16  C   UNL     1       8.288  12.180  17.652  0.00  0.00    +0.000 A 
ATOM     17  C   UNL     1       8.223  13.567  17.511  0.00  0.00    +0.000 A 
ATOM     18  C   UNL     1       9.066  14.377  18.265  0.00  0.00    +0.000 A 
ATOM     19 CL   UNL     1       8.983  16.087  18.095  0.00  0.00    +0.000 Cl
ATOM     20  C   UNL     1       9.971  13.814  19.162  0.00  0.00    +0.000 A 
ATOM     21  C   UNL     1      10.034  12.426  19.305  0.00  0.00    +0.000 A 
ATOM     22 CL   UNL     1      11.151  11.789  20.458  0.00  0.00    +0.000 Cl
ENDBRANCH  14  15
ENDBRANCH   3  14
TORSDOF 3
ENDMDL
MODEL 9
REMARK VINA RESULT:      -6.8      1.406      1.699
REMARK  Name = 
REMARK  3 active torsions:
REMARK  status: ('A' for Active; 'I' for Inactive)
REMARK    1  A    between atoms: N_3  and  C_4
REMARK    2  A    between atoms: C_4  and  C_5
REMARK    3  A    between atoms: N_13  and  C_14
REMARK                            x       y       z     vdW  Elec       q    Type
REMARK                         _______ _______ _______ _____ _____    ______ ____
ROOT
ATOM      1  O   UNL     1       8.433   7.500  18.779  0.00  0.00    +0.000 OA
ATOM      2  C   UNL     1       7.925   8.219  17.930  0.00  0.00    +0.000 C 
ATOM      3  N   UNL     1       8.350   9.513  17.724  0.00  0.00    +0.000 N 
ATOM      4  N   UNL     1       6.919   7.869  17.056  0.00  0.00    +0.000 N 
ATOM      5  H   UNL     1       7.657  10.165  17.386  0.00  0.00    +0.000 HD
ATOM      6  H   UNL     1       6.727   8.526  16.316  0.00  0.00    +0.000 HD
ENDROOT
BRANCH   4   7
ATOM      7  C   UNL     1       6.246   6.627  17.005  0.00  0.00    +0.000 A 
ATOM      8  C   UNL     1       4.957   6.414  17.493  0.00  0.00    +0.000 A 
ATOM      9  C   UNL     1       4.388   5.142  17.429  0.00  0.00    +0.000 A 
ATOM     10  C   UNL     1       5.125   4.120  16.860  0.00  0.00    +0.000 A 
ATOM     11  F   UNL     1       4.585   2.894  16.811  0.00  0.00    +0.000 F 
ATOM     12  N   UNL     1       6.365   4.279  16.355  0.00  0.00    +0.000 NA
ATOM     13  C   UNL     1       6.889   5.527  16.438  0.00  0.00    +0.000 A 
ENDBRANCH   4   7
BRANCH   3  14
ATOM     14  C   UNL     1       9.354  10.070  18.609  0.00  0.00    +0.000 C 
BRANCH  14  15
ATOM     15  C   UNL     1       9.506  11.553  18.399  0.00  0.00    +0.000 A 
ATOM     16  C   UNL     1       8.426  12.267  17.848  0.00  0.00    +0.000 A 
ATOM     17  C   UNL     1       8.511  13.644  17.638  0.00  0.00    +0.000 A 
ATOM     18  C   UNL     1       9.676  14.322  17.982  0.00  0.00    +0.000 A 
ATOM     19 CL   UNL     1       9.781  16.021  17.728  0.00  0.00    +0.000 Cl
ATOM     20  C   UNL     1      10.754  13.639  18.538  0.00  0.00    +0.000 A 
ATOM     21  C   UNL     1      10.667  12.260  18.750  0.00  0.00    +0.000 A 
ATOM     22 CL   UNL     1      12.024  11.474  19.475  0.00  0.00    +0.000 Cl
ENDBRANCH  14  15
ENDBRANCH   3  14
TORSDOF 3
ENDMDL
