MODEL 1
REMARK VINA RESULT:      -8.0      0.000      0.000
REMARK  Name = 
REMARK  5 active torsions:
REMARK  status: ('A' for Active; 'I' for Inactive)
REMARK    1  A    between atoms: C_1  and  S_2
REMARK    2  A    between atoms: S_2  and  C_5
REMARK    3  A    between atoms: C_8  and  C_9
REMARK    4  A    between atoms: C_16  and  C_17
REMARK    5  A    between atoms: C_17  and  O_19
REMARK                            x       y       z     vdW  Elec       q    Type
REMARK                         _______ _______ _______ _____ _____    ______ ____
ROOT
ATOM      1  C   UNL     1       2.653   4.579  19.013  0.00  0.00    +0.000 A 
ATOM      2  C   UNL     1       2.029   3.453  19.532  0.00  0.00    +0.000 A 
ATOM      3  C   UNL     1       2.686   2.355  18.957  0.00  0.00    +0.000 A 
ATOM      4  N   UNL     1       3.639   2.720  18.102  0.00  0.00    +0.000 NA
ATOM      5  N   UNL     1       3.701   4.080  18.230  0.00  0.00    +0.000 N 
ATOM      6  C   UNL     1       4.775   4.798  17.608  0.00  0.00    +0.000 A 
ATOM      7  C   UNL     1       5.320   4.297  16.429  0.00  0.00    +0.000 A 
ATOM      8  C   UNL     1       6.327   5.043  15.809  0.00  0.00    +0.000 A 
ATOM      9  C   UNL     1       6.753   6.244  16.378  0.00  0.00    +0.000 A 
ATOM     10  C   UNL     1       6.158   6.660  17.549  0.00  0.00    +0.000 A 
ATOM     11  N   UNL     1       5.188   5.964  18.171  0.00  0.00    +0.000 NA
ENDROOT
BRANCH   1  15
ATOM     12  C   UNL     1       1.529   8.696  19.433  0.00  0.00    +0.000 A 
ATOM     13  C   UNL     1       1.528   7.860  20.552  0.00  0.00    +0.000 A 
ATOM     14  C   UNL     1       1.911   6.517  20.413  0.00  0.00    +0.000 A 
ATOM     15  C   UNL     1       2.265   5.995  19.159  0.00  0.00    +0.000 A 
ATOM     16  C   UNL     1       2.179   6.848  18.046  0.00  0.00    +0.000 A 
ATOM     17  C   UNL     1       1.847   8.196  18.177  0.00  0.00    +0.000 A 
BRANCH  12  19
ATOM     18  C   UNL     1      -0.662  10.394  19.123  0.00  0.00    +0.000 C 
ATOM     19  S   UNL     1       1.051  10.397  19.588  0.00  0.00    +0.000 S 
ATOM     20  O   UNL     1       1.790  11.147  18.592  0.00  0.00    +0.000 OA
ATOM     21  O   UNL     1       1.137  10.752  20.995  0.00  0.00    +0.000 OA
ENDBRANCH  12  19
ENDBRANCH   1  15
BRANCH   8  22
ATOM     22  C   UNL     1       6.933   4.661  14.509  0.00  0.00    +0.000 C 
ATOM     23  O   UNL     1       7.801   5.334  13.978  0.00  0.00    +0.000 OA
BRANCH  22  24
ATOM     24  O   UNL     1       6.477   3.507  13.985  0.00  0.00    +0.000 OA
ATOM     25  H   UNL     1       5.795   3.580  13.295  0.00  0.00    +0.000 HD
ENDBRANCH  22  24
ENDBRANCH   8  22
TORSDOF 4
ENDMDL
MODEL 2
REMARK VINA RESULT:      -7.7      0.775      1.332
REMARK  Name = 
REMARK  5 active torsions:
REMARK  status: ('A' for Active; 'I' for Inactive)
REMARK    1  A    between atoms: C_1  and  S_2
REMARK    2  A    between atoms: S_2  and  C_5
REMARK    3  A    between atoms: C_8  and  C_9
REMARK    4  A    between atoms: C_16  and  C_17
REMARK    5  A    between atoms: C_17  and  O_19
REMARK                            x       y       z     vdW  Elec       q    Type
REMARK                         _______ _______ _______ _____ _____    ______ ____
ROOT
ATOM      1  C   UNL     1       2.627   4.457  19.041  0.00  0.00    +0.000 A 
ATOM      2  C   UNL     1       2.015   3.304  19.514  0.00  0.00    +0.000 A 
ATOM      3  C   UNL     1       2.696   2.236  18.910  0.00  0.00    +0.000 A 
ATOM      4  N   UNL     1       3.653   2.645  18.080  0.00  0.00    +0.000 NA
ATOM      5  N   UNL     1       3.693   4.000  18.254  0.00  0.00    +0.000 N 
ATOM      6  C   UNL     1       4.763   4.755  17.671  0.00  0.00    +0.000 A 
ATOM      7  C   UNL     1       5.329   4.304  16.482  0.00  0.00    +0.000 A 
ATOM      8  C   UNL     1       6.332   5.085  15.900  0.00  0.00    +0.000 A 
ATOM      9  C   UNL     1       6.732   6.273  16.515  0.00  0.00    +0.000 A 
ATOM     10  C   UNL     1       6.117   6.640  17.692  0.00  0.00    +0.000 A 
ATOM     11  N   UNL     1       5.151   5.908  18.278  0.00  0.00    +0.000 NA
ENDROOT
BRANCH   1  15
ATOM     12  C   UNL     1       1.430   8.537  19.594  0.00  0.00    +0.000 A 
ATOM     13  C   UNL     1       1.831   8.097  18.330  0.00  0.00    +0.000 A 
ATOM     14  C   UNL     1       2.207   6.758  18.150  0.00  0.00    +0.000 A 
ATOM     15  C   UNL     1       2.216   5.861  19.230  0.00  0.00    +0.000 A 
ATOM     16  C   UNL     1       1.882   6.360  20.499  0.00  0.00    +0.000 A 
ATOM     17  C   UNL     1       1.458   7.676  20.683  0.00  0.00    +0.000 A 
BRANCH  12  19
ATOM     18  C   UNL     1       1.842  11.104  18.583  0.00  0.00    +0.000 C 
ATOM     19  S   UNL     1       0.948  10.226  19.841  0.00  0.00    +0.000 S 
ATOM     20  O   UNL     1       1.460  10.638  21.132  0.00  0.00    +0.000 OA
ATOM     21  O   UNL     1      -0.470  10.327  19.542  0.00  0.00    +0.000 OA
ENDBRANCH  12  19
ENDBRANCH   1  15
BRANCH   8  22
ATOM     22  C   UNL     1       6.959   4.758  14.595  0.00  0.00    +0.000 C 
ATOM     23  O   UNL     1       7.833   5.453  14.106  0.00  0.00    +0.000 OA
BRANCH  22  24
ATOM     24  O   UNL     1       6.514   3.625  14.018  0.00  0.00    +0.000 OA
ATOM     25  H   UNL     1       6.862   2.789  14.373  0.00  0.00    +0.000 HD
ENDBRANCH  22  24
ENDBRANCH   8  22
TORSDOF 4
ENDMDL
MODEL 3
REMARK VINA RESULT:      -7.7      0.882      1.389
REMARK  Name = 
REMARK  5 active torsions:
REMARK  status: ('A' for Active; 'I' for Inactive)
REMARK    1  A    between atoms: C_1  and  S_2
REMARK    2  A    between atoms: S_2  and  C_5
REMARK    3  A    between atoms: C_8  and  C_9
REMARK    4  A    between atoms: C_16  and  C_17
REMARK    5  A    between atoms: C_17  and  O_19
REMARK                            x       y       z     vdW  Elec       q    Type
REMARK                         _______ _______ _______ _____ _____    ______ ____
ROOT
ATOM      1  C   UNL     1       2.488   5.039  18.976  0.00  0.00    +0.000 A 
ATOM      2  C   UNL     1       1.825   3.973  19.569  0.00  0.00    +0.000 A 
ATOM      3  C   UNL     1       2.466   2.817  19.099  0.00  0.00    +0.000 A 
ATOM      4  N   UNL     1       3.446   3.089  18.239  0.00  0.00    +0.000 NA
ATOM      5  N   UNL     1       3.540   4.453  18.259  0.00  0.00    +0.000 N 
ATOM      6  C   UNL     1       4.645   5.092  17.607  0.00  0.00    +0.000 A 
ATOM      7  C   UNL     1       5.202   4.485  16.484  0.00  0.00    +0.000 A 
ATOM      8  C   UNL     1       6.241   5.153  15.830  0.00  0.00    +0.000 A 
ATOM      9  C   UNL     1       6.685   6.386  16.311  0.00  0.00    +0.000 A 
ATOM     10  C   UNL     1       6.077   6.910  17.431  0.00  0.00    +0.000 A 
ATOM     11  N   UNL     1       5.076   6.290  18.084  0.00  0.00    +0.000 NA
ENDROOT
BRANCH   1  15
ATOM     12  C   UNL     1       1.459   9.201  19.045  0.00  0.00    +0.000 A 
ATOM     13  C   UNL     1       1.765   8.583  17.830  0.00  0.00    +0.000 A 
ATOM     14  C   UNL     1       2.087   7.218  17.810  0.00  0.00    +0.000 A 
ATOM     15  C   UNL     1       2.135   6.471  18.998  0.00  0.00    +0.000 A 
ATOM     16  C   UNL     1       1.897   7.146  20.206  0.00  0.00    +0.000 A 
ATOM     17  C   UNL     1       1.528   8.491  20.237  0.00  0.00    +0.000 A 
BRANCH  12  19
ATOM     18  C   UNL     1       0.999  11.297  20.827  0.00  0.00    +0.000 C 
ATOM     19  S   UNL     1       1.047  10.925  19.091  0.00  0.00    +0.000 S 
ATOM     20  O   UNL     1      -0.294  11.064  18.561  0.00  0.00    +0.000 OA
ATOM     21  O   UNL     1       2.154  11.658  18.502  0.00  0.00    +0.000 OA
ENDBRANCH  12  19
ENDBRANCH   1  15
BRANCH   8  22
ATOM     22  C   UNL     1       6.864   4.654  14.579  0.00  0.00    +0.000 C 
ATOM     23  O   UNL     1       7.752   5.266  14.010  0.00  0.00    +0.000 OA
BRANCH  22  24
ATOM     24  O   UNL     1       6.399   3.466  14.147  0.00  0.00    +0.000 OA
ATOM     25  H   UNL     1       6.826   3.092  13.357  0.00  0.00    +0.000 HD
ENDBRANCH  22  24
ENDBRANCH   8  22
TORSDOF 4
ENDMDL
MODEL 4
REMARK VINA RESULT:      -7.7      0.784      1.112
REMARK  Name = 
REMARK  5 active torsions:
REMARK  status: ('A' for Active; 'I' for Inactive)
REMARK    1  A    between atoms: C_1  and  S_2
REMARK    2  A    between atoms: S_2  and  C_5
REMARK    3  A    between atoms: C_8  and  C_9
REMARK    4  A    between atoms: C_16  and  C_17
REMARK    5  A    between atoms: C_17  and  O_19
REMARK                            x       y       z     vdW  Elec       q    Type
REMARK                         _______ _______ _______ _____ _____    ______ ____
ROOT
ATOM      1  C   UNL     1       2.684   4.461  19.167  0.00  0.00    +0.000 A 
ATOM      2  C   UNL     1       2.104   3.313  19.688  0.00  0.00    +0.000 A 
ATOM      3  C   UNL     1       2.776   2.239  19.085  0.00  0.00    +0.000 A 
ATOM      4  N   UNL     1       3.697   2.640  18.211  0.00  0.00    +0.000 NA
ATOM      5  N   UNL     1       3.726   3.999  18.353  0.00  0.00    +0.000 N 
ATOM      6  C   UNL     1       4.765   4.752  17.713  0.00  0.00    +0.000 A 
ATOM      7  C   UNL     1       5.294   4.279  16.515  0.00  0.00    +0.000 A 
ATOM      8  C   UNL     1       6.265   5.058  15.879  0.00  0.00    +0.000 A 
ATOM      9  C   UNL     1       6.672   6.265  16.452  0.00  0.00    +0.000 A 
ATOM     10  C   UNL     1       6.095   6.652  17.641  0.00  0.00    +0.000 A 
ATOM     11  N   UNL     1       5.160   5.924  18.278  0.00  0.00    +0.000 NA
ENDROOT
BRANCH   1  15
ATOM     12  C   UNL     1       1.460   8.541  19.659  0.00  0.00    +0.000 A 
ATOM     13  C   UNL     1       1.419   7.669  20.750  0.00  0.00    +0.000 A 
ATOM     14  C   UNL     1       1.834   6.339  20.588  0.00  0.00    +0.000 A 
ATOM     15  C   UNL     1       2.262   5.864  19.337  0.00  0.00    +0.000 A 
ATOM     16  C   UNL     1       2.215   6.751  18.250  0.00  0.00    +0.000 A 
ATOM     17  C   UNL     1       1.851   8.088  18.406  0.00  0.00    +0.000 A 
BRANCH  12  19
ATOM     18  C   UNL     1       1.831  11.080  18.566  0.00  0.00    +0.000 C 
ATOM     19  S   UNL     1       0.941  10.227  19.844  0.00  0.00    +0.000 S 
ATOM     20  O   UNL     1       1.432  10.693  21.126  0.00  0.00    +0.000 OA
ATOM     21  O   UNL     1      -0.475  10.289  19.528  0.00  0.00    +0.000 OA
ENDBRANCH  12  19
ENDBRANCH   1  15
BRANCH   8  22
ATOM     22  C   UNL     1       6.849   4.707  14.561  0.00  0.00    +0.000 C 
ATOM     23  O   UNL     1       6.409   3.796  13.881  0.00  0.00    +0.000 OA
BRANCH  22  24
ATOM     24  O   UNL     1       7.871   5.491  14.165  0.00  0.00    +0.000 OA
ATOM     25  H   UNL     1       8.351   5.211  13.367  0.00  0.00    +0.000 HD
ENDBRANCH  22  24
ENDBRANCH   8  22
TORSDOF 4
ENDMDL
MODEL 5
REMARK VINA RESULT:      -7.5      4.106      5.652
REMARK  Name = 
REMARK  5 active torsions:
REMARK  status: ('A' for Active; 'I' for Inactive)
REMARK    1  A    between atoms: C_1  and  S_2
REMARK    2  A    between atoms: S_2  and  C_5
REMARK    3  A    between atoms: C_8  and  C_9
REMARK    4  A    between atoms: C_16  and  C_17
REMARK    5  A    between atoms: C_17  and  O_19
REMARK                            x       y       z     vdW  Elec       q    Type
REMARK                         _______ _______ _______ _____ _____    ______ ____
ROOT
ATOM      1  C   UNL     1       5.595   4.285  15.635  0.00  0.00    +0.000 A 
ATOM      2  C   UNL     1       5.710   3.893  14.308  0.00  0.00    +0.000 A 
ATOM      3  C   UNL     1       6.749   4.668  13.770  0.00  0.00    +0.000 A 
ATOM      4  N   UNL     1       7.255   5.526  14.653  0.00  0.00    +0.000 NA
ATOM      5  N   UNL     1       6.633   5.206  15.827  0.00  0.00    +0.000 N 
ATOM      6  C   UNL     1       7.095   5.791  17.052  0.00  0.00    +0.000 A 
ATOM      7  C   UNL     1       7.652   7.067  17.016  0.00  0.00    +0.000 A 
ATOM      8  C   UNL     1       8.043   7.642  18.228  0.00  0.00    +0.000 A 
ATOM      9  C   UNL     1       7.871   6.935  19.419  0.00  0.00    +0.000 A 
ATOM     10  C   UNL     1       7.314   5.676  19.359  0.00  0.00    +0.000 A 
ATOM     11  N   UNL     1       6.930   5.095  18.208  0.00  0.00    +0.000 NA
ENDROOT
BRANCH   1  15
ATOM     12  C   UNL     1       2.601   3.190  18.502  0.00  0.00    +0.000 A 
ATOM     13  C   UNL     1       3.440   2.209  17.967  0.00  0.00    +0.000 A 
ATOM     14  C   UNL     1       4.427   2.574  17.040  0.00  0.00    +0.000 A 
ATOM     15  C   UNL     1       4.565   3.907  16.621  0.00  0.00    +0.000 A 
ATOM     16  C   UNL     1       3.653   4.849  17.123  0.00  0.00    +0.000 A 
ATOM     17  C   UNL     1       2.698   4.510  18.081  0.00  0.00    +0.000 A 
BRANCH  12  19
ATOM     18  C   UNL     1       0.886   4.304  20.399  0.00  0.00    +0.000 C 
ATOM     19  S   UNL     1       1.347   2.749  19.677  0.00  0.00    +0.000 S 
ATOM     20  O   UNL     1       1.979   1.943  20.702  0.00  0.00    +0.000 OA
ATOM     21  O   UNL     1       0.208   2.239  18.934  0.00  0.00    +0.000 OA
ENDBRANCH  12  19
ENDBRANCH   1  15
BRANCH   8  22
ATOM     22  C   UNL     1       8.574   9.023  18.336  0.00  0.00    +0.000 C 
ATOM     23  O   UNL     1       8.338   9.874  17.495  0.00  0.00    +0.000 OA
BRANCH  22  24
ATOM     24  O   UNL     1       9.303   9.268  19.442  0.00  0.00    +0.000 OA
ATOM     25  H   UNL     1       9.513   8.502  20.004  0.00  0.00    +0.000 HD
ENDBRANCH  22  24
ENDBRANCH   8  22
TORSDOF 4
ENDMDL
MODEL 6
REMARK VINA RESULT:      -7.5      0.994      1.581
REMARK  Name = 
REMARK  5 active torsions:
REMARK  status: ('A' for Active; 'I' for Inactive)
REMARK    1  A    between atoms: C_1  and  S_2
REMARK    2  A    between atoms: S_2  and  C_5
REMARK    3  A    between atoms: C_8  and  C_9
REMARK    4  A    between atoms: C_16  and  C_17
REMARK    5  A    between atoms: C_17  and  O_19
REMARK                            x       y       z     vdW  Elec       q    Type
REMARK                         _______ _______ _______ _____ _____    ______ ____
ROOT
ATOM      1  C   UNL     1       2.752   3.761  18.932  0.00  0.00    +0.000 A 
ATOM      2  C   UNL     1       2.136   2.547  19.206  0.00  0.00    +0.000 A 
ATOM      3  C   UNL     1       2.786   1.599  18.403  0.00  0.00    +0.000 A 
ATOM      4  N   UNL     1       3.729   2.142  17.634  0.00  0.00    +0.000 NA
ATOM      5  N   UNL     1       3.791   3.443  18.048  0.00  0.00    +0.000 N 
ATOM      6  C   UNL     1       4.857   4.281  17.582  0.00  0.00    +0.000 A 
ATOM      7  C   UNL     1       5.388   4.046  16.316  0.00  0.00    +0.000 A 
ATOM      8  C   UNL     1       6.387   4.909  15.858  0.00  0.00    +0.000 A 
ATOM      9  C   UNL     1       6.818   5.963  16.665  0.00  0.00    +0.000 A 
ATOM     10  C   UNL     1       6.238   6.118  17.905  0.00  0.00    +0.000 A 
ATOM     11  N   UNL     1       5.276   5.302  18.375  0.00  0.00    +0.000 NA
ENDROOT
BRANCH   1  15
ATOM     12  C   UNL     1       1.625   7.686  20.240  0.00  0.00    +0.000 A 
ATOM     13  C   UNL     1       2.183   7.512  18.971  0.00  0.00    +0.000 A 
ATOM     14  C   UNL     1       2.537   6.224  18.541  0.00  0.00    +0.000 A 
ATOM     15  C   UNL     1       2.365   5.111  19.381  0.00  0.00    +0.000 A 
ATOM     16  C   UNL     1       1.873   5.339  20.677  0.00  0.00    +0.000 A 
ATOM     17  C   UNL     1       1.472   6.606  21.099  0.00  0.00    +0.000 A 
BRANCH  12  19
ATOM     18  C   UNL     1      -0.515   9.107  21.325  0.00  0.00    +0.000 C 
ATOM     19  S   UNL     1       1.169   9.306  20.800  0.00  0.00    +0.000 S 
ATOM     20  O   UNL     1       1.184  10.183  19.647  0.00  0.00    +0.000 OA
ATOM     21  O   UNL     1       1.975   9.610  21.970  0.00  0.00    +0.000 OA
ENDBRANCH  12  19
ENDBRANCH   1  15
BRANCH   8  22
ATOM     22  C   UNL     1       6.978   4.816  14.499  0.00  0.00    +0.000 C 
ATOM     23  O   UNL     1       6.527   4.069  13.648  0.00  0.00    +0.000 OA
BRANCH  22  24
ATOM     24  O   UNL     1       8.019   5.640  14.275  0.00  0.00    +0.000 OA
ATOM     25  H   UNL     1       8.554   5.887  15.048  0.00  0.00    +0.000 HD
ENDBRANCH  22  24
ENDBRANCH   8  22
TORSDOF 4
ENDMDL
MODEL 7
REMARK VINA RESULT:      -7.4      3.973      5.542
REMARK  Name = 
REMARK  5 active torsions:
REMARK  status: ('A' for Active; 'I' for Inactive)
REMARK    1  A    between atoms: C_1  and  S_2
REMARK    2  A    between atoms: S_2  and  C_5
REMARK    3  A    between atoms: C_8  and  C_9
REMARK    4  A    between atoms: C_16  and  C_17
REMARK    5  A    between atoms: C_17  and  O_19
REMARK                            x       y       z     vdW  Elec       q    Type
REMARK                         _______ _______ _______ _____ _____    ______ ____
ROOT
ATOM      1  C   UNL     1       5.464   4.352  15.710  0.00  0.00    +0.000 A 
ATOM      2  C   UNL     1       5.566   3.934  14.391  0.00  0.00    +0.000 A 
ATOM      3  C   UNL     1       6.649   4.644  13.849  0.00  0.00    +0.000 A 
ATOM      4  N   UNL     1       7.196   5.486  14.724  0.00  0.00    +0.000 NA
ATOM      5  N   UNL     1       6.549   5.218  15.898  0.00  0.00    +0.000 N 
ATOM      6  C   UNL     1       7.034   5.795  17.117  0.00  0.00    +0.000 A 
ATOM      7  C   UNL     1       7.659   7.038  17.067  0.00  0.00    +0.000 A 
ATOM      8  C   UNL     1       8.073   7.609  18.274  0.00  0.00    +0.000 A 
ATOM      9  C   UNL     1       7.855   6.930  19.474  0.00  0.00    +0.000 A 
ATOM     10  C   UNL     1       7.231   5.703  19.428  0.00  0.00    +0.000 A 
ATOM     11  N   UNL     1       6.823   5.126  18.282  0.00  0.00    +0.000 NA
ENDROOT
BRANCH   1  15
ATOM     12  C   UNL     1       2.395   3.455  18.568  0.00  0.00    +0.000 A 
ATOM     13  C   UNL     1       2.565   4.769  18.123  0.00  0.00    +0.000 A 
ATOM     14  C   UNL     1       3.561   5.055  17.177  0.00  0.00    +0.000 A 
ATOM     15  C   UNL     1       4.408   4.045  16.694  0.00  0.00    +0.000 A 
ATOM     16  C   UNL     1       4.255   2.753  17.223  0.00  0.00    +0.000 A 
ATOM     17  C   UNL     1       3.239   2.445  18.127  0.00  0.00    +0.000 A 
BRANCH  12  19
ATOM     18  C   UNL     1       2.027   2.216  21.039  0.00  0.00    +0.000 C 
ATOM     19  S   UNL     1       1.141   3.072  19.762  0.00  0.00    +0.000 S 
ATOM     20  O   UNL     1       0.224   2.137  19.141  0.00  0.00    +0.000 OA
ATOM     21  O   UNL     1       0.657   4.328  20.310  0.00  0.00    +0.000 OA
ENDBRANCH  12  19
ENDBRANCH   1  15
BRANCH   8  22
ATOM     22  C   UNL     1       8.678   8.961  18.365  0.00  0.00    +0.000 C 
ATOM     23  O   UNL     1       8.609   9.764  17.450  0.00  0.00    +0.000 OA
BRANCH  22  24
ATOM     24  O   UNL     1       9.274   9.239  19.541  0.00  0.00    +0.000 OA
ATOM     25  H   UNL     1       8.967  10.036  20.008  0.00  0.00    +0.000 HD
ENDBRANCH  22  24
ENDBRANCH   8  22
TORSDOF 4
ENDMDL
MODEL 8
REMARK VINA RESULT:      -7.2      2.710      6.934
REMARK  Name = 
REMARK  5 active torsions:
REMARK  status: ('A' for Active; 'I' for Inactive)
REMARK    1  A    between atoms: C_1  and  S_2
REMARK    2  A    between atoms: S_2  and  C_5
REMARK    3  A    between atoms: C_8  and  C_9
REMARK    4  A    between atoms: C_16  and  C_17
REMARK    5  A    between atoms: C_17  and  O_19
REMARK                            x       y       z     vdW  Elec       q    Type
REMARK                         _______ _______ _______ _____ _____    ______ ____
ROOT
ATOM      1  C   UNL     1       2.461   3.798  19.473  0.00  0.00    +0.000 A 
ATOM      2  C   UNL     1       1.947   2.560  19.831  0.00  0.00    +0.000 A 
ATOM      3  C   UNL     1       0.940   2.822  20.772  0.00  0.00    +0.000 A 
ATOM      4  N   UNL     1       0.821   4.121  21.043  0.00  0.00    +0.000 NA
ATOM      5  N   UNL     1       1.666   4.728  20.157  0.00  0.00    +0.000 N 
ATOM      6  C   UNL     1       1.635   6.154  20.017  0.00  0.00    +0.000 A 
ATOM      7  C   UNL     1       1.297   6.928  21.125  0.00  0.00    +0.000 A 
ATOM      8  C   UNL     1       1.328   8.318  20.982  0.00  0.00    +0.000 A 
ATOM      9  C   UNL     1       1.687   8.883  19.757  0.00  0.00    +0.000 A 
ATOM     10  C   UNL     1       2.004   8.039  18.715  0.00  0.00    +0.000 A 
ATOM     11  N   UNL     1       1.982   6.697  18.821  0.00  0.00    +0.000 NA
ENDROOT
BRANCH   1  15
ATOM     12  C   UNL     1       5.883   4.678  17.043  0.00  0.00    +0.000 A 
ATOM     13  C   UNL     1       4.727   4.163  16.452  0.00  0.00    +0.000 A 
ATOM     14  C   UNL     1       3.604   3.890  17.248  0.00  0.00    +0.000 A 
ATOM     15  C   UNL     1       3.638   4.100  18.636  0.00  0.00    +0.000 A 
ATOM     16  C   UNL     1       4.843   4.545  19.202  0.00  0.00    +0.000 A 
ATOM     17  C   UNL     1       5.950   4.866  18.417  0.00  0.00    +0.000 A 
BRANCH  12  19
ATOM     18  C   UNL     1       6.784   4.641  14.404  0.00  0.00    +0.000 C 
ATOM     19  S   UNL     1       7.311   5.031  16.053  0.00  0.00    +0.000 S 
ATOM     20  O   UNL     1       8.345   4.089  16.433  0.00  0.00    +0.000 OA
ATOM     21  O   UNL     1       7.553   6.462  16.124  0.00  0.00    +0.000 OA
ENDBRANCH  12  19
ENDBRANCH   1  15
BRANCH   8  22
ATOM     22  C   UNL     1       1.067   9.253  22.104  0.00  0.00    +0.000 C 
ATOM     23  O   UNL     1       0.003   9.836  22.227  0.00  0.00    +0.000 OA
BRANCH  22  24
ATOM     24  O   UNL     1       2.078   9.379  22.986  0.00  0.00    +0.000 OA
ATOM     25  H   UNL     1       2.970   9.482  22.615  0.00  0.00    +0.000 HD
ENDBRANCH  22  24
ENDBRANCH   8  22
TORSDOF 4
ENDMDL
MODEL 9
REMARK VINA RESULT:      -7.1      2.562      4.222
REMARK  Name = 
REMARK  5 active torsions:
REMARK  status: ('A' for Active; 'I' for Inactive)
REMARK    1  A    between atoms: C_1  and  S_2
REMARK    2  A    between atoms: S_2  and  C_5
REMARK    3  A    between atoms: C_8  and  C_9
REMARK    4  A    between atoms: C_16  and  C_17
REMARK    5  A    between atoms: C_17  and  O_19
REMARK                            x       y       z     vdW  Elec       q    Type
REMARK                         _______ _______ _______ _____ _____    ______ ____
ROOT
ATOM      1  C   UNL     1       3.875   6.651  17.282  0.00  0.00    +0.000 A 
ATOM      2  C   UNL     1       4.576   7.098  16.171  0.00  0.00    +0.000 A 
ATOM      3  C   UNL     1       5.420   6.040  15.802  0.00  0.00    +0.000 A 
ATOM      4  N   UNL     1       5.316   4.995  16.620  0.00  0.00    +0.000 NA
ATOM      5  N   UNL     1       4.281   5.321  17.452  0.00  0.00    +0.000 N 
ATOM      6  C   UNL     1       3.745   4.325  18.333  0.00  0.00    +0.000 A 
ATOM      7  C   UNL     1       4.594   3.334  18.819  0.00  0.00    +0.000 A 
ATOM      8  C   UNL     1       4.064   2.408  19.721  0.00  0.00    +0.000 A 
ATOM      9  C   UNL     1       2.724   2.497  20.102  0.00  0.00    +0.000 A 
ATOM     10  C   UNL     1       1.958   3.510  19.568  0.00  0.00    +0.000 A 
ATOM     11  N   UNL     1       2.438   4.415  18.696  0.00  0.00    +0.000 NA
ENDROOT
BRANCH   1  15
ATOM     12  C   UNL     1       1.239   8.851  19.852  0.00  0.00    +0.000 A 
ATOM     13  C   UNL     1       1.435   9.273  18.535  0.00  0.00    +0.000 A 
ATOM     14  C   UNL     1       2.287   8.542  17.693  0.00  0.00    +0.000 A 
ATOM     15  C   UNL     1       2.968   7.409  18.165  0.00  0.00    +0.000 A 
ATOM     16  C   UNL     1       2.804   7.062  19.516  0.00  0.00    +0.000 A 
ATOM     17  C   UNL     1       1.924   7.750  20.350  0.00  0.00    +0.000 A 
BRANCH  12  19
ATOM     18  C   UNL     1      -0.910  10.628  19.815  0.00  0.00    +0.000 C 
ATOM     19  S   UNL     1       0.164   9.760  20.931  0.00  0.00    +0.000 S 
ATOM     20  O   UNL     1       0.977  10.735  21.629  0.00  0.00    +0.000 OA
ATOM     21  O   UNL     1      -0.634   8.797  21.670  0.00  0.00    +0.000 OA
ENDBRANCH  12  19
ENDBRANCH   1  15
BRANCH   8  22
ATOM     22  C   UNL     1       4.880   1.354  20.373  0.00  0.00    +0.000 C 
ATOM     23  O   UNL     1       5.251   1.446  21.531  0.00  0.00    +0.000 OA
BRANCH  22  24
ATOM     24  O   UNL     1       5.147   0.282  19.601  0.00  0.00    +0.000 OA
ATOM     25  H   UNL     1       4.395  -0.294  19.380  0.00  0.00    +0.000 HD
ENDBRANCH  22  24
ENDBRANCH   8  22
TORSDOF 4
ENDMDL
