MODEL 1
REMARK VINA RESULT:      -8.7      0.000      0.000
REMARK  Name = 
REMARK  2 active torsions:
REMARK  status: ('A' for Active; 'I' for Inactive)
REMARK    1  A    between atoms: C_2  and  C_3
REMARK    2  A    between atoms: C_9  and  C_10
REMARK                            x       y       z     vdW  Elec       q    Type
REMARK                         _______ _______ _______ _____ _____    ______ ____
ROOT
ATOM      1  C   UNL     1       2.186   3.026  20.062  0.00  0.00    +0.000 A 
ATOM      2  C   UNL     1       2.267   2.073  19.048  0.00  0.00    +0.000 A 
ATOM      3  C   UNL     1       2.820   2.421  17.815  0.00  0.00    +0.000 A 
ATOM      4  C   UNL     1       3.304   3.721  17.576  0.00  0.00    +0.000 A 
ATOM      5  C   UNL     1       3.205   4.690  18.593  0.00  0.00    +0.000 A 
ATOM      6  C   UNL     1       2.663   4.321  19.842  0.00  0.00    +0.000 A 
ATOM      7  C   UNL     1       3.639   6.124  18.392  0.00  0.00    +0.000 C 
ATOM      8  N   UNL     1       4.744   6.542  17.837  0.00  0.00    +0.000 NA
ATOM      9  C   UNL     1       5.580   5.626  17.199  0.00  0.00    +0.000 A 
ATOM     10  C   UNL     1       6.934   5.768  17.066  0.00  0.00    +0.000 A 
ATOM     11  N   UNL     1       7.326   4.742  16.257  0.00  0.00    +0.000 N 
ATOM     12  N   UNL     1       6.312   3.965  15.828  0.00  0.00    +0.000 NA
ATOM     13  C   UNL     1       5.242   4.493  16.426  0.00  0.00    +0.000 A 
ATOM     14  N   UNL     1       4.005   3.954  16.370  0.00  0.00    +0.000 N 
ATOM     15  H   UNL     1       8.263   4.515  15.944  0.00  0.00    +0.000 HD
ATOM     16  H   UNL     1       3.944   3.175  15.725  0.00  0.00    +0.000 HD
ENDROOT
BRANCH   7  17
ATOM     17  C   UNL     1       2.731   7.206  18.926  0.00  0.00    +0.000 A 
ATOM     18  C   UNL     1       2.303   7.160  20.262  0.00  0.00    +0.000 A 
ATOM     19  C   UNL     1       1.378   8.095  20.738  0.00  0.00    +0.000 A 
ATOM     20  C   UNL     1       0.898   9.101  19.897  0.00  0.00    +0.000 A 
ATOM     21  C   UNL     1       1.378   9.198  18.594  0.00  0.00    +0.000 A 
ATOM     22  C   UNL     1       2.296   8.262  18.122  0.00  0.00    +0.000 A 
ATOM     23  F   UNL     1       2.742   8.408  16.865  0.00  0.00    +0.000 F 
ENDBRANCH   7  17
BRANCH   1  25
ATOM     24  N   UNL     1       1.170   2.379  22.359  0.00  0.00    +0.000 NA
ATOM     25  C   UNL     1       1.622   2.668  21.332  0.00  0.00    +0.000 C 
ENDBRANCH   1  25
TORSDOF 2
ENDMDL
MODEL 2
REMARK VINA RESULT:      -8.7      2.472      5.182
REMARK  Name = 
REMARK  2 active torsions:
REMARK  status: ('A' for Active; 'I' for Inactive)
REMARK    1  A    between atoms: C_2  and  C_3
REMARK    2  A    between atoms: C_9  and  C_10
REMARK                            x       y       z     vdW  Elec       q    Type
REMARK                         _______ _______ _______ _____ _____    ______ ____
ROOT
ATOM      1  C   UNL     1       1.756   3.575  19.322  0.00  0.00    +0.000 A 
ATOM      2  C   UNL     1       1.215   4.022  20.527  0.00  0.00    +0.000 A 
ATOM      3  C   UNL     1       1.414   5.344  20.926  0.00  0.00    +0.000 A 
ATOM      4  C   UNL     1       2.151   6.241  20.129  0.00  0.00    +0.000 A 
ATOM      5  C   UNL     1       2.715   5.785  18.922  0.00  0.00    +0.000 A 
ATOM      6  C   UNL     1       2.490   4.452  18.519  0.00  0.00    +0.000 A 
ATOM      7  C   UNL     1       3.575   6.666  18.045  0.00  0.00    +0.000 C 
ATOM      8  N   UNL     1       3.336   7.899  17.691  0.00  0.00    +0.000 NA
ATOM      9  C   UNL     1       2.273   8.586  18.276  0.00  0.00    +0.000 A 
ATOM     10  C   UNL     1       1.575   9.600  17.677  0.00  0.00    +0.000 A 
ATOM     11  N   UNL     1       0.742  10.083  18.643  0.00  0.00    +0.000 N 
ATOM     12  N   UNL     1       0.875   9.474  19.837  0.00  0.00    +0.000 NA
ATOM     13  C   UNL     1       1.799   8.538  19.606  0.00  0.00    +0.000 A 
ATOM     14  N   UNL     1       2.166   7.603  20.509  0.00  0.00    +0.000 N 
ATOM     15  H   UNL     1       0.063  10.832  18.565  0.00  0.00    +0.000 HD
ATOM     16  H   UNL     1       1.761   7.759  21.424  0.00  0.00    +0.000 HD
ENDROOT
BRANCH   7  17
ATOM     17  C   UNL     1       4.832   6.058  17.469  0.00  0.00    +0.000 A 
ATOM     18  C   UNL     1       5.003   6.000  16.077  0.00  0.00    +0.000 A 
ATOM     19  C   UNL     1       6.111   5.344  15.530  0.00  0.00    +0.000 A 
ATOM     20  C   UNL     1       7.072   4.771  16.365  0.00  0.00    +0.000 A 
ATOM     21  C   UNL     1       6.947   4.893  17.747  0.00  0.00    +0.000 A 
ATOM     22  C   UNL     1       5.841   5.543  18.287  0.00  0.00    +0.000 A 
ATOM     23  F   UNL     1       5.774   5.651  19.624  0.00  0.00    +0.000 F 
ENDBRANCH   7  17
BRANCH   1  25
ATOM     24  N   UNL     1       1.384   1.120  18.575  0.00  0.00    +0.000 NA
ATOM     25  C   UNL     1       1.548   2.217  18.908  0.00  0.00    +0.000 C 
ENDBRANCH   1  25
TORSDOF 2
ENDMDL
MODEL 3
REMARK VINA RESULT:      -8.5      2.433      5.695
REMARK  Name = 
REMARK  2 active torsions:
REMARK  status: ('A' for Active; 'I' for Inactive)
REMARK    1  A    between atoms: C_2  and  C_3
REMARK    2  A    between atoms: C_9  and  C_10
REMARK                            x       y       z     vdW  Elec       q    Type
REMARK                         _______ _______ _______ _____ _____    ______ ____
ROOT
ATOM      1  C   UNL     1       5.540   5.933  18.046  0.00  0.00    +0.000 A 
ATOM      2  C   UNL     1       5.398   6.855  17.010  0.00  0.00    +0.000 A 
ATOM      3  C   UNL     1       4.208   7.573  16.883  0.00  0.00    +0.000 A 
ATOM      4  C   UNL     1       3.146   7.386  17.787  0.00  0.00    +0.000 A 
ATOM      5  C   UNL     1       3.281   6.440  18.822  0.00  0.00    +0.000 A 
ATOM      6  C   UNL     1       4.496   5.735  18.952  0.00  0.00    +0.000 A 
ATOM      7  C   UNL     1       2.162   6.133  19.791  0.00  0.00    +0.000 C 
ATOM      8  N   UNL     1       1.402   6.991  20.414  0.00  0.00    +0.000 NA
ATOM      9  C   UNL     1       1.472   8.342  20.075  0.00  0.00    +0.000 A 
ATOM     10  C   UNL     1       1.196   9.376  20.928  0.00  0.00    +0.000 A 
ATOM     11  N   UNL     1       1.236  10.500  20.157  0.00  0.00    +0.000 N 
ATOM     12  N   UNL     1       1.486  10.262  18.855  0.00  0.00    +0.000 NA
ATOM     13  C   UNL     1       1.655   8.938  18.808  0.00  0.00    +0.000 A 
ATOM     14  N   UNL     1       2.043   8.267  17.702  0.00  0.00    +0.000 N 
ATOM     15  H   UNL     1       1.093  11.461  20.445  0.00  0.00    +0.000 HD
ATOM     16  H   UNL     1       2.073   8.853  16.876  0.00  0.00    +0.000 HD
ENDROOT
BRANCH   7  17
ATOM     17  C   UNL     1       1.909   4.682  20.122  0.00  0.00    +0.000 A 
ATOM     18  C   UNL     1       2.177   4.205  21.414  0.00  0.00    +0.000 A 
ATOM     19  C   UNL     1       2.048   2.842  21.704  0.00  0.00    +0.000 A 
ATOM     20  C   UNL     1       1.622   1.951  20.718  0.00  0.00    +0.000 A 
ATOM     21  C   UNL     1       1.281   2.430  19.455  0.00  0.00    +0.000 A 
ATOM     22  C   UNL     1       1.413   3.786  19.170  0.00  0.00    +0.000 A 
ATOM     23  F   UNL     1       1.055   4.202  17.945  0.00  0.00    +0.000 F 
ENDBRANCH   7  17
BRANCH   1  25
ATOM     24  N   UNL     1       7.751   4.599  18.293  0.00  0.00    +0.000 NA
ATOM     25  C   UNL     1       6.765   5.196  18.181  0.00  0.00    +0.000 C 
ENDBRANCH   1  25
TORSDOF 2
ENDMDL
MODEL 4
REMARK VINA RESULT:      -8.3      0.974      1.395
REMARK  Name = 
REMARK  2 active torsions:
REMARK  status: ('A' for Active; 'I' for Inactive)
REMARK    1  A    between atoms: C_2  and  C_3
REMARK    2  A    between atoms: C_9  and  C_10
REMARK                            x       y       z     vdW  Elec       q    Type
REMARK                         _______ _______ _______ _____ _____    ______ ____
ROOT
ATOM      1  C   UNL     1       2.238   3.131  19.899  0.00  0.00    +0.000 A 
ATOM      2  C   UNL     1       2.422   2.136  18.941  0.00  0.00    +0.000 A 
ATOM      3  C   UNL     1       3.023   2.451  17.722  0.00  0.00    +0.000 A 
ATOM      4  C   UNL     1       3.454   3.762  17.442  0.00  0.00    +0.000 A 
ATOM      5  C   UNL     1       3.251   4.773  18.402  0.00  0.00    +0.000 A 
ATOM      6  C   UNL     1       2.661   4.437  19.638  0.00  0.00    +0.000 A 
ATOM      7  C   UNL     1       3.624   6.216  18.150  0.00  0.00    +0.000 C 
ATOM      8  N   UNL     1       4.735   6.664  17.632  0.00  0.00    +0.000 NA
ATOM      9  C   UNL     1       5.649   5.764  17.087  0.00  0.00    +0.000 A 
ATOM     10  C   UNL     1       7.000   5.969  17.018  0.00  0.00    +0.000 A 
ATOM     11  N   UNL     1       7.486   4.928  16.284  0.00  0.00    +0.000 N 
ATOM     12  N   UNL     1       6.538   4.078  15.843  0.00  0.00    +0.000 NA
ATOM     13  C   UNL     1       5.411   4.578  16.357  0.00  0.00    +0.000 A 
ATOM     14  N   UNL     1       4.208   3.972  16.265  0.00  0.00    +0.000 N 
ATOM     15  H   UNL     1       8.450   4.735  16.033  0.00  0.00    +0.000 HD
ATOM     16  H   UNL     1       4.221   3.161  15.658  0.00  0.00    +0.000 HD
ENDROOT
BRANCH   7  17
ATOM     17  C   UNL     1       2.635   7.273  18.579  0.00  0.00    +0.000 A 
ATOM     18  C   UNL     1       2.105   8.158  17.627  0.00  0.00    +0.000 A 
ATOM     19  C   UNL     1       1.271   9.208  18.029  0.00  0.00    +0.000 A 
ATOM     20  C   UNL     1       0.935   9.364  19.374  0.00  0.00    +0.000 A 
ATOM     21  C   UNL     1       1.396   8.443  20.312  0.00  0.00    +0.000 A 
ATOM     22  C   UNL     1       2.228   7.402  19.909  0.00  0.00    +0.000 A 
ATOM     23  F   UNL     1       2.631   6.530  20.847  0.00  0.00    +0.000 F 
ENDBRANCH   7  17
BRANCH   1  25
ATOM     24  N   UNL     1       1.131   2.546  22.171  0.00  0.00    +0.000 NA
ATOM     25  C   UNL     1       1.624   2.807  21.155  0.00  0.00    +0.000 C 
ENDBRANCH   1  25
TORSDOF 2
ENDMDL
MODEL 5
REMARK VINA RESULT:      -7.9      2.340      5.013
REMARK  Name = 
REMARK  2 active torsions:
REMARK  status: ('A' for Active; 'I' for Inactive)
REMARK    1  A    between atoms: C_2  and  C_3
REMARK    2  A    between atoms: C_9  and  C_10
REMARK                            x       y       z     vdW  Elec       q    Type
REMARK                         _______ _______ _______ _____ _____    ______ ____
ROOT
ATOM      1  C   UNL     1       1.724   3.631  19.314  0.00  0.00    +0.000 A 
ATOM      2  C   UNL     1       1.095   4.075  20.476  0.00  0.00    +0.000 A 
ATOM      3  C   UNL     1       1.263   5.396  20.892  0.00  0.00    +0.000 A 
ATOM      4  C   UNL     1       2.057   6.295  20.155  0.00  0.00    +0.000 A 
ATOM      5  C   UNL     1       2.709   5.843  18.991  0.00  0.00    +0.000 A 
ATOM      6  C   UNL     1       2.515   4.511  18.570  0.00  0.00    +0.000 A 
ATOM      7  C   UNL     1       3.632   6.726  18.183  0.00  0.00    +0.000 C 
ATOM      8  N   UNL     1       3.418   7.960  17.815  0.00  0.00    +0.000 NA
ATOM      9  C   UNL     1       2.314   8.645  18.321  0.00  0.00    +0.000 A 
ATOM     10  C   UNL     1       1.662   9.660  17.674  0.00  0.00    +0.000 A 
ATOM     11  N   UNL     1       0.759  10.140  18.576  0.00  0.00    +0.000 N 
ATOM     12  N   UNL     1       0.804   9.529  19.776  0.00  0.00    +0.000 NA
ATOM     13  C   UNL     1       1.743   8.594  19.612  0.00  0.00    +0.000 A 
ATOM     14  N   UNL     1       2.042   7.657  20.537  0.00  0.00    +0.000 N 
ATOM     15  H   UNL     1       0.087  10.889  18.450  0.00  0.00    +0.000 HD
ATOM     16  H   UNL     1       1.570   7.810  21.420  0.00  0.00    +0.000 HD
ENDROOT
BRANCH   7  17
ATOM     17  C   UNL     1       4.928   6.120  17.701  0.00  0.00    +0.000 A 
ATOM     18  C   UNL     1       5.775   5.472  18.613  0.00  0.00    +0.000 A 
ATOM     19  C   UNL     1       7.026   5.000  18.199  0.00  0.00    +0.000 A 
ATOM     20  C   UNL     1       7.427   5.143  16.870  0.00  0.00    +0.000 A 
ATOM     21  C   UNL     1       6.558   5.715  15.944  0.00  0.00    +0.000 A 
ATOM     22  C   UNL     1       5.316   6.187  16.360  0.00  0.00    +0.000 A 
ATOM     23  F   UNL     1       4.507   6.714  15.428  0.00  0.00    +0.000 F 
ENDBRANCH   7  17
BRANCH   1  25
ATOM     24  N   UNL     1       1.411   1.177  18.536  0.00  0.00    +0.000 NA
ATOM     25  C   UNL     1       1.549   2.274  18.883  0.00  0.00    +0.000 C 
ENDBRANCH   1  25
TORSDOF 2
ENDMDL
MODEL 6
REMARK VINA RESULT:      -7.9      2.618      5.866
REMARK  Name = 
REMARK  2 active torsions:
REMARK  status: ('A' for Active; 'I' for Inactive)
REMARK    1  A    between atoms: C_2  and  C_3
REMARK    2  A    between atoms: C_9  and  C_10
REMARK                            x       y       z     vdW  Elec       q    Type
REMARK                         _______ _______ _______ _____ _____    ______ ____
ROOT
ATOM      1  C   UNL     1       5.582   5.923  18.012  0.00  0.00    +0.000 A 
ATOM      2  C   UNL     1       5.503   6.952  17.074  0.00  0.00    +0.000 A 
ATOM      3  C   UNL     1       4.330   7.700  16.967  0.00  0.00    +0.000 A 
ATOM      4  C   UNL     1       3.222   7.438  17.794  0.00  0.00    +0.000 A 
ATOM      5  C   UNL     1       3.294   6.386  18.728  0.00  0.00    +0.000 A 
ATOM      6  C   UNL     1       4.492   5.650  18.841  0.00  0.00    +0.000 A 
ATOM      7  C   UNL     1       2.125   5.999  19.604  0.00  0.00    +0.000 C 
ATOM      8  N   UNL     1       1.345   6.800  20.278  0.00  0.00    +0.000 NA
ATOM      9  C   UNL     1       1.449   8.177  20.088  0.00  0.00    +0.000 A 
ATOM     10  C   UNL     1       1.144   9.120  21.032  0.00  0.00    +0.000 A 
ATOM     11  N   UNL     1       1.237  10.318  20.387  0.00  0.00    +0.000 N 
ATOM     12  N   UNL     1       1.548  10.215  19.080  0.00  0.00    +0.000 NA
ATOM     13  C   UNL     1       1.702   8.901  18.901  0.00  0.00    +0.000 A 
ATOM     14  N   UNL     1       2.136   8.343  17.750  0.00  0.00    +0.000 N 
ATOM     15  H   UNL     1       1.091  11.247  20.768  0.00  0.00    +0.000 HD
ATOM     16  H   UNL     1       2.214   9.012  16.994  0.00  0.00    +0.000 HD
ENDROOT
BRANCH   7  17
ATOM     17  C   UNL     1       1.837   4.525  19.767  0.00  0.00    +0.000 A 
ATOM     18  C   UNL     1       1.377   3.780  18.670  0.00  0.00    +0.000 A 
ATOM     19  C   UNL     1       1.006   2.441  18.834  0.00  0.00    +0.000 A 
ATOM     20  C   UNL     1       1.122   1.827  20.082  0.00  0.00    +0.000 A 
ATOM     21  C   UNL     1       1.651   2.539  21.155  0.00  0.00    +0.000 A 
ATOM     22  C   UNL     1       2.016   3.873  20.989  0.00  0.00    +0.000 A 
ATOM     23  F   UNL     1       2.538   4.511  22.048  0.00  0.00    +0.000 F 
ENDBRANCH   7  17
BRANCH   1  25
ATOM     24  N   UNL     1       7.761   4.532  18.218  0.00  0.00    +0.000 NA
ATOM     25  C   UNL     1       6.789   5.155  18.126  0.00  0.00    +0.000 C 
ENDBRANCH   1  25
TORSDOF 2
ENDMDL
MODEL 7
REMARK VINA RESULT:      -7.9      2.366      4.663
REMARK  Name = 
REMARK  2 active torsions:
REMARK  status: ('A' for Active; 'I' for Inactive)
REMARK    1  A    between atoms: C_2  and  C_3
REMARK    2  A    between atoms: C_9  and  C_10
REMARK                            x       y       z     vdW  Elec       q    Type
REMARK                         _______ _______ _______ _____ _____    ______ ____
ROOT
ATOM      1  C   UNL     1       6.710   6.784  18.121  0.00  0.00    +0.000 A 
ATOM      2  C   UNL     1       7.349   5.769  18.833  0.00  0.00    +0.000 A 
ATOM      3  C   UNL     1       6.592   4.760  19.427  0.00  0.00    +0.000 A 
ATOM      4  C   UNL     1       5.188   4.743  19.318  0.00  0.00    +0.000 A 
ATOM      5  C   UNL     1       4.541   5.778  18.615  0.00  0.00    +0.000 A 
ATOM      6  C   UNL     1       5.318   6.782  18.002  0.00  0.00    +0.000 A 
ATOM      7  C   UNL     1       3.035   5.868  18.511  0.00  0.00    +0.000 C 
ATOM      8  N   UNL     1       2.205   4.900  18.232  0.00  0.00    +0.000 NA
ATOM      9  C   UNL     1       2.677   3.590  18.171  0.00  0.00    +0.000 A 
ATOM     10  C   UNL     1       2.128   2.598  17.404  0.00  0.00    +0.000 A 
ATOM     11  N   UNL     1       2.791   1.460  17.758  0.00  0.00    +0.000 N 
ATOM     12  N   UNL     1       3.709   1.639  18.727  0.00  0.00    +0.000 NA
ATOM     13  C   UNL     1       3.657   2.953  18.964  0.00  0.00    +0.000 A 
ATOM     14  N   UNL     1       4.502   3.602  19.794  0.00  0.00    +0.000 N 
ATOM     15  H   UNL     1       2.664   0.523  17.392  0.00  0.00    +0.000 HD
ATOM     16  H   UNL     1       5.101   2.974  20.316  0.00  0.00    +0.000 HD
ENDROOT
BRANCH   7  17
ATOM     17  C   UNL     1       2.406   7.228  18.701  0.00  0.00    +0.000 A 
ATOM     18  C   UNL     1       2.388   8.142  17.636  0.00  0.00    +0.000 A 
ATOM     19  C   UNL     1       1.904   9.440  17.830  0.00  0.00    +0.000 A 
ATOM     20  C   UNL     1       1.407   9.827  19.075  0.00  0.00    +0.000 A 
ATOM     21  C   UNL     1       1.352   8.901  20.114  0.00  0.00    +0.000 A 
ATOM     22  C   UNL     1       1.837   7.610  19.918  0.00  0.00    +0.000 A 
ATOM     23  F   UNL     1       1.745   6.749  20.943  0.00  0.00    +0.000 F 
ENDBRANCH   7  17
BRANCH   1  25
ATOM     24  N   UNL     1       8.118   8.658  17.012  0.00  0.00    +0.000 NA
ATOM     25  C   UNL     1       7.488   7.821  17.505  0.00  0.00    +0.000 C 
ENDBRANCH   1  25
TORSDOF 2
ENDMDL
MODEL 8
REMARK VINA RESULT:      -7.7      2.168      4.452
REMARK  Name = 
REMARK  2 active torsions:
REMARK  status: ('A' for Active; 'I' for Inactive)
REMARK    1  A    between atoms: C_2  and  C_3
REMARK    2  A    between atoms: C_9  and  C_10
REMARK                            x       y       z     vdW  Elec       q    Type
REMARK                         _______ _______ _______ _____ _____    ______ ____
ROOT
ATOM      1  C   UNL     1       6.773   6.739  18.153  0.00  0.00    +0.000 A 
ATOM      2  C   UNL     1       7.459   5.708  18.792  0.00  0.00    +0.000 A 
ATOM      3  C   UNL     1       6.745   4.667  19.387  0.00  0.00    +0.000 A 
ATOM      4  C   UNL     1       5.338   4.636  19.350  0.00  0.00    +0.000 A 
ATOM      5  C   UNL     1       4.643   5.688  18.721  0.00  0.00    +0.000 A 
ATOM      6  C   UNL     1       5.376   6.724  18.106  0.00  0.00    +0.000 A 
ATOM      7  C   UNL     1       3.134   5.762  18.698  0.00  0.00    +0.000 C 
ATOM      8  N   UNL     1       2.301   4.794  18.428  0.00  0.00    +0.000 NA
ATOM      9  C   UNL     1       2.784   3.493  18.293  0.00  0.00    +0.000 A 
ATOM     10  C   UNL     1       2.206   2.522  17.519  0.00  0.00    +0.000 A 
ATOM     11  N   UNL     1       2.899   1.381  17.796  0.00  0.00    +0.000 N 
ATOM     12  N   UNL     1       3.865   1.537  18.721  0.00  0.00    +0.000 NA
ATOM     13  C   UNL     1       3.811   2.840  19.010  0.00  0.00    +0.000 A 
ATOM     14  N   UNL     1       4.691   3.470  19.818  0.00  0.00    +0.000 N 
ATOM     15  H   UNL     1       2.764   0.456  17.402  0.00  0.00    +0.000 HD
ATOM     16  H   UNL     1       5.323   2.831  20.285  0.00  0.00    +0.000 HD
ENDROOT
BRANCH   7  17
ATOM     17  C   UNL     1       2.500   7.105  18.971  0.00  0.00    +0.000 A 
ATOM     18  C   UNL     1       2.005   7.394  20.252  0.00  0.00    +0.000 A 
ATOM     19  C   UNL     1       1.322   8.592  20.490  0.00  0.00    +0.000 A 
ATOM     20  C   UNL     1       1.155   9.522  19.463  0.00  0.00    +0.000 A 
ATOM     21  C   UNL     1       1.712   9.275  18.210  0.00  0.00    +0.000 A 
ATOM     22  C   UNL     1       2.388   8.080  17.977  0.00  0.00    +0.000 A 
ATOM     23  F   UNL     1       2.922   7.895  16.759  0.00  0.00    +0.000 F 
ENDBRANCH   7  17
BRANCH   1  25
ATOM     24  N   UNL     1       8.096   8.674  17.043  0.00  0.00    +0.000 NA
ATOM     25  C   UNL     1       7.506   7.808  17.537  0.00  0.00    +0.000 C 
ENDBRANCH   1  25
TORSDOF 2
ENDMDL
MODEL 9
REMARK VINA RESULT:      -7.6      6.076      9.446
REMARK  Name = 
REMARK  2 active torsions:
REMARK  status: ('A' for Active; 'I' for Inactive)
REMARK    1  A    between atoms: C_2  and  C_3
REMARK    2  A    between atoms: C_9  and  C_10
REMARK                            x       y       z     vdW  Elec       q    Type
REMARK                         _______ _______ _______ _____ _____    ______ ____
ROOT
ATOM      1  C   UNL     1      -0.464  14.570  19.788  0.00  0.00    +0.000 A 
ATOM      2  C   UNL     1      -0.421  14.743  21.171  0.00  0.00    +0.000 A 
ATOM      3  C   UNL     1      -0.589  13.642  22.011  0.00  0.00    +0.000 A 
ATOM      4  C   UNL     1      -0.798  12.353  21.486  0.00  0.00    +0.000 A 
ATOM      5  C   UNL     1      -0.862  12.180  20.090  0.00  0.00    +0.000 A 
ATOM      6  C   UNL     1      -0.670  13.297  19.251  0.00  0.00    +0.000 A 
ATOM      7  C   UNL     1      -1.150  10.840  19.452  0.00  0.00    +0.000 C 
ATOM      8  N   UNL     1      -0.621   9.689  19.763  0.00  0.00    +0.000 NA
ATOM      9  C   UNL     1       0.182   9.588  20.898  0.00  0.00    +0.000 A 
ATOM     10  C   UNL     1       1.195   8.682  21.059  0.00  0.00    +0.000 A 
ATOM     11  N   UNL     1       1.606   8.827  22.351  0.00  0.00    +0.000 N 
ATOM     12  N   UNL     1       0.905   9.741  23.050  0.00  0.00    +0.000 NA
ATOM     13  C   UNL     1       0.046  10.226  22.151  0.00  0.00    +0.000 A 
ATOM     14  N   UNL     1      -0.786  11.263  22.388  0.00  0.00    +0.000 N 
ATOM     15  H   UNL     1       2.349   8.330  22.831  0.00  0.00    +0.000 HD
ATOM     16  H   UNL     1      -0.783  11.557  23.357  0.00  0.00    +0.000 HD
ENDROOT
BRANCH   7  17
ATOM     17  C   UNL     1      -2.121  10.817  18.295  0.00  0.00    +0.000 A 
ATOM     18  C   UNL     1      -1.777  10.147  17.111  0.00  0.00    +0.000 A 
ATOM     19  C   UNL     1      -2.620  10.208  15.996  0.00  0.00    +0.000 A 
ATOM     20  C   UNL     1      -3.825  10.910  16.063  0.00  0.00    +0.000 A 
ATOM     21  C   UNL     1      -4.207  11.512  17.259  0.00  0.00    +0.000 A 
ATOM     22  C   UNL     1      -3.363  11.452  18.365  0.00  0.00    +0.000 A 
ATOM     23  F   UNL     1      -3.784  12.032  19.501  0.00  0.00    +0.000 F 
ENDBRANCH   7  17
BRANCH   1  25
ATOM     24  N   UNL     1      -0.142  16.612  18.222  0.00  0.00    +0.000 NA
ATOM     25  C   UNL     1      -0.287  15.701  18.923  0.00  0.00    +0.000 C 
ENDBRANCH   1  25
TORSDOF 2
ENDMDL
