MODEL 1
REMARK VINA RESULT:      -9.5      0.000      0.000
REMARK  Name = 
REMARK  5 active torsions:
REMARK  status: ('A' for Active; 'I' for Inactive)
REMARK    1  A    between atoms: C_2  and  C_20
REMARK    2  A    between atoms: N_3  and  C_4
REMARK    3  A    between atoms: C_9  and  S_10
REMARK    4  A    between atoms: S_10  and  N_13
REMARK    5  A    between atoms: N_22  and  C_23
REMARK                            x       y       z     vdW  Elec       q    Type
REMARK                         _______ _______ _______ _____ _____    ______ ____
ROOT
ATOM      1  O   UNL     1       2.139   8.417  18.970  0.00  0.00    +0.000 OA
ATOM      2  C   UNL     1       1.774   7.639  19.855  0.00  0.00    +0.000 C 
ATOM      3  N   UNL     1       0.913   7.879  20.916  0.00  0.00    +0.000 N 
ATOM      4  H   UNL     1       0.761   7.112  21.569  0.00  0.00    +0.000 HD
ENDROOT
BRANCH   3   5
ATOM      5  C   UNL     1       0.229   9.100  21.129  0.00  0.00    +0.000 A 
ATOM      6  C   UNL     1       0.041   9.594  22.420  0.00  0.00    +0.000 A 
ATOM      7  C   UNL     1      -0.577  10.814  22.649  0.00  0.00    +0.000 A 
ATOM      8  C   UNL     1      -1.029  11.589  21.585  0.00  0.00    +0.000 A 
ATOM      9 CL   UNL     1      -1.546  13.169  22.034  0.00  0.00    +0.000 Cl
ATOM     10  C   UNL     1      -0.951  11.084  20.285  0.00  0.00    +0.000 A 
ATOM     11  C   UNL     1      -0.289   9.843  20.055  0.00  0.00    +0.000 A 
BRANCH  10  12
ATOM     12  S   UNL     1      -2.000  11.739  18.988  0.00  0.00    +0.000 S 
ATOM     13  O   UNL     1      -3.091  12.410  19.670  0.00  0.00    +0.000 OA
ATOM     14  O   UNL     1      -1.185  12.486  18.056  0.00  0.00    +0.000 OA
BRANCH  12  15
ATOM     15  N   UNL     1      -2.667  10.396  18.180  0.00  0.00    +0.000 NA
ATOM     16  C   UNL     1      -2.086  10.013  16.850  0.00  0.00    +0.000 C 
ATOM     17  C   UNL     1      -2.649  10.851  15.687  0.00  0.00    +0.000 C 
ATOM     18  O   UNL     1      -4.083  10.855  15.665  0.00  0.00    +0.000 OA
ATOM     19  C   UNL     1      -4.618  11.321  16.912  0.00  0.00    +0.000 C 
ATOM     20  C   UNL     1      -4.164  10.410  18.055  0.00  0.00    +0.000 C 
ENDBRANCH  12  15
ENDBRANCH  10  12
ENDBRANCH   3   5
BRANCH   2  21
ATOM     21  C   UNL     1       2.386   6.269  19.780  0.00  0.00    +0.000 C 
ATOM     22  N   UNL     1       3.283   6.019  18.880  0.00  0.00    +0.000 NA
ATOM     23  N   UNL     1       3.866   4.763  18.874  0.00  0.00    +0.000 N 
ATOM     24  C   UNL     1       3.397   3.680  19.630  0.00  0.00    +0.000 C 
ATOM     25  O   UNL     1       3.915   2.560  19.691  0.00  0.00    +0.000 OA
ATOM     26  C   UNL     1       2.116   3.912  20.384  0.00  0.00    +0.000 C 
ATOM     27  C   UNL     1       1.976   5.324  20.861  0.00  0.00    +0.000 C 
BRANCH  23  28
ATOM     28  C   UNL     1       4.965   4.654  17.963  0.00  0.00    +0.000 A 
ATOM     29  C   UNL     1       6.287   4.857  18.382  0.00  0.00    +0.000 A 
ATOM     30  C   UNL     1       7.355   4.700  17.494  0.00  0.00    +0.000 A 
ATOM     31  C   UNL     1       7.117   4.367  16.164  0.00  0.00    +0.000 A 
ATOM     32  C   UNL     1       5.810   4.181  15.723  0.00  0.00    +0.000 A 
ATOM     33  C   UNL     1       4.743   4.309  16.618  0.00  0.00    +0.000 A 
ENDBRANCH  23  28
ENDBRANCH   2  21
TORSDOF 5
ENDMDL
MODEL 2
REMARK VINA RESULT:      -9.1      2.587      3.407
REMARK  Name = 
REMARK  5 active torsions:
REMARK  status: ('A' for Active; 'I' for Inactive)
REMARK    1  A    between atoms: C_2  and  C_20
REMARK    2  A    between atoms: N_3  and  C_4
REMARK    3  A    between atoms: C_9  and  S_10
REMARK    4  A    between atoms: S_10  and  N_13
REMARK    5  A    between atoms: N_22  and  C_23
REMARK                            x       y       z     vdW  Elec       q    Type
REMARK                         _______ _______ _______ _____ _____    ______ ____
ROOT
ATOM      1  O   UNL     1       2.092   8.124  19.020  0.00  0.00    +0.000 OA
ATOM      2  C   UNL     1       1.937   7.376  19.988  0.00  0.00    +0.000 C 
ATOM      3  N   UNL     1       1.327   7.652  21.204  0.00  0.00    +0.000 N 
ATOM      4  H   UNL     1       1.327   6.908  21.900  0.00  0.00    +0.000 HD
ENDROOT
BRANCH   3   5
ATOM      5  C   UNL     1       0.695   8.880  21.520  0.00  0.00    +0.000 A 
ATOM      6  C   UNL     1      -0.156   8.978  22.622  0.00  0.00    +0.000 A 
ATOM      7  C   UNL     1      -0.740  10.182  22.983  0.00  0.00    +0.000 A 
ATOM      8  C   UNL     1      -0.490  11.338  22.250  0.00  0.00    +0.000 A 
ATOM      9 CL   UNL     1      -1.097  12.778  22.975  0.00  0.00    +0.000 Cl
ATOM     10  C   UNL     1       0.274  11.261  21.083  0.00  0.00    +0.000 A 
ATOM     11  C   UNL     1       0.895  10.027  20.735  0.00  0.00    +0.000 A 
BRANCH  10  12
ATOM     12  S   UNL     1       0.153  12.535  19.827  0.00  0.00    +0.000 S 
ATOM     13  O   UNL     1       0.837  12.002  18.664  0.00  0.00    +0.000 OA
ATOM     14  O   UNL     1      -1.228  12.947  19.708  0.00  0.00    +0.000 OA
BRANCH  12  15
ATOM     15  N   UNL     1       1.072  13.855  20.387  0.00  0.00    +0.000 NA
ATOM     16  C   UNL     1       0.451  15.220  20.337  0.00  0.00    +0.000 C 
ATOM     17  C   UNL     1       0.559  15.876  18.948  0.00  0.00    +0.000 C 
ATOM     18  O   UNL     1       1.904  15.881  18.453  0.00  0.00    +0.000 OA
ATOM     19  C   UNL     1       2.446  14.554  18.413  0.00  0.00    +0.000 C 
ATOM     20  C   UNL     1       2.460  13.946  19.818  0.00  0.00    +0.000 C 
ENDBRANCH  12  15
ENDBRANCH  10  12
ENDBRANCH   3   5
BRANCH   2  21
ATOM     21  C   UNL     1       2.528   6.005  19.827  0.00  0.00    +0.000 C 
ATOM     22  N   UNL     1       3.371   5.782  18.869  0.00  0.00    +0.000 NA
ATOM     23  N   UNL     1       3.939   4.522  18.782  0.00  0.00    +0.000 N 
ATOM     24  C   UNL     1       3.501   3.415  19.523  0.00  0.00    +0.000 C 
ATOM     25  O   UNL     1       4.010   2.290  19.512  0.00  0.00    +0.000 OA
ATOM     26  C   UNL     1       2.268   3.629  20.356  0.00  0.00    +0.000 C 
ATOM     27  C   UNL     1       2.170   5.024  20.894  0.00  0.00    +0.000 C 
BRANCH  23  28
ATOM     28  C   UNL     1       4.983   4.439  17.807  0.00  0.00    +0.000 A 
ATOM     29  C   UNL     1       4.715   4.109  16.472  0.00  0.00    +0.000 A 
ATOM     30  C   UNL     1       5.738   4.078  15.519  0.00  0.00    +0.000 A 
ATOM     31  C   UNL     1       7.051   4.348  15.893  0.00  0.00    +0.000 A 
ATOM     32  C   UNL     1       7.342   4.658  17.218  0.00  0.00    +0.000 A 
ATOM     33  C   UNL     1       6.314   4.717  18.165  0.00  0.00    +0.000 A 
ENDBRANCH  23  28
ENDBRANCH   2  21
TORSDOF 5
ENDMDL
MODEL 3
REMARK VINA RESULT:      -8.9      4.048      9.170
REMARK  Name = 
REMARK  5 active torsions:
REMARK  status: ('A' for Active; 'I' for Inactive)
REMARK    1  A    between atoms: C_2  and  C_20
REMARK    2  A    between atoms: N_3  and  C_4
REMARK    3  A    between atoms: C_9  and  S_10
REMARK    4  A    between atoms: S_10  and  N_13
REMARK    5  A    between atoms: N_22  and  C_23
REMARK                            x       y       z     vdW  Elec       q    Type
REMARK                         _______ _______ _______ _____ _____    ______ ____
ROOT
ATOM      1  O   UNL     1       1.574   8.349  19.214  0.00  0.00    +0.000 OA
ATOM      2  C   UNL     1       1.151   8.074  20.340  0.00  0.00    +0.000 C 
ATOM      3  N   UNL     1       1.112   6.839  20.970  0.00  0.00    +0.000 N 
ATOM      4  H   UNL     1       0.688   6.806  21.896  0.00  0.00    +0.000 HD
ENDROOT
BRANCH   3   5
ATOM      5  C   UNL     1       1.637   5.644  20.419  0.00  0.00    +0.000 A 
ATOM      6  C   UNL     1       0.866   4.481  20.379  0.00  0.00    +0.000 A 
ATOM      7  C   UNL     1       1.339   3.317  19.795  0.00  0.00    +0.000 A 
ATOM      8  C   UNL     1       2.607   3.275  19.224  0.00  0.00    +0.000 A 
ATOM      9 CL   UNL     1       2.935   1.836  18.337  0.00  0.00    +0.000 Cl
ATOM     10  C   UNL     1       3.447   4.387  19.333  0.00  0.00    +0.000 A 
ATOM     11  C   UNL     1       2.944   5.589  19.909  0.00  0.00    +0.000 A 
BRANCH  10  12
ATOM     12  S   UNL     1       5.222   4.210  19.151  0.00  0.00    +0.000 S 
ATOM     13  O   UNL     1       5.792   5.435  19.680  0.00  0.00    +0.000 OA
ATOM     14  O   UNL     1       5.628   2.942  19.712  0.00  0.00    +0.000 OA
BRANCH  12  15
ATOM     15  N   UNL     1       5.537   4.195  17.477  0.00  0.00    +0.000 NA
ATOM     16  C   UNL     1       6.918   4.557  17.015  0.00  0.00    +0.000 C 
ATOM     17  C   UNL     1       7.142   6.078  16.930  0.00  0.00    +0.000 C 
ATOM     18  O   UNL     1       6.129   6.734  16.156  0.00  0.00    +0.000 OA
ATOM     19  C   UNL     1       4.820   6.456  16.674  0.00  0.00    +0.000 C 
ATOM     20  C   UNL     1       4.545   4.951  16.638  0.00  0.00    +0.000 C 
ENDBRANCH  12  15
ENDBRANCH  10  12
ENDBRANCH   3   5
BRANCH   2  21
ATOM     21  C   UNL     1       0.569   9.235  21.095  0.00  0.00    +0.000 C 
ATOM     22  N   UNL     1       0.801  10.442  20.689  0.00  0.00    +0.000 NA
ATOM     23  N   UNL     1       0.204  11.486  21.375  0.00  0.00    +0.000 N 
ATOM     24  C   UNL     1      -0.453  11.338  22.605  0.00  0.00    +0.000 C 
ATOM     25  O   UNL     1      -1.040  12.231  23.225  0.00  0.00    +0.000 OA
ATOM     26  C   UNL     1      -0.375   9.972  23.230  0.00  0.00    +0.000 C 
ATOM     27  C   UNL     1      -0.353   8.874  22.213  0.00  0.00    +0.000 C 
BRANCH  23  28
ATOM     28  C   UNL     1       0.378  12.755  20.738  0.00  0.00    +0.000 A 
ATOM     29  C   UNL     1       1.439  13.606  21.075  0.00  0.00    +0.000 A 
ATOM     30  C   UNL     1       1.626  14.822  20.411  0.00  0.00    +0.000 A 
ATOM     31  C   UNL     1       0.737  15.221  19.418  0.00  0.00    +0.000 A 
ATOM     32  C   UNL     1      -0.336  14.400  19.081  0.00  0.00    +0.000 A 
ATOM     33  C   UNL     1      -0.505  13.170  19.726  0.00  0.00    +0.000 A 
ENDBRANCH  23  28
ENDBRANCH   2  21
TORSDOF 5
ENDMDL
MODEL 4
REMARK VINA RESULT:      -8.9      3.403      9.481
REMARK  Name = 
REMARK  5 active torsions:
REMARK  status: ('A' for Active; 'I' for Inactive)
REMARK    1  A    between atoms: C_2  and  C_20
REMARK    2  A    between atoms: N_3  and  C_4
REMARK    3  A    between atoms: C_9  and  S_10
REMARK    4  A    between atoms: S_10  and  N_13
REMARK    5  A    between atoms: N_22  and  C_23
REMARK                            x       y       z     vdW  Elec       q    Type
REMARK                         _______ _______ _______ _____ _____    ______ ____
ROOT
ATOM      1  O   UNL     1       1.148   8.875  21.563  0.00  0.00    +0.000 OA
ATOM      2  C   UNL     1       1.126   9.011  20.337  0.00  0.00    +0.000 C 
ATOM      3  N   UNL     1       1.561   8.126  19.362  0.00  0.00    +0.000 N 
ATOM      4  H   UNL     1       1.493   8.435  18.393  0.00  0.00    +0.000 HD
ENDROOT
BRANCH   3   5
ATOM      5  C   UNL     1       2.066   6.829  19.628  0.00  0.00    +0.000 A 
ATOM      6  C   UNL     1       1.667   6.131  20.768  0.00  0.00    +0.000 A 
ATOM      7  C   UNL     1       2.105   4.840  21.019  0.00  0.00    +0.000 A 
ATOM      8  C   UNL     1       2.963   4.198  20.132  0.00  0.00    +0.000 A 
ATOM      9 CL   UNL     1       3.209   2.528  20.473  0.00  0.00    +0.000 Cl
ATOM     10  C   UNL     1       3.465   4.899  19.033  0.00  0.00    +0.000 A 
ATOM     11  C   UNL     1       2.988   6.215  18.765  0.00  0.00    +0.000 A 
BRANCH  10  12
ATOM     12  S   UNL     1       4.964   4.356  18.212  0.00  0.00    +0.000 S 
ATOM     13  O   UNL     1       5.886   4.005  19.277  0.00  0.00    +0.000 OA
ATOM     14  O   UNL     1       4.623   3.363  17.219  0.00  0.00    +0.000 OA
BRANCH  12  15
ATOM     15  N   UNL     1       5.606   5.722  17.424  0.00  0.00    +0.000 NA
ATOM     16  C   UNL     1       5.110   6.040  16.044  0.00  0.00    +0.000 C 
ATOM     17  C   UNL     1       5.814   5.217  14.950  0.00  0.00    +0.000 C 
ATOM     18  O   UNL     1       7.243   5.304  15.039  0.00  0.00    +0.000 OA
ATOM     19  C   UNL     1       7.706   4.900  16.335  0.00  0.00    +0.000 C 
ATOM     20  C   UNL     1       7.107   5.803  17.417  0.00  0.00    +0.000 C 
ENDBRANCH  12  15
ENDBRANCH  10  12
ENDBRANCH   3   5
BRANCH   2  21
ATOM     21  C   UNL     1       0.595  10.332  19.859  0.00  0.00    +0.000 C 
ATOM     22  N   UNL     1      -0.485  10.365  19.144  0.00  0.00    +0.000 NA
ATOM     23  N   UNL     1      -0.977  11.602  18.766  0.00  0.00    +0.000 N 
ATOM     24  C   UNL     1      -0.271  12.804  18.917  0.00  0.00    +0.000 C 
ATOM     25  O   UNL     1      -0.692  13.932  18.640  0.00  0.00    +0.000 OA
ATOM     26  C   UNL     1       1.142  12.677  19.414  0.00  0.00    +0.000 C 
ATOM     27  C   UNL     1       1.317  11.536  20.368  0.00  0.00    +0.000 C 
BRANCH  23  28
ATOM     28  C   UNL     1      -2.262  11.532  18.139  0.00  0.00    +0.000 A 
ATOM     29  C   UNL     1      -3.436  11.839  18.839  0.00  0.00    +0.000 A 
ATOM     30  C   UNL     1      -4.681  11.813  18.202  0.00  0.00    +0.000 A 
ATOM     31  C   UNL     1      -4.774  11.450  16.861  0.00  0.00    +0.000 A 
ATOM     32  C   UNL     1      -3.621  11.122  16.154  0.00  0.00    +0.000 A 
ATOM     33  C   UNL     1      -2.374  11.176  16.783  0.00  0.00    +0.000 A 
ENDBRANCH  23  28
ENDBRANCH   2  21
TORSDOF 5
ENDMDL
MODEL 5
REMARK VINA RESULT:      -8.9      3.572      9.463
REMARK  Name = 
REMARK  5 active torsions:
REMARK  status: ('A' for Active; 'I' for Inactive)
REMARK    1  A    between atoms: C_2  and  C_20
REMARK    2  A    between atoms: N_3  and  C_4
REMARK    3  A    between atoms: C_9  and  S_10
REMARK    4  A    between atoms: S_10  and  N_13
REMARK    5  A    between atoms: N_22  and  C_23
REMARK                            x       y       z     vdW  Elec       q    Type
REMARK                         _______ _______ _______ _____ _____    ______ ____
ROOT
ATOM      1  O   UNL     1       2.357   8.667  17.468  0.00  0.00    +0.000 OA
ATOM      2  C   UNL     1       1.694   8.903  18.481  0.00  0.00    +0.000 C 
ATOM      3  N   UNL     1       1.452   8.076  19.568  0.00  0.00    +0.000 N 
ATOM      4  H   UNL     1       0.844   8.440  20.300  0.00  0.00    +0.000 HD
ENDROOT
BRANCH   3   5
ATOM      5  C   UNL     1       2.010   6.784  19.728  0.00  0.00    +0.000 A 
ATOM      6  C   UNL     1       1.763   6.041  20.883  0.00  0.00    +0.000 A 
ATOM      7  C   UNL     1       2.253   4.753  21.037  0.00  0.00    +0.000 A 
ATOM      8  C   UNL     1       3.011   4.159  20.033  0.00  0.00    +0.000 A 
ATOM      9 CL   UNL     1       3.328   2.485  20.285  0.00  0.00    +0.000 Cl
ATOM     10  C   UNL     1       3.364   4.905  18.906  0.00  0.00    +0.000 A 
ATOM     11  C   UNL     1       2.834   6.218  18.741  0.00  0.00    +0.000 A 
BRANCH  10  12
ATOM     12  S   UNL     1       4.765   4.423  17.896  0.00  0.00    +0.000 S 
ATOM     13  O   UNL     1       5.907   4.417  18.790  0.00  0.00    +0.000 OA
ATOM     14  O   UNL     1       4.429   3.218  17.171  0.00  0.00    +0.000 OA
BRANCH  12  15
ATOM     15  N   UNL     1       5.012   5.684  16.778  0.00  0.00    +0.000 NA
ATOM     16  C   UNL     1       5.387   5.318  15.372  0.00  0.00    +0.000 C 
ATOM     17  C   UNL     1       6.890   5.029  15.209  0.00  0.00    +0.000 C 
ATOM     18  O   UNL     1       7.707   6.091  15.722  0.00  0.00    +0.000 OA
ATOM     19  C   UNL     1       7.402   6.358  17.098  0.00  0.00    +0.000 C 
ATOM     20  C   UNL     1       5.936   6.773  17.245  0.00  0.00    +0.000 C 
ENDBRANCH  12  15
ENDBRANCH  10  12
ENDBRANCH   3   5
BRANCH   2  21
ATOM     21  C   UNL     1       1.035  10.253  18.502  0.00  0.00    +0.000 C 
ATOM     22  N   UNL     1      -0.203  10.364  18.137  0.00  0.00    +0.000 NA
ATOM     23  N   UNL     1      -0.796  11.613  18.221  0.00  0.00    +0.000 N 
ATOM     24  C   UNL     1      -0.089  12.799  18.464  0.00  0.00    +0.000 C 
ATOM     25  O   UNL     1      -0.583  13.924  18.595  0.00  0.00    +0.000 OA
ATOM     26  C   UNL     1       1.409  12.672  18.511  0.00  0.00    +0.000 C 
ATOM     27  C   UNL     1       1.858  11.359  19.074  0.00  0.00    +0.000 C 
BRANCH  23  28
ATOM     28  C   UNL     1      -2.204  11.588  17.969  0.00  0.00    +0.000 A 
ATOM     29  C   UNL     1      -2.719  11.213  16.721  0.00  0.00    +0.000 A 
ATOM     30  C   UNL     1      -4.099  11.146  16.502  0.00  0.00    +0.000 A 
ATOM     31  C   UNL     1      -4.986  11.483  17.520  0.00  0.00    +0.000 A 
ATOM     32  C   UNL     1      -4.495  11.878  18.761  0.00  0.00    +0.000 A 
ATOM     33  C   UNL     1      -3.115  11.916  18.988  0.00  0.00    +0.000 A 
ENDBRANCH  23  28
ENDBRANCH   2  21
TORSDOF 5
ENDMDL
MODEL 6
REMARK VINA RESULT:      -8.8      3.408      9.355
REMARK  Name = 
REMARK  5 active torsions:
REMARK  status: ('A' for Active; 'I' for Inactive)
REMARK    1  A    between atoms: C_2  and  C_20
REMARK    2  A    between atoms: N_3  and  C_4
REMARK    3  A    between atoms: C_9  and  S_10
REMARK    4  A    between atoms: S_10  and  N_13
REMARK    5  A    between atoms: N_22  and  C_23
REMARK                            x       y       z     vdW  Elec       q    Type
REMARK                         _______ _______ _______ _____ _____    ______ ____
ROOT
ATOM      1  O   UNL     1       1.525   8.843  21.835  0.00  0.00    +0.000 OA
ATOM      2  C   UNL     1       1.216   8.955  20.647  0.00  0.00    +0.000 C 
ATOM      3  N   UNL     1       1.411   8.049  19.614  0.00  0.00    +0.000 N 
ATOM      4  H   UNL     1       1.115   8.339  18.683  0.00  0.00    +0.000 HD
ENDROOT
BRANCH   3   5
ATOM      5  C   UNL     1       1.967   6.757  19.780  0.00  0.00    +0.000 A 
ATOM      6  C   UNL     1       1.696   6.007  20.925  0.00  0.00    +0.000 A 
ATOM      7  C   UNL     1       2.184   4.720  21.083  0.00  0.00    +0.000 A 
ATOM      8  C   UNL     1       2.964   4.132  20.092  0.00  0.00    +0.000 A 
ATOM      9 CL   UNL     1       3.279   2.457  20.343  0.00  0.00    +0.000 Cl
ATOM     10  C   UNL     1       3.341   4.885  18.977  0.00  0.00    +0.000 A 
ATOM     11  C   UNL     1       2.812   6.197  18.808  0.00  0.00    +0.000 A 
BRANCH  10  12
ATOM     12  S   UNL     1       4.764   4.409  17.995  0.00  0.00    +0.000 S 
ATOM     13  O   UNL     1       5.898   4.463  18.899  0.00  0.00    +0.000 OA
ATOM     14  O   UNL     1       4.468   3.173  17.307  0.00  0.00    +0.000 OA
BRANCH  12  15
ATOM     15  N   UNL     1       4.987   5.641  16.839  0.00  0.00    +0.000 NA
ATOM     16  C   UNL     1       5.325   5.237  15.434  0.00  0.00    +0.000 C 
ATOM     17  C   UNL     1       6.823   4.939  15.241  0.00  0.00    +0.000 C 
ATOM     18  O   UNL     1       7.655   6.010  15.706  0.00  0.00    +0.000 OA
ATOM     19  C   UNL     1       7.386   6.314  17.082  0.00  0.00    +0.000 C 
ATOM     20  C   UNL     1       5.925   6.738  17.255  0.00  0.00    +0.000 C 
ENDBRANCH  12  15
ENDBRANCH  10  12
ENDBRANCH   3   5
BRANCH   2  21
ATOM     21  C   UNL     1       0.584  10.268  20.281  0.00  0.00    +0.000 C 
ATOM     22  N   UNL     1      -0.380  10.293  19.416  0.00  0.00    +0.000 NA
ATOM     23  N   UNL     1      -0.976  11.512  19.142  0.00  0.00    +0.000 N 
ATOM     24  C   UNL     1      -0.466  12.746  19.570  0.00  0.00    +0.000 C 
ATOM     25  O   UNL     1      -0.992  13.849  19.391  0.00  0.00    +0.000 OA
ATOM     26  C   UNL     1       0.869  12.699  20.261  0.00  0.00    +0.000 C 
ATOM     27  C   UNL     1       1.060  11.448  21.061  0.00  0.00    +0.000 C 
BRANCH  23  28
ATOM     28  C   UNL     1      -2.140  11.399  18.317  0.00  0.00    +0.000 A 
ATOM     29  C   UNL     1      -2.067  10.893  17.012  0.00  0.00    +0.000 A 
ATOM     30  C   UNL     1      -3.219  10.743  16.233  0.00  0.00    +0.000 A 
ATOM     31  C   UNL     1      -4.459  11.124  16.736  0.00  0.00    +0.000 A 
ATOM     32  C   UNL     1      -4.551  11.648  18.023  0.00  0.00    +0.000 A 
ATOM     33  C   UNL     1      -3.403  11.771  18.812  0.00  0.00    +0.000 A 
ENDBRANCH  23  28
ENDBRANCH   2  21
TORSDOF 5
ENDMDL
MODEL 7
REMARK VINA RESULT:      -8.8      4.074      9.153
REMARK  Name = 
REMARK  5 active torsions:
REMARK  status: ('A' for Active; 'I' for Inactive)
REMARK    1  A    between atoms: C_2  and  C_20
REMARK    2  A    between atoms: N_3  and  C_4
REMARK    3  A    between atoms: C_9  and  S_10
REMARK    4  A    between atoms: S_10  and  N_13
REMARK    5  A    between atoms: N_22  and  C_23
REMARK                            x       y       z     vdW  Elec       q    Type
REMARK                         _______ _______ _______ _____ _____    ______ ____
ROOT
ATOM      1  O   UNL     1       2.178   8.032  19.331  0.00  0.00    +0.000 OA
ATOM      2  C   UNL     1       1.490   7.744  20.313  0.00  0.00    +0.000 C 
ATOM      3  N   UNL     1       1.228   6.491  20.847  0.00  0.00    +0.000 N 
ATOM      4  H   UNL     1       0.602   6.452  21.650  0.00  0.00    +0.000 HD
ENDROOT
BRANCH   3   5
ATOM      5  C   UNL     1       1.789   5.283  20.364  0.00  0.00    +0.000 A 
ATOM      6  C   UNL     1       1.350   4.051  20.850  0.00  0.00    +0.000 A 
ATOM      7  C   UNL     1       1.845   2.856  20.351  0.00  0.00    +0.000 A 
ATOM      8  C   UNL     1       2.801   2.852  19.341  0.00  0.00    +0.000 A 
ATOM      9 CL   UNL     1       3.121   1.294  18.679  0.00  0.00    +0.000 Cl
ATOM     10  C   UNL     1       3.339   4.063  18.899  0.00  0.00    +0.000 A 
ATOM     11  C   UNL     1       2.806   5.288  19.395  0.00  0.00    +0.000 A 
BRANCH  10  12
ATOM     12  S   UNL     1       4.923   4.105  18.061  0.00  0.00    +0.000 S 
ATOM     13  O   UNL     1       5.923   4.063  19.112  0.00  0.00    +0.000 OA
ATOM     14  O   UNL     1       4.938   3.090  17.032  0.00  0.00    +0.000 OA
BRANCH  12  15
ATOM     15  N   UNL     1       5.039   5.636  17.322  0.00  0.00    +0.000 NA
ATOM     16  C   UNL     1       5.198   5.690  15.831  0.00  0.00    +0.000 C 
ATOM     17  C   UNL     1       6.654   5.483  15.375  0.00  0.00    +0.000 C 
ATOM     18  O   UNL     1       7.563   6.368  16.043  0.00  0.00    +0.000 OA
ATOM     19  C   UNL     1       7.468   6.230  17.468  0.00  0.00    +0.000 C 
ATOM     20  C   UNL     1       6.049   6.562  17.938  0.00  0.00    +0.000 C 
ENDBRANCH  12  15
ENDBRANCH  10  12
ENDBRANCH   3   5
BRANCH   2  21
ATOM     21  C   UNL     1       0.824   8.913  20.981  0.00  0.00    +0.000 C 
ATOM     22  N   UNL     1       1.006  10.106  20.509  0.00  0.00    +0.000 NA
ATOM     23  N   UNL     1       0.334  11.154  21.115  0.00  0.00    +0.000 N 
ATOM     24  C   UNL     1      -0.353  11.043  22.332  0.00  0.00    +0.000 C 
ATOM     25  O   UNL     1      -1.005  11.938  22.880  0.00  0.00    +0.000 OA
ATOM     26  C   UNL     1      -0.225   9.722  23.039  0.00  0.00    +0.000 C 
ATOM     27  C   UNL     1      -0.113   8.569  22.091  0.00  0.00    +0.000 C 
BRANCH  23  28
ATOM     28  C   UNL     1       0.463  12.392  20.408  0.00  0.00    +0.000 A 
ATOM     29  C   UNL     1       1.422  13.347  20.770  0.00  0.00    +0.000 A 
ATOM     30  C   UNL     1       1.569  14.531  20.041  0.00  0.00    +0.000 A 
ATOM     31  C   UNL     1       0.739  14.792  18.955  0.00  0.00    +0.000 A 
ATOM     32  C   UNL     1      -0.233  13.866  18.591  0.00  0.00    +0.000 A 
ATOM     33  C   UNL     1      -0.361  12.668  19.302  0.00  0.00    +0.000 A 
ENDBRANCH  23  28
ENDBRANCH   2  21
TORSDOF 5
ENDMDL
MODEL 8
REMARK VINA RESULT:      -8.7      3.759      9.582
REMARK  Name = 
REMARK  5 active torsions:
REMARK  status: ('A' for Active; 'I' for Inactive)
REMARK    1  A    between atoms: C_2  and  C_20
REMARK    2  A    between atoms: N_3  and  C_4
REMARK    3  A    between atoms: C_9  and  S_10
REMARK    4  A    between atoms: S_10  and  N_13
REMARK    5  A    between atoms: N_22  and  C_23
REMARK                            x       y       z     vdW  Elec       q    Type
REMARK                         _______ _______ _______ _____ _____    ______ ____
ROOT
ATOM      1  O   UNL     1       1.391   8.600  17.649  0.00  0.00    +0.000 OA
ATOM      2  C   UNL     1       1.419   8.938  18.835  0.00  0.00    +0.000 C 
ATOM      3  N   UNL     1       1.695   8.157  19.949  0.00  0.00    +0.000 N 
ATOM      4  H   UNL     1       1.634   8.613  20.859  0.00  0.00    +0.000 HD
ENDROOT
BRANCH   3   5
ATOM      5  C   UNL     1       2.071   6.793  19.895  0.00  0.00    +0.000 A 
ATOM      6  C   UNL     1       1.601   5.888  20.848  0.00  0.00    +0.000 A 
ATOM      7  C   UNL     1       1.912   4.538  20.783  0.00  0.00    +0.000 A 
ATOM      8  C   UNL     1       2.706   4.044  19.754  0.00  0.00    +0.000 A 
ATOM      9 CL   UNL     1       2.789   2.324  19.691  0.00  0.00    +0.000 Cl
ATOM     10  C   UNL     1       3.278   4.932  18.840  0.00  0.00    +0.000 A 
ATOM     11  C   UNL     1       2.932   6.313  18.895  0.00  0.00    +0.000 A 
BRANCH  10  12
ATOM     12  S   UNL     1       4.721   4.456  17.887  0.00  0.00    +0.000 S 
ATOM     13  O   UNL     1       5.826   4.451  18.828  0.00  0.00    +0.000 OA
ATOM     14  O   UNL     1       4.419   3.252  17.147  0.00  0.00    +0.000 OA
BRANCH  12  15
ATOM     15  N   UNL     1       5.010   5.720  16.783  0.00  0.00    +0.000 NA
ATOM     16  C   UNL     1       5.391   5.357  15.377  0.00  0.00    +0.000 C 
ATOM     17  C   UNL     1       6.889   5.034  15.229  0.00  0.00    +0.000 C 
ATOM     18  O   UNL     1       7.724   6.072  15.760  0.00  0.00    +0.000 OA
ATOM     19  C   UNL     1       7.411   6.335  17.135  0.00  0.00    +0.000 C 
ATOM     20  C   UNL     1       5.954   6.783  17.269  0.00  0.00    +0.000 C 
ENDBRANCH  12  15
ENDBRANCH  10  12
ENDBRANCH   3   5
BRANCH   2  21
ATOM     21  C   UNL     1       1.064  10.375  19.090  0.00  0.00    +0.000 C 
ATOM     22  N   UNL     1       0.014  10.658  19.794  0.00  0.00    +0.000 NA
ATOM     23  N   UNL     1      -0.253  11.991  20.056  0.00  0.00    +0.000 N 
ATOM     24  C   UNL     1       0.408  13.058  19.432  0.00  0.00    +0.000 C 
ATOM     25  O   UNL     1       0.236  14.257  19.672  0.00  0.00    +0.000 OA
ATOM     26  C   UNL     1       1.370  12.684  18.338  0.00  0.00    +0.000 C 
ATOM     27  C   UNL     1       2.054  11.377  18.593  0.00  0.00    +0.000 C 
BRANCH  23  28
ATOM     28  C   UNL     1      -1.323  12.180  20.987  0.00  0.00    +0.000 A 
ATOM     29  C   UNL     1      -1.145  11.976  22.361  0.00  0.00    +0.000 A 
ATOM     30  C   UNL     1      -2.185  12.211  23.265  0.00  0.00    +0.000 A 
ATOM     31  C   UNL     1      -3.432  12.626  22.805  0.00  0.00    +0.000 A 
ATOM     32  C   UNL     1      -3.636  12.816  21.442  0.00  0.00    +0.000 A 
ATOM     33  C   UNL     1      -2.586  12.608  20.541  0.00  0.00    +0.000 A 
ENDBRANCH  23  28
ENDBRANCH   2  21
TORSDOF 5
ENDMDL
MODEL 9
REMARK VINA RESULT:      -8.7      2.150      3.048
REMARK  Name = 
REMARK  5 active torsions:
REMARK  status: ('A' for Active; 'I' for Inactive)
REMARK    1  A    between atoms: C_2  and  C_20
REMARK    2  A    between atoms: N_3  and  C_4
REMARK    3  A    between atoms: C_9  and  S_10
REMARK    4  A    between atoms: S_10  and  N_13
REMARK    5  A    between atoms: N_22  and  C_23
REMARK                            x       y       z     vdW  Elec       q    Type
REMARK                         _______ _______ _______ _____ _____    ______ ____
ROOT
ATOM      1  O   UNL     1       2.222   8.224  19.210  0.00  0.00    +0.000 OA
ATOM      2  C   UNL     1       1.867   7.391  20.048  0.00  0.00    +0.000 C 
ATOM      3  N   UNL     1       1.060   7.576  21.161  0.00  0.00    +0.000 N 
ATOM      4  H   UNL     1       0.906   6.766  21.760  0.00  0.00    +0.000 HD
ENDROOT
BRANCH   3   5
ATOM      5  C   UNL     1       0.428   8.799  21.496  0.00  0.00    +0.000 A 
ATOM      6  C   UNL     1      -0.052   9.021  22.787  0.00  0.00    +0.000 A 
ATOM      7  C   UNL     1      -0.622  10.231  23.152  0.00  0.00    +0.000 A 
ATOM      8  C   UNL     1      -0.732  11.268  22.231  0.00  0.00    +0.000 A 
ATOM      9 CL   UNL     1      -1.238  12.766  22.913  0.00  0.00    +0.000 Cl
ATOM     10  C   UNL     1      -0.356  11.051  20.903  0.00  0.00    +0.000 A 
ATOM     11  C   UNL     1       0.257   9.816  20.542  0.00  0.00    +0.000 A 
BRANCH  10  12
ATOM     12  S   UNL     1      -0.989  12.099  19.593  0.00  0.00    +0.000 S 
ATOM     13  O   UNL     1      -1.294  11.205  18.491  0.00  0.00    +0.000 OA
ATOM     14  O   UNL     1      -2.034  12.941  20.129  0.00  0.00    +0.000 OA
BRANCH  12  15
ATOM     15  N   UNL     1       0.307  13.085  19.094  0.00  0.00    +0.000 NA
ATOM     16  C   UNL     1       1.519  13.160  19.976  0.00  0.00    +0.000 C 
ATOM     17  C   UNL     1       1.353  14.158  21.137  0.00  0.00    +0.000 C 
ATOM     18  O   UNL     1       0.939  15.454  20.684  0.00  0.00    +0.000 OA
ATOM     19  C   UNL     1      -0.276  15.373  19.926  0.00  0.00    +0.000 C 
ATOM     20  C   UNL     1      -0.075  14.482  18.697  0.00  0.00    +0.000 C 
ENDBRANCH  12  15
ENDBRANCH  10  12
ENDBRANCH   3   5
BRANCH   2  21
ATOM     21  C   UNL     1       2.426   6.012  19.842  0.00  0.00    +0.000 C 
ATOM     22  N   UNL     1       3.313   5.814  18.920  0.00  0.00    +0.000 NA
ATOM     23  N   UNL     1       3.847   4.543  18.793  0.00  0.00    +0.000 N 
ATOM     24  C   UNL     1       3.337   3.412  19.447  0.00  0.00    +0.000 C 
ATOM     25  O   UNL     1       3.812   2.273  19.401  0.00  0.00    +0.000 OA
ATOM     26  C   UNL     1       2.067   3.621  20.224  0.00  0.00    +0.000 C 
ATOM     27  C   UNL     1       1.981   4.986  20.832  0.00  0.00    +0.000 C 
BRANCH  23  28
ATOM     28  C   UNL     1       4.941   4.478  17.873  0.00  0.00    +0.000 A 
ATOM     29  C   UNL     1       4.748   4.133  16.528  0.00  0.00    +0.000 A 
ATOM     30  C   UNL     1       5.818   4.120  15.628  0.00  0.00    +0.000 A 
ATOM     31  C   UNL     1       7.104   4.424  16.065  0.00  0.00    +0.000 A 
ATOM     32  C   UNL     1       7.320   4.750  17.401  0.00  0.00    +0.000 A 
ATOM     33  C   UNL     1       6.245   4.791  18.294  0.00  0.00    +0.000 A 
ENDBRANCH  23  28
ENDBRANCH   2  21
TORSDOF 5
ENDMDL
