MODEL 1
REMARK VINA RESULT:      -7.9      0.000      0.000
REMARK  Name = 
REMARK  4 active torsions:
REMARK  status: ('A' for Active; 'I' for Inactive)
REMARK    1  A    between atoms: C_1  and  O_2
REMARK    2  A    between atoms: O_2  and  C_3
REMARK    3  A    between atoms: N_12  and  C_13
REMARK    4  A    between atoms: C_16  and  C_17
REMARK                            x       y       z     vdW  Elec       q    Type
REMARK                         _______ _______ _______ _____ _____    ______ ____
ROOT
ATOM      1  C   UNL     1       5.595   5.182  15.594  0.00  0.00    +0.000 A 
ATOM      2  C   UNL     1       5.075   3.915  15.886  0.00  0.00    +0.000 A 
ATOM      3  C   UNL     1       4.170   3.726  16.937  0.00  0.00    +0.000 A 
ATOM      4  C   UNL     1       3.776   4.843  17.691  0.00  0.00    +0.000 A 
ATOM      5  C   UNL     1       4.291   6.092  17.361  0.00  0.00    +0.000 A 
ATOM      6  C   UNL     1       5.197   6.310  16.322  0.00  0.00    +0.000 A 
ATOM      7  O   UNL     1       3.783   7.059  18.186  0.00  0.00    +0.000 OA
ATOM      8  C   UNL     1       2.940   6.424  19.049  0.00  0.00    +0.000 A 
ATOM      9  C   UNL     1       2.147   6.974  20.048  0.00  0.00    +0.000 A 
ATOM     10  N   UNL     1       2.105   8.342  20.347  0.00  0.00    +0.000 N 
ATOM     11  N   UNL     1       1.395   6.086  20.758  0.00  0.00    +0.000 NA
ATOM     12  C   UNL     1       1.441   4.775  20.455  0.00  0.00    +0.000 A 
ATOM     13  N   UNL     1       2.157   4.187  19.490  0.00  0.00    +0.000 NA
ATOM     14  C   UNL     1       2.911   5.063  18.789  0.00  0.00    +0.000 A 
ATOM     15  H   UNL     1       2.812   8.908  19.891  0.00  0.00    +0.000 HD
ENDROOT
BRANCH  10  16
ATOM     16  C   UNL     1       1.062   9.034  20.985  0.00  0.00    +0.000 A 
ATOM     17  C   UNL     1       0.213   9.869  20.251  0.00  0.00    +0.000 A 
ATOM     18  C   UNL     1      -0.747  10.661  20.897  0.00  0.00    +0.000 A 
ATOM     19  C   UNL     1      -0.877  10.619  22.289  0.00  0.00    +0.000 A 
ATOM     20  C   UNL     1      -0.056   9.770  23.029  0.00  0.00    +0.000 A 
ATOM     21  C   UNL     1       0.905   8.995  22.379  0.00  0.00    +0.000 A 
BRANCH  19  22
ATOM     22  C   UNL     1      -1.825  11.455  22.964  0.00  0.00    +0.000 C 
ATOM     23  N   UNL     1      -2.601  12.118  23.517  0.00  0.00    +0.000 NA
ENDBRANCH  19  22
ENDBRANCH  10  16
BRANCH   1  25
ATOM     24  C   UNL     1       6.336   4.135  13.614  0.00  0.00    +0.000 C 
ATOM     25  O   UNL     1       6.462   5.214  14.533  0.00  0.00    +0.000 OA
ENDBRANCH   1  25
TORSDOF 3
ENDMDL
MODEL 2
REMARK VINA RESULT:      -7.5      1.513      1.755
REMARK  Name = 
REMARK  4 active torsions:
REMARK  status: ('A' for Active; 'I' for Inactive)
REMARK    1  A    between atoms: C_1  and  O_2
REMARK    2  A    between atoms: O_2  and  C_3
REMARK    3  A    between atoms: N_12  and  C_13
REMARK    4  A    between atoms: C_16  and  C_17
REMARK                            x       y       z     vdW  Elec       q    Type
REMARK                         _______ _______ _______ _____ _____    ______ ____
ROOT
ATOM      1  C   UNL     1       5.930   4.900  15.395  0.00  0.00    +0.000 A 
ATOM      2  C   UNL     1       5.670   3.810  16.235  0.00  0.00    +0.000 A 
ATOM      3  C   UNL     1       4.832   3.935  17.349  0.00  0.00    +0.000 A 
ATOM      4  C   UNL     1       4.238   5.182  17.603  0.00  0.00    +0.000 A 
ATOM      5  C   UNL     1       4.496   6.239  16.736  0.00  0.00    +0.000 A 
ATOM      6  C   UNL     1       5.329   6.144  15.621  0.00  0.00    +0.000 A 
ATOM      7  O   UNL     1       3.820   7.363  17.127  0.00  0.00    +0.000 OA
ATOM      8  C   UNL     1       3.126   7.023  18.251  0.00  0.00    +0.000 A 
ATOM      9  C   UNL     1       2.254   7.802  19.001  0.00  0.00    +0.000 A 
ATOM     10  N   UNL     1       1.950   9.137  18.705  0.00  0.00    +0.000 N 
ATOM     11  N   UNL     1       1.698   7.187  20.082  0.00  0.00    +0.000 NA
ATOM     12  C   UNL     1       1.994   5.901  20.350  0.00  0.00    +0.000 A 
ATOM     13  N   UNL     1       2.799   5.090  19.655  0.00  0.00    +0.000 NA
ATOM     14  C   UNL     1       3.359   5.698  18.585  0.00  0.00    +0.000 A 
ATOM     15  H   UNL     1       2.528   9.566  17.991  0.00  0.00    +0.000 HD
ENDROOT
BRANCH  10  16
ATOM     16  C   UNL     1       0.800   9.846  19.092  0.00  0.00    +0.000 A 
ATOM     17  C   UNL     1      -0.278   9.980  18.211  0.00  0.00    +0.000 A 
ATOM     18  C   UNL     1      -1.374  10.791  18.540  0.00  0.00    +0.000 A 
ATOM     19  C   UNL     1      -1.409  11.471  19.761  0.00  0.00    +0.000 A 
ATOM     20  C   UNL     1      -0.353  11.323  20.659  0.00  0.00    +0.000 A 
ATOM     21  C   UNL     1       0.738  10.524  20.319  0.00  0.00    +0.000 A 
BRANCH  19  22
ATOM     22  C   UNL     1      -2.503  12.337  20.089  0.00  0.00    +0.000 C 
ATOM     23  N   UNL     1      -3.386  13.046  20.341  0.00  0.00    +0.000 NA
ENDBRANCH  19  22
ENDBRANCH  10  16
BRANCH   1  25
ATOM     24  C   UNL     1       6.200   3.800  13.324  0.00  0.00    +0.000 C 
ATOM     25  O   UNL     1       6.761   4.624  14.340  0.00  0.00    +0.000 OA
ENDBRANCH   1  25
TORSDOF 3
ENDMDL
MODEL 3
REMARK VINA RESULT:      -7.4      3.525      8.998
REMARK  Name = 
REMARK  4 active torsions:
REMARK  status: ('A' for Active; 'I' for Inactive)
REMARK    1  A    between atoms: C_1  and  O_2
REMARK    2  A    between atoms: O_2  and  C_3
REMARK    3  A    between atoms: N_12  and  C_13
REMARK    4  A    between atoms: C_16  and  C_17
REMARK                            x       y       z     vdW  Elec       q    Type
REMARK                         _______ _______ _______ _____ _____    ______ ____
ROOT
ATOM      1  C   UNL     1      -1.856  12.345  22.885  0.00  0.00    +0.000 A 
ATOM      2  C   UNL     1      -1.816  13.025  21.662  0.00  0.00    +0.000 A 
ATOM      3  C   UNL     1      -1.095  12.520  20.573  0.00  0.00    +0.000 A 
ATOM      4  C   UNL     1      -0.419  11.299  20.726  0.00  0.00    +0.000 A 
ATOM      5  C   UNL     1      -0.498  10.634  21.946  0.00  0.00    +0.000 A 
ATOM      6  C   UNL     1      -1.205  11.116  23.049  0.00  0.00    +0.000 A 
ATOM      7  O   UNL     1       0.201   9.459  21.905  0.00  0.00    +0.000 OA
ATOM      8  C   UNL     1       0.731   9.371  20.651  0.00  0.00    +0.000 A 
ATOM      9  C   UNL     1       1.485   8.344  20.099  0.00  0.00    +0.000 A 
ATOM     10  N   UNL     1       1.848   7.182  20.792  0.00  0.00    +0.000 N 
ATOM     11  N   UNL     1       1.879   8.531  18.808  0.00  0.00    +0.000 NA
ATOM     12  C   UNL     1       1.517   9.650  18.151  0.00  0.00    +0.000 A 
ATOM     13  N   UNL     1       0.771  10.660  18.614  0.00  0.00    +0.000 NA
ATOM     14  C   UNL     1       0.385  10.481  19.897  0.00  0.00    +0.000 A 
ATOM     15  H   UNL     1       1.660   7.195  21.789  0.00  0.00    +0.000 HD
ENDROOT
BRANCH  10  16
ATOM     16  C   UNL     1       2.192   5.939  20.235  0.00  0.00    +0.000 A 
ATOM     17  C   UNL     1       1.357   4.830  20.407  0.00  0.00    +0.000 A 
ATOM     18  C   UNL     1       1.754   3.560  19.964  0.00  0.00    +0.000 A 
ATOM     19  C   UNL     1       2.989   3.385  19.333  0.00  0.00    +0.000 A 
ATOM     20  C   UNL     1       3.818   4.487  19.131  0.00  0.00    +0.000 A 
ATOM     21  C   UNL     1       3.421   5.745  19.585  0.00  0.00    +0.000 A 
BRANCH  19  22
ATOM     22  C   UNL     1       3.424   2.085  18.915  0.00  0.00    +0.000 C 
ATOM     23  N   UNL     1       3.761   1.028  18.573  0.00  0.00    +0.000 NA
ENDBRANCH  19  22
ENDBRANCH  10  16
BRANCH   1  25
ATOM     24  C   UNL     1      -3.878  12.364  24.101  0.00  0.00    +0.000 C 
ATOM     25  O   UNL     1      -2.608  12.956  23.855  0.00  0.00    +0.000 OA
ENDBRANCH   1  25
TORSDOF 3
ENDMDL
MODEL 4
REMARK VINA RESULT:      -7.3      1.906      2.249
REMARK  Name = 
REMARK  4 active torsions:
REMARK  status: ('A' for Active; 'I' for Inactive)
REMARK    1  A    between atoms: C_1  and  O_2
REMARK    2  A    between atoms: O_2  and  C_3
REMARK    3  A    between atoms: N_12  and  C_13
REMARK    4  A    between atoms: C_16  and  C_17
REMARK                            x       y       z     vdW  Elec       q    Type
REMARK                         _______ _______ _______ _____ _____    ______ ____
ROOT
ATOM      1  C   UNL     1       5.923   4.649  15.727  0.00  0.00    +0.000 A 
ATOM      2  C   UNL     1       5.645   3.701  16.719  0.00  0.00    +0.000 A 
ATOM      3  C   UNL     1       4.799   4.000  17.793  0.00  0.00    +0.000 A 
ATOM      4  C   UNL     1       4.214   5.276  17.850  0.00  0.00    +0.000 A 
ATOM      5  C   UNL     1       4.490   6.187  16.836  0.00  0.00    +0.000 A 
ATOM      6  C   UNL     1       5.333   5.918  15.756  0.00  0.00    +0.000 A 
ATOM      7  O   UNL     1       3.822   7.363  17.045  0.00  0.00    +0.000 OA
ATOM      8  C   UNL     1       3.116   7.203  18.201  0.00  0.00    +0.000 A 
ATOM      9  C   UNL     1       2.244   8.093  18.815  0.00  0.00    +0.000 A 
ATOM     10  N   UNL     1       1.956   9.371  18.319  0.00  0.00    +0.000 N 
ATOM     11  N   UNL     1       1.672   7.654  19.972  0.00  0.00    +0.000 NA
ATOM     12  C   UNL     1       1.953   6.421  20.433  0.00  0.00    +0.000 A 
ATOM     13  N   UNL     1       2.757   5.507  19.877  0.00  0.00    +0.000 NA
ATOM     14  C   UNL     1       3.332   5.941  18.734  0.00  0.00    +0.000 A 
ATOM     15  H   UNL     1       2.545   9.682  17.553  0.00  0.00    +0.000 HD
ENDROOT
BRANCH  10  16
ATOM     16  C   UNL     1       0.810  10.140  18.582  0.00  0.00    +0.000 A 
ATOM     17  C   UNL     1       0.833  11.131  19.570  0.00  0.00    +0.000 A 
ATOM     18  C   UNL     1      -0.338  11.814  19.925  0.00  0.00    +0.000 A 
ATOM     19  C   UNL     1      -1.548  11.522  19.289  0.00  0.00    +0.000 A 
ATOM     20  C   UNL     1      -1.578  10.556  18.283  0.00  0.00    +0.000 A 
ATOM     21  C   UNL     1      -0.411   9.873  17.944  0.00  0.00    +0.000 A 
BRANCH  19  22
ATOM     22  C   UNL     1      -2.761  12.183  19.674  0.00  0.00    +0.000 C 
ATOM     23  N   UNL     1      -3.734  12.732  19.987  0.00  0.00    +0.000 NA
ENDBRANCH  19  22
ENDBRANCH  10  16
BRANCH   1  25
ATOM     24  C   UNL     1       6.129   3.911  13.495  0.00  0.00    +0.000 C 
ATOM     25  O   UNL     1       6.761   4.209  14.735  0.00  0.00    +0.000 OA
ENDBRANCH   1  25
TORSDOF 3
ENDMDL
MODEL 5
REMARK VINA RESULT:      -7.2      3.534      8.923
REMARK  Name = 
REMARK  4 active torsions:
REMARK  status: ('A' for Active; 'I' for Inactive)
REMARK    1  A    between atoms: C_1  and  O_2
REMARK    2  A    between atoms: O_2  and  C_3
REMARK    3  A    between atoms: N_12  and  C_13
REMARK    4  A    between atoms: C_16  and  C_17
REMARK                            x       y       z     vdW  Elec       q    Type
REMARK                         _______ _______ _______ _____ _____    ______ ____
ROOT
ATOM      1  C   UNL     1      -1.904  12.234  22.712  0.00  0.00    +0.000 A 
ATOM      2  C   UNL     1      -1.925  12.819  21.440  0.00  0.00    +0.000 A 
ATOM      3  C   UNL     1      -1.207  12.264  20.374  0.00  0.00    +0.000 A 
ATOM      4  C   UNL     1      -0.471  11.090  20.601  0.00  0.00    +0.000 A 
ATOM      5  C   UNL     1      -0.490  10.519  21.870  0.00  0.00    +0.000 A 
ATOM      6  C   UNL     1      -1.193  11.052  22.952  0.00  0.00    +0.000 A 
ATOM      7  O   UNL     1       0.262   9.377  21.899  0.00  0.00    +0.000 OA
ATOM      8  C   UNL     1       0.767   9.216  20.643  0.00  0.00    +0.000 A 
ATOM      9  C   UNL     1       1.555   8.184  20.150  0.00  0.00    +0.000 A 
ATOM     10  N   UNL     1       1.988   7.097  20.920  0.00  0.00    +0.000 N 
ATOM     11  N   UNL     1       1.910   8.289  18.838  0.00  0.00    +0.000 NA
ATOM     12  C   UNL     1       1.481   9.336  18.109  0.00  0.00    +0.000 A 
ATOM     13  N   UNL     1       0.699  10.344  18.513  0.00  0.00    +0.000 NA
ATOM     14  C   UNL     1       0.351  10.248  19.815  0.00  0.00    +0.000 A 
ATOM     15  H   UNL     1       1.823   7.179  21.918  0.00  0.00    +0.000 HD
ENDROOT
BRANCH  10  16
ATOM     16  C   UNL     1       2.378   5.832  20.450  0.00  0.00    +0.000 A 
ATOM     17  C   UNL     1       3.594   5.670  19.778  0.00  0.00    +0.000 A 
ATOM     18  C   UNL     1       3.932   4.439  19.195  0.00  0.00    +0.000 A 
ATOM     19  C   UNL     1       3.059   3.351  19.287  0.00  0.00    +0.000 A 
ATOM     20  C   UNL     1       1.857   3.492  19.978  0.00  0.00    +0.000 A 
ATOM     21  C   UNL     1       1.523   4.723  20.544  0.00  0.00    +0.000 A 
BRANCH  19  22
ATOM     22  C   UNL     1       3.373   2.101  18.659  0.00  0.00    +0.000 C 
ATOM     23  N   UNL     1       3.635   1.098  18.138  0.00  0.00    +0.000 NA
ENDBRANCH  19  22
ENDBRANCH  10  16
BRANCH   1  25
ATOM     24  C   UNL     1      -4.054  12.958  23.365  0.00  0.00    +0.000 C 
ATOM     25  O   UNL     1      -2.662  12.884  23.652  0.00  0.00    +0.000 OA
ENDBRANCH   1  25
TORSDOF 3
ENDMDL
MODEL 6
REMARK VINA RESULT:      -7.2      0.259      1.016
REMARK  Name = 
REMARK  4 active torsions:
REMARK  status: ('A' for Active; 'I' for Inactive)
REMARK    1  A    between atoms: C_1  and  O_2
REMARK    2  A    between atoms: O_2  and  C_3
REMARK    3  A    between atoms: N_12  and  C_13
REMARK    4  A    between atoms: C_16  and  C_17
REMARK                            x       y       z     vdW  Elec       q    Type
REMARK                         _______ _______ _______ _____ _____    ______ ____
ROOT
ATOM      1  C   UNL     1       5.481   5.044  15.778  0.00  0.00    +0.000 A 
ATOM      2  C   UNL     1       4.833   3.828  16.029  0.00  0.00    +0.000 A 
ATOM      3  C   UNL     1       3.891   3.706  17.056  0.00  0.00    +0.000 A 
ATOM      4  C   UNL     1       3.591   4.839  17.829  0.00  0.00    +0.000 A 
ATOM      5  C   UNL     1       4.233   6.039  17.539  0.00  0.00    +0.000 A 
ATOM      6  C   UNL     1       5.179   6.190  16.524  0.00  0.00    +0.000 A 
ATOM      7  O   UNL     1       3.804   7.033  18.376  0.00  0.00    +0.000 OA
ATOM      8  C   UNL     1       2.883   6.466  19.207  0.00  0.00    +0.000 A 
ATOM      9  C   UNL     1       2.126   7.068  20.203  0.00  0.00    +0.000 A 
ATOM     10  N   UNL     1       2.210   8.427  20.534  0.00  0.00    +0.000 N 
ATOM     11  N   UNL     1       1.275   6.243  20.876  0.00  0.00    +0.000 NA
ATOM     12  C   UNL     1       1.199   4.941  20.542  0.00  0.00    +0.000 A 
ATOM     13  N   UNL     1       1.876   4.307  19.578  0.00  0.00    +0.000 NA
ATOM     14  C   UNL     1       2.727   5.119  18.914  0.00  0.00    +0.000 A 
ATOM     15  H   UNL     1       2.980   8.930  20.105  0.00  0.00    +0.000 HD
ENDROOT
BRANCH  10  16
ATOM     16  C   UNL     1       1.227   9.204  21.167  0.00  0.00    +0.000 A 
ATOM     17  C   UNL     1       1.021   9.101  22.547  0.00  0.00    +0.000 A 
ATOM     18  C   UNL     1      -0.040   9.777  23.165  0.00  0.00    +0.000 A 
ATOM     19  C   UNL     1      -0.906  10.575  22.411  0.00  0.00    +0.000 A 
ATOM     20  C   UNL     1      -0.695  10.708  21.039  0.00  0.00    +0.000 A 
ATOM     21  C   UNL     1       0.356  10.023  20.430  0.00  0.00    +0.000 A 
BRANCH  19  22
ATOM     22  C   UNL     1      -2.020  11.235  23.024  0.00  0.00    +0.000 C 
ATOM     23  N   UNL     1      -2.911  11.779  23.530  0.00  0.00    +0.000 NA
ENDBRANCH  19  22
ENDBRANCH  10  16
BRANCH   1  25
ATOM     24  C   UNL     1       6.164   3.969  13.791  0.00  0.00    +0.000 C 
ATOM     25  O   UNL     1       6.371   5.014  14.735  0.00  0.00    +0.000 OA
ENDBRANCH   1  25
TORSDOF 3
ENDMDL
MODEL 7
REMARK VINA RESULT:      -6.9      2.644      3.509
REMARK  Name = 
REMARK  4 active torsions:
REMARK  status: ('A' for Active; 'I' for Inactive)
REMARK    1  A    between atoms: C_1  and  O_2
REMARK    2  A    between atoms: O_2  and  C_3
REMARK    3  A    between atoms: N_12  and  C_13
REMARK    4  A    between atoms: C_16  and  C_17
REMARK                            x       y       z     vdW  Elec       q    Type
REMARK                         _______ _______ _______ _____ _____    ______ ____
ROOT
ATOM      1  C   UNL     1       5.376   5.646  17.106  0.00  0.00    +0.000 A 
ATOM      2  C   UNL     1       5.253   5.043  18.363  0.00  0.00    +0.000 A 
ATOM      3  C   UNL     1       4.319   5.500  19.300  0.00  0.00    +0.000 A 
ATOM      4  C   UNL     1       3.488   6.576  18.947  0.00  0.00    +0.000 A 
ATOM      5  C   UNL     1       3.617   7.138  17.681  0.00  0.00    +0.000 A 
ATOM      6  C   UNL     1       4.541   6.706  16.729  0.00  0.00    +0.000 A 
ATOM      7  O   UNL     1       2.718   8.155  17.508  0.00  0.00    +0.000 OA
ATOM      8  C   UNL     1       2.010   8.244  18.670  0.00  0.00    +0.000 A 
ATOM      9  C   UNL     1       0.953   9.090  18.979  0.00  0.00    +0.000 A 
ATOM     10  N   UNL     1       0.434  10.045  18.095  0.00  0.00    +0.000 N 
ATOM     11  N   UNL     1       0.432   8.950  20.230  0.00  0.00    +0.000 NA
ATOM     12  C   UNL     1       0.936   8.023  21.067  0.00  0.00    +0.000 A 
ATOM     13  N   UNL     1       1.930   7.161  20.823  0.00  0.00    +0.000 NA
ATOM     14  C   UNL     1       2.454   7.301  19.585  0.00  0.00    +0.000 A 
ATOM     15  H   UNL     1       0.980  10.199  17.254  0.00  0.00    +0.000 HD
ENDROOT
BRANCH  10  16
ATOM     16  C   UNL     1      -0.853  10.607  18.120  0.00  0.00    +0.000 A 
ATOM     17  C   UNL     1      -1.137  11.692  18.957  0.00  0.00    +0.000 A 
ATOM     18  C   UNL     1      -2.447  12.176  19.082  0.00  0.00    +0.000 A 
ATOM     19  C   UNL     1      -3.490  11.587  18.362  0.00  0.00    +0.000 A 
ATOM     20  C   UNL     1      -3.216  10.524  17.503  0.00  0.00    +0.000 A 
ATOM     21  C   UNL     1      -1.912  10.040  17.393  0.00  0.00    +0.000 A 
BRANCH  19  22
ATOM     22  C   UNL     1      -4.840  12.045  18.514  0.00  0.00    +0.000 C 
ATOM     23  N   UNL     1      -5.934  12.407  18.652  0.00  0.00    +0.000 NA
ENDBRANCH  19  22
ENDBRANCH  10  16
BRANCH   1  25
ATOM     24  C   UNL     1       7.462   4.551  16.965  0.00  0.00    +0.000 C 
ATOM     25  O   UNL     1       6.326   5.085  16.292  0.00  0.00    +0.000 OA
ENDBRANCH   1  25
TORSDOF 3
ENDMDL
MODEL 8
REMARK VINA RESULT:      -6.8      2.460      3.534
REMARK  Name = 
REMARK  4 active torsions:
REMARK  status: ('A' for Active; 'I' for Inactive)
REMARK    1  A    between atoms: C_1  and  O_2
REMARK    2  A    between atoms: O_2  and  C_3
REMARK    3  A    between atoms: N_12  and  C_13
REMARK    4  A    between atoms: C_16  and  C_17
REMARK                            x       y       z     vdW  Elec       q    Type
REMARK                         _______ _______ _______ _____ _____    ______ ____
ROOT
ATOM      1  C   UNL     1       3.995   4.039  19.008  0.00  0.00    +0.000 A 
ATOM      2  C   UNL     1       4.410   4.649  17.818  0.00  0.00    +0.000 A 
ATOM      3  C   UNL     1       3.966   5.929  17.465  0.00  0.00    +0.000 A 
ATOM      4  C   UNL     1       3.101   6.603  18.342  0.00  0.00    +0.000 A 
ATOM      5  C   UNL     1       2.726   5.980  19.528  0.00  0.00    +0.000 A 
ATOM      6  C   UNL     1       3.150   4.705  19.904  0.00  0.00    +0.000 A 
ATOM      7  O   UNL     1       1.902   6.790  20.261  0.00  0.00    +0.000 OA
ATOM      8  C   UNL     1       1.747   7.936  19.539  0.00  0.00    +0.000 A 
ATOM      9  C   UNL     1       1.040   9.084  19.875  0.00  0.00    +0.000 A 
ATOM     10  N   UNL     1       0.324   9.238  21.069  0.00  0.00    +0.000 N 
ATOM     11  N   UNL     1       1.065  10.083  18.949  0.00  0.00    +0.000 NA
ATOM     12  C   UNL     1       1.763   9.924  17.808  0.00  0.00    +0.000 A 
ATOM     13  N   UNL     1       2.486   8.860  17.439  0.00  0.00    +0.000 NA
ATOM     14  C   UNL     1       2.457   7.863  18.351  0.00  0.00    +0.000 A 
ATOM     15  H   UNL     1       0.217   8.395  21.623  0.00  0.00    +0.000 HD
ENDROOT
BRANCH  10  16
ATOM     16  C   UNL     1      -0.027  10.447  21.693  0.00  0.00    +0.000 A 
ATOM     17  C   UNL     1      -0.966  10.463  22.730  0.00  0.00    +0.000 A 
ATOM     18  C   UNL     1      -1.415  11.677  23.270  0.00  0.00    +0.000 A 
ATOM     19  C   UNL     1      -0.922  12.892  22.786  0.00  0.00    +0.000 A 
ATOM     20  C   UNL     1       0.035  12.888  21.772  0.00  0.00    +0.000 A 
ATOM     21  C   UNL     1       0.468  11.677  21.232  0.00  0.00    +0.000 A 
BRANCH  19  22
ATOM     22  C   UNL     1      -1.405  14.139  23.300  0.00  0.00    +0.000 C 
ATOM     23  N   UNL     1      -1.811  15.142  23.719  0.00  0.00    +0.000 NA
ENDBRANCH  19  22
ENDBRANCH  10  16
BRANCH   1  25
ATOM     24  C   UNL     1       3.655   1.706  18.902  0.00  0.00    +0.000 C 
ATOM     25  O   UNL     1       4.519   2.791  19.224  0.00  0.00    +0.000 OA
ENDBRANCH   1  25
TORSDOF 3
ENDMDL
MODEL 9
REMARK VINA RESULT:      -6.6      1.646      2.060
REMARK  Name = 
REMARK  4 active torsions:
REMARK  status: ('A' for Active; 'I' for Inactive)
REMARK    1  A    between atoms: C_1  and  O_2
REMARK    2  A    between atoms: O_2  and  C_3
REMARK    3  A    between atoms: N_12  and  C_13
REMARK    4  A    between atoms: C_16  and  C_17
REMARK                            x       y       z     vdW  Elec       q    Type
REMARK                         _______ _______ _______ _____ _____    ______ ____
ROOT
ATOM      1  C   UNL     1       5.287   5.742  16.119  0.00  0.00    +0.000 A 
ATOM      2  C   UNL     1       5.012   4.650  16.952  0.00  0.00    +0.000 A 
ATOM      3  C   UNL     1       4.150   4.771  18.048  0.00  0.00    +0.000 A 
ATOM      4  C   UNL     1       3.547   6.016  18.291  0.00  0.00    +0.000 A 
ATOM      5  C   UNL     1       3.821   7.075  17.431  0.00  0.00    +0.000 A 
ATOM      6  C   UNL     1       4.678   6.984  16.334  0.00  0.00    +0.000 A 
ATOM      7  O   UNL     1       3.133   8.197  17.809  0.00  0.00    +0.000 OA
ATOM      8  C   UNL     1       2.416   7.853  18.917  0.00  0.00    +0.000 A 
ATOM      9  C   UNL     1       1.526   8.628  19.648  0.00  0.00    +0.000 A 
ATOM     10  N   UNL     1       1.224   9.963  19.349  0.00  0.00    +0.000 N 
ATOM     11  N   UNL     1       0.947   8.011  20.717  0.00  0.00    +0.000 NA
ATOM     12  C   UNL     1       1.241   6.725  20.989  0.00  0.00    +0.000 A 
ATOM     13  N   UNL     1       2.064   5.917  20.310  0.00  0.00    +0.000 NA
ATOM     14  C   UNL     1       2.646   6.528  19.254  0.00  0.00    +0.000 A 
ATOM     15  H   UNL     1       1.817  10.395  18.647  0.00  0.00    +0.000 HD
ENDROOT
BRANCH  10  16
ATOM     16  C   UNL     1       0.065  10.668  19.711  0.00  0.00    +0.000 A 
ATOM     17  C   UNL     1      -0.983  10.826  18.797  0.00  0.00    +0.000 A 
ATOM     18  C   UNL     1      -2.087  11.634  19.105  0.00  0.00    +0.000 A 
ATOM     19  C   UNL     1      -2.161  12.288  20.339  0.00  0.00    +0.000 A 
ATOM     20  C   UNL     1      -1.137  12.116  21.269  0.00  0.00    +0.000 A 
ATOM     21  C   UNL     1      -0.037  11.320  20.950  0.00  0.00    +0.000 A 
BRANCH  19  22
ATOM     22  C   UNL     1      -3.263  13.151  20.649  0.00  0.00    +0.000 C 
ATOM     23  N   UNL     1      -4.161  13.847  20.884  0.00  0.00    +0.000 NA
ENDBRANCH  19  22
ENDBRANCH  10  16
BRANCH   1  25
ATOM     24  C   UNL     1       6.686   4.154  15.075  0.00  0.00    +0.000 C 
ATOM     25  O   UNL     1       6.142   5.469  15.083  0.00  0.00    +0.000 OA
ENDBRANCH   1  25
TORSDOF 3
ENDMDL
