MODEL 1
REMARK VINA RESULT:      -8.1      0.000      0.000
REMARK  Name = 
REMARK  7 active torsions:
REMARK  status: ('A' for Active; 'I' for Inactive)
REMARK    1  A    between atoms: C_1  and  C_2
REMARK    2  A    between atoms: C_2  and  C_3
REMARK    3  A    between atoms: C_2  and  N_4
REMARK    4  A    between atoms: C_8  and  C_9
REMARK    5  A    between atoms: N_11  and  C_12
REMARK    6  A    between atoms: C_15  and  C_16
REMARK    7  A    between atoms: C_22  and  C_23
REMARK                            x       y       z     vdW  Elec       q    Type
REMARK                         _______ _______ _______ _____ _____    ______ ____
ROOT
ATOM      1  N   UNL     1       5.409   5.313  16.132  0.00  0.00    +0.000 N 
ATOM      2  N   UNL     1       5.757   6.624  16.150  0.00  0.00    +0.000 NA
ATOM      3  C   UNL     1       4.820   7.187  16.916  0.00  0.00    +0.000 A 
ATOM      4  C   UNL     1       3.888   6.253  17.417  0.00  0.00    +0.000 A 
ATOM      5  C   UNL     1       2.747   6.268  18.233  0.00  0.00    +0.000 A 
ATOM      6  C   UNL     1       2.084   5.060  18.456  0.00  0.00    +0.000 A 
ATOM      7  C   UNL     1       2.574   3.881  17.880  0.00  0.00    +0.000 A 
ATOM      8  N   UNL     1       3.698   3.842  17.107  0.00  0.00    +0.000 NA
ATOM      9  C   UNL     1       4.295   5.035  16.900  0.00  0.00    +0.000 A 
ENDROOT
BRANCH   5  10
ATOM     10  C   UNL     1       2.252   7.567  18.720  0.00  0.00    +0.000 C 
ATOM     11  O   UNL     1       2.227   7.715  19.938  0.00  0.00    +0.000 OA
ATOM     12  N   UNL     1       1.811   8.486  17.774  0.00  0.00    +0.000 N 
ATOM     13  H   UNL     1       1.690   8.178  16.818  0.00  0.00    +0.000 HD
BRANCH  12  14
ATOM     14  C   UNL     1       1.347   9.786  18.096  0.00  0.00    +0.000 A 
ATOM     15  C   UNL     1       2.219  10.873  18.174  0.00  0.00    +0.000 A 
ATOM     16  C   UNL     1       1.771  12.154  18.491  0.00  0.00    +0.000 A 
ATOM     17  C   UNL     1       0.420  12.379  18.746  0.00  0.00    +0.000 A 
ATOM     18  C   UNL     1      -0.471  11.296  18.672  0.00  0.00    +0.000 A 
ATOM     19  C   UNL     1      -0.012  10.009  18.335  0.00  0.00    +0.000 A 
BRANCH  17  20
ATOM     20  C   UNL     1      -0.111  13.725  19.096  0.00  0.00    +0.000 C 
ATOM     21  N   UNL     1      -1.421  13.839  19.467  0.00  0.00    +0.000 N 
ATOM     22  O   UNL     1       0.608  14.722  19.060  0.00  0.00    +0.000 OA
ATOM     23  H   UNL     1      -2.080  13.078  19.539  0.00  0.00    +0.000 HD
ATOM     24  H   UNL     1      -1.751  14.766  19.692  0.00  0.00    +0.000 HD
ENDBRANCH  17  20
ENDBRANCH  12  14
ENDBRANCH   5  10
BRANCH   1  26
ATOM     25  C   UNL     1       5.528   4.031  14.012  0.00  0.00    +0.000 C 
ATOM     26  C   UNL     1       6.210   4.387  15.339  0.00  0.00    +0.000 C 
ATOM     27  C   UNL     1       7.603   4.959  15.059  0.00  0.00    +0.000 C 
ENDBRANCH   1  26
BRANCH   7  28
ATOM     28  C   UNL     1       1.850   2.569  18.137  0.00  0.00    +0.000 C 
ATOM     29  C   UNL     1       1.892   1.871  19.481  0.00  0.00    +0.000 C 
ATOM     30  C   UNL     1       0.642   2.576  19.048  0.00  0.00    +0.000 C 
ENDBRANCH   7  28
TORSDOF 5
ENDMDL
MODEL 2
REMARK VINA RESULT:      -8.0      0.991      1.051
REMARK  Name = 
REMARK  7 active torsions:
REMARK  status: ('A' for Active; 'I' for Inactive)
REMARK    1  A    between atoms: C_1  and  C_2
REMARK    2  A    between atoms: C_2  and  C_3
REMARK    3  A    between atoms: C_2  and  N_4
REMARK    4  A    between atoms: C_8  and  C_9
REMARK    5  A    between atoms: N_11  and  C_12
REMARK    6  A    between atoms: C_15  and  C_16
REMARK    7  A    between atoms: C_22  and  C_23
REMARK                            x       y       z     vdW  Elec       q    Type
REMARK                         _______ _______ _______ _____ _____    ______ ____
ROOT
ATOM      1  N   UNL     1       4.885   5.344  16.731  0.00  0.00    +0.000 N 
ATOM      2  N   UNL     1       5.039   6.649  16.392  0.00  0.00    +0.000 NA
ATOM      3  C   UNL     1       4.203   7.287  17.213  0.00  0.00    +0.000 A 
ATOM      4  C   UNL     1       3.533   6.416  18.098  0.00  0.00    +0.000 A 
ATOM      5  C   UNL     1       2.587   6.518  19.130  0.00  0.00    +0.000 A 
ATOM      6  C   UNL     1       2.162   5.341  19.749  0.00  0.00    +0.000 A 
ATOM      7  C   UNL     1       2.691   4.110  19.340  0.00  0.00    +0.000 A 
ATOM      8  N   UNL     1       3.631   3.993  18.358  0.00  0.00    +0.000 NA
ATOM      9  C   UNL     1       3.998   5.154  17.773  0.00  0.00    +0.000 A 
ENDROOT
BRANCH   5  10
ATOM     10  C   UNL     1       2.020   7.844  19.430  0.00  0.00    +0.000 C 
ATOM     11  O   UNL     1       1.836   8.098  20.616  0.00  0.00    +0.000 OA
ATOM     12  N   UNL     1       1.693   8.664  18.356  0.00  0.00    +0.000 N 
ATOM     13  H   UNL     1       1.698   8.269  17.425  0.00  0.00    +0.000 HD
BRANCH  12  14
ATOM     14  C   UNL     1       1.176   9.976  18.497  0.00  0.00    +0.000 A 
ATOM     15  C   UNL     1       2.013  11.094  18.494  0.00  0.00    +0.000 A 
ATOM     16  C   UNL     1       1.513  12.387  18.633  0.00  0.00    +0.000 A 
ATOM     17  C   UNL     1       0.144  12.595  18.785  0.00  0.00    +0.000 A 
ATOM     18  C   UNL     1      -0.712  11.482  18.791  0.00  0.00    +0.000 A 
ATOM     19  C   UNL     1      -0.200  10.180  18.633  0.00  0.00    +0.000 A 
BRANCH  17  20
ATOM     20  C   UNL     1      -0.442  13.954  18.944  0.00  0.00    +0.000 C 
ATOM     21  N   UNL     1      -1.672  14.076  19.527  0.00  0.00    +0.000 N 
ATOM     22  O   UNL     1       0.163  14.956  18.568  0.00  0.00    +0.000 OA
ATOM     23  H   UNL     1      -2.234  13.314  19.877  0.00  0.00    +0.000 HD
ATOM     24  H   UNL     1      -2.044  15.010  19.614  0.00  0.00    +0.000 HD
ENDBRANCH  17  20
ENDBRANCH  12  14
ENDBRANCH   5  10
BRANCH   1  26
ATOM     25  C   UNL     1       5.468   4.494  14.475  0.00  0.00    +0.000 C 
ATOM     26  C   UNL     1       5.635   4.335  15.991  0.00  0.00    +0.000 C 
ATOM     27  C   UNL     1       7.124   4.380  16.348  0.00  0.00    +0.000 C 
ENDBRANCH   1  26
BRANCH   7  28
ATOM     28  C   UNL     1       2.228   2.835  20.027  0.00  0.00    +0.000 C 
ATOM     29  C   UNL     1       2.569   2.523  21.469  0.00  0.00    +0.000 C 
ATOM     30  C   UNL     1       1.175   2.937  21.109  0.00  0.00    +0.000 C 
ENDBRANCH   7  28
TORSDOF 5
ENDMDL
MODEL 3
REMARK VINA RESULT:      -8.0      2.460      2.644
REMARK  Name = 
REMARK  7 active torsions:
REMARK  status: ('A' for Active; 'I' for Inactive)
REMARK    1  A    between atoms: C_1  and  C_2
REMARK    2  A    between atoms: C_2  and  C_3
REMARK    3  A    between atoms: C_2  and  N_4
REMARK    4  A    between atoms: C_8  and  C_9
REMARK    5  A    between atoms: N_11  and  C_12
REMARK    6  A    between atoms: C_15  and  C_16
REMARK    7  A    between atoms: C_22  and  C_23
REMARK                            x       y       z     vdW  Elec       q    Type
REMARK                         _______ _______ _______ _____ _____    ______ ____
ROOT
ATOM      1  N   UNL     1       4.859   5.409  16.941  0.00  0.00    +0.000 N 
ATOM      2  N   UNL     1       4.945   6.723  16.612  0.00  0.00    +0.000 NA
ATOM      3  C   UNL     1       4.073   7.310  17.435  0.00  0.00    +0.000 A 
ATOM      4  C   UNL     1       3.446   6.397  18.310  0.00  0.00    +0.000 A 
ATOM      5  C   UNL     1       2.492   6.440  19.338  0.00  0.00    +0.000 A 
ATOM      6  C   UNL     1       2.127   5.238  19.946  0.00  0.00    +0.000 A 
ATOM      7  C   UNL     1       2.723   4.040  19.531  0.00  0.00    +0.000 A 
ATOM      8  N   UNL     1       3.672   3.981  18.552  0.00  0.00    +0.000 NA
ATOM      9  C   UNL     1       3.980   5.164  17.977  0.00  0.00    +0.000 A 
ENDROOT
BRANCH   5  10
ATOM     10  C   UNL     1       1.853   7.732  19.646  0.00  0.00    +0.000 C 
ATOM     11  O   UNL     1       1.742   8.517  18.709  0.00  0.00    +0.000 OA
ATOM     12  N   UNL     1       1.485   7.972  20.964  0.00  0.00    +0.000 N 
ATOM     13  H   UNL     1       1.810   7.339  21.682  0.00  0.00    +0.000 HD
BRANCH  12  14
ATOM     14  C   UNL     1       0.829   9.153  21.395  0.00  0.00    +0.000 A 
ATOM     15  C   UNL     1       0.021   9.163  22.534  0.00  0.00    +0.000 A 
ATOM     16  C   UNL     1      -0.629  10.319  22.963  0.00  0.00    +0.000 A 
ATOM     17  C   UNL     1      -0.486  11.507  22.251  0.00  0.00    +0.000 A 
ATOM     18  C   UNL     1       0.323  11.514  21.103  0.00  0.00    +0.000 A 
ATOM     19  C   UNL     1       0.989  10.346  20.686  0.00  0.00    +0.000 A 
BRANCH  17  20
ATOM     20  C   UNL     1      -1.163  12.768  22.662  0.00  0.00    +0.000 C 
ATOM     21  N   UNL     1      -2.257  13.186  21.958  0.00  0.00    +0.000 N 
ATOM     22  O   UNL     1      -0.757  13.426  23.617  0.00  0.00    +0.000 OA
ATOM     23  H   UNL     1      -2.669  12.706  21.172  0.00  0.00    +0.000 HD
ATOM     24  H   UNL     1      -2.689  14.047  22.258  0.00  0.00    +0.000 HD
ENDBRANCH  17  20
ENDBRANCH  12  14
ENDBRANCH   5  10
BRANCH   1  26
ATOM     25  C   UNL     1       5.557   4.660  14.682  0.00  0.00    +0.000 C 
ATOM     26  C   UNL     1       5.665   4.448  16.197  0.00  0.00    +0.000 C 
ATOM     27  C   UNL     1       7.136   4.515  16.618  0.00  0.00    +0.000 C 
ENDBRANCH   1  26
BRANCH   7  28
ATOM     28  C   UNL     1       2.325   2.737  20.205  0.00  0.00    +0.000 C 
ATOM     29  C   UNL     1       2.708   2.416  21.635  0.00  0.00    +0.000 C 
ATOM     30  C   UNL     1       1.292   2.780  21.310  0.00  0.00    +0.000 C 
ENDBRANCH   7  28
TORSDOF 5
ENDMDL
MODEL 4
REMARK VINA RESULT:      -7.8      2.707      8.876
REMARK  Name = 
REMARK  7 active torsions:
REMARK  status: ('A' for Active; 'I' for Inactive)
REMARK    1  A    between atoms: C_1  and  C_2
REMARK    2  A    between atoms: C_2  and  C_3
REMARK    3  A    between atoms: C_2  and  N_4
REMARK    4  A    between atoms: C_8  and  C_9
REMARK    5  A    between atoms: N_11  and  C_12
REMARK    6  A    between atoms: C_15  and  C_16
REMARK    7  A    between atoms: C_22  and  C_23
REMARK                            x       y       z     vdW  Elec       q    Type
REMARK                         _______ _______ _______ _____ _____    ______ ____
ROOT
ATOM      1  N   UNL     1      -0.965  11.938  21.056  0.00  0.00    +0.000 N 
ATOM      2  N   UNL     1       0.282  11.853  21.582  0.00  0.00    +0.000 NA
ATOM      3  C   UNL     1       0.942  11.094  20.705  0.00  0.00    +0.000 A 
ATOM      4  C   UNL     1       0.146  10.711  19.604  0.00  0.00    +0.000 A 
ATOM      5  C   UNL     1       0.297   9.953  18.433  0.00  0.00    +0.000 A 
ATOM      6  C   UNL     1      -0.813   9.804  17.599  0.00  0.00    +0.000 A 
ATOM      7  C   UNL     1      -2.026  10.416  17.941  0.00  0.00    +0.000 A 
ATOM      8  N   UNL     1      -2.185  11.179  19.061  0.00  0.00    +0.000 NA
ATOM      9  C   UNL     1      -1.093  11.279  19.849  0.00  0.00    +0.000 A 
ENDROOT
BRANCH   5  10
ATOM     10  C   UNL     1       1.583   9.272  18.202  0.00  0.00    +0.000 C 
ATOM     11  O   UNL     1       2.466   9.946  17.681  0.00  0.00    +0.000 OA
ATOM     12  N   UNL     1       1.670   7.927  18.540  0.00  0.00    +0.000 N 
ATOM     13  H   UNL     1       0.821   7.428  18.771  0.00  0.00    +0.000 HD
BRANCH  12  14
ATOM     14  C   UNL     1       2.854   7.158  18.408  0.00  0.00    +0.000 A 
ATOM     15  C   UNL     1       3.712   7.320  17.318  0.00  0.00    +0.000 A 
ATOM     16  C   UNL     1       4.876   6.568  17.181  0.00  0.00    +0.000 A 
ATOM     17  C   UNL     1       5.213   5.618  18.143  0.00  0.00    +0.000 A 
ATOM     18  C   UNL     1       4.361   5.442  19.245  0.00  0.00    +0.000 A 
ATOM     19  C   UNL     1       3.195   6.218  19.385  0.00  0.00    +0.000 A 
BRANCH  17  20
ATOM     20  C   UNL     1       6.441   4.783  18.042  0.00  0.00    +0.000 C 
ATOM     21  N   UNL     1       6.703   4.139  16.865  0.00  0.00    +0.000 N 
ATOM     22  O   UNL     1       7.215   4.671  18.990  0.00  0.00    +0.000 OA
ATOM     23  H   UNL     1       6.134   4.182  16.032  0.00  0.00    +0.000 HD
ATOM     24  H   UNL     1       7.539   3.575  16.831  0.00  0.00    +0.000 HD
ENDBRANCH  17  20
ENDBRANCH  12  14
ENDBRANCH   5  10
BRANCH   1  26
ATOM     25  C   UNL     1      -2.364  11.983  23.104  0.00  0.00    +0.000 C 
ATOM     26  C   UNL     1      -1.986  12.678  21.790  0.00  0.00    +0.000 C 
ATOM     27  C   UNL     1      -1.527  14.109  22.084  0.00  0.00    +0.000 C 
ENDBRANCH   1  26
BRANCH   7  28
ATOM     28  C   UNL     1      -3.226  10.256  17.021  0.00  0.00    +0.000 C 
ATOM     29  C   UNL     1      -3.469  11.172  15.840  0.00  0.00    +0.000 C 
ATOM     30  C   UNL     1      -2.994   9.770  15.607  0.00  0.00    +0.000 C 
ENDBRANCH   7  28
TORSDOF 5
ENDMDL
MODEL 5
REMARK VINA RESULT:      -7.6      2.767      4.391
REMARK  Name = 
REMARK  7 active torsions:
REMARK  status: ('A' for Active; 'I' for Inactive)
REMARK    1  A    between atoms: C_1  and  C_2
REMARK    2  A    between atoms: C_2  and  C_3
REMARK    3  A    between atoms: C_2  and  N_4
REMARK    4  A    between atoms: C_8  and  C_9
REMARK    5  A    between atoms: N_11  and  C_12
REMARK    6  A    between atoms: C_15  and  C_16
REMARK    7  A    between atoms: C_22  and  C_23
REMARK                            x       y       z     vdW  Elec       q    Type
REMARK                         _______ _______ _______ _____ _____    ______ ____
ROOT
ATOM      1  N   UNL     1       2.690   3.673  19.654  0.00  0.00    +0.000 N 
ATOM      2  N   UNL     1       1.688   3.955  20.525  0.00  0.00    +0.000 NA
ATOM      3  C   UNL     1       1.474   5.259  20.345  0.00  0.00    +0.000 A 
ATOM      4  C   UNL     1       2.302   5.818  19.348  0.00  0.00    +0.000 A 
ATOM      5  C   UNL     1       2.508   7.076  18.761  0.00  0.00    +0.000 A 
ATOM      6  C   UNL     1       3.497   7.189  17.782  0.00  0.00    +0.000 A 
ATOM      7  C   UNL     1       4.237   6.061  17.407  0.00  0.00    +0.000 A 
ATOM      8  N   UNL     1       4.033   4.824  17.947  0.00  0.00    +0.000 NA
ATOM      9  C   UNL     1       3.082   4.764  18.904  0.00  0.00    +0.000 A 
ENDROOT
BRANCH   5  10
ATOM     10  C   UNL     1       1.746   8.224  19.282  0.00  0.00    +0.000 C 
ATOM     11  O   UNL     1       1.375   9.049  18.453  0.00  0.00    +0.000 OA
ATOM     12  N   UNL     1       1.562   8.305  20.657  0.00  0.00    +0.000 N 
ATOM     13  H   UNL     1       2.085   7.679  21.255  0.00  0.00    +0.000 HD
BRANCH  12  14
ATOM     14  C   UNL     1       0.819   9.332  21.292  0.00  0.00    +0.000 A 
ATOM     15  C   UNL     1      -0.013   9.063  22.381  0.00  0.00    +0.000 A 
ATOM     16  C   UNL     1      -0.748  10.066  23.010  0.00  0.00    +0.000 A 
ATOM     17  C   UNL     1      -0.670  11.380  22.556  0.00  0.00    +0.000 A 
ATOM     18  C   UNL     1       0.163  11.668  21.462  0.00  0.00    +0.000 A 
ATOM     19  C   UNL     1       0.914  10.651  20.843  0.00  0.00    +0.000 A 
BRANCH  17  20
ATOM     20  C   UNL     1      -1.438  12.488  23.186  0.00  0.00    +0.000 C 
ATOM     21  N   UNL     1      -2.791  12.353  23.326  0.00  0.00    +0.000 N 
ATOM     22  O   UNL     1      -0.877  13.508  23.582  0.00  0.00    +0.000 OA
ATOM     23  H   UNL     1      -3.334  11.551  23.045  0.00  0.00    +0.000 HD
ATOM     24  H   UNL     1      -3.283  13.125  23.752  0.00  0.00    +0.000 HD
ENDBRANCH  17  20
ENDBRANCH  12  14
ENDBRANCH   5  10
BRANCH   1  26
ATOM     25  C   UNL     1       3.225   1.748  18.183  0.00  0.00    +0.000 C 
ATOM     26  C   UNL     1       3.217   2.313  19.609  0.00  0.00    +0.000 C 
ATOM     27  C   UNL     1       4.631   2.248  20.193  0.00  0.00    +0.000 C 
ENDBRANCH   1  26
BRANCH   7  28
ATOM     28  C   UNL     1       5.306   6.193  16.334  0.00  0.00    +0.000 C 
ATOM     29  C   UNL     1       6.745   5.783  16.570  0.00  0.00    +0.000 C 
ATOM     30  C   UNL     1       5.862   4.933  15.708  0.00  0.00    +0.000 C 
ENDBRANCH   7  28
TORSDOF 5
ENDMDL
MODEL 6
REMARK VINA RESULT:      -7.6      0.778      1.281
REMARK  Name = 
REMARK  7 active torsions:
REMARK  status: ('A' for Active; 'I' for Inactive)
REMARK    1  A    between atoms: C_1  and  C_2
REMARK    2  A    between atoms: C_2  and  C_3
REMARK    3  A    between atoms: C_2  and  N_4
REMARK    4  A    between atoms: C_8  and  C_9
REMARK    5  A    between atoms: N_11  and  C_12
REMARK    6  A    between atoms: C_15  and  C_16
REMARK    7  A    between atoms: C_22  and  C_23
REMARK                            x       y       z     vdW  Elec       q    Type
REMARK                         _______ _______ _______ _____ _____    ______ ____
ROOT
ATOM      1  N   UNL     1       4.950   5.397  16.729  0.00  0.00    +0.000 N 
ATOM      2  N   UNL     1       5.239   6.701  16.493  0.00  0.00    +0.000 NA
ATOM      3  C   UNL     1       4.378   7.359  17.271  0.00  0.00    +0.000 A 
ATOM      4  C   UNL     1       3.556   6.499  18.029  0.00  0.00    +0.000 A 
ATOM      5  C   UNL     1       2.523   6.620  18.971  0.00  0.00    +0.000 A 
ATOM      6  C   UNL     1       1.946   5.450  19.467  0.00  0.00    +0.000 A 
ATOM      7  C   UNL     1       2.415   4.204  19.031  0.00  0.00    +0.000 A 
ATOM      8  N   UNL     1       3.437   4.065  18.137  0.00  0.00    +0.000 NA
ATOM      9  C   UNL     1       3.951   5.222  17.667  0.00  0.00    +0.000 A 
ENDROOT
BRANCH   5  10
ATOM     10  C   UNL     1       2.034   7.970  19.302  0.00  0.00    +0.000 C 
ATOM     11  O   UNL     1       1.904   8.221  20.496  0.00  0.00    +0.000 OA
ATOM     12  N   UNL     1       1.713   8.817  18.248  0.00  0.00    +0.000 N 
ATOM     13  H   UNL     1       1.667   8.433  17.313  0.00  0.00    +0.000 HD
BRANCH  12  14
ATOM     14  C   UNL     1       1.269  10.152  18.418  0.00  0.00    +0.000 A 
ATOM     15  C   UNL     1      -0.056  10.443  18.753  0.00  0.00    +0.000 A 
ATOM     16  C   UNL     1      -0.500  11.753  18.921  0.00  0.00    +0.000 A 
ATOM     17  C   UNL     1       0.381  12.818  18.752  0.00  0.00    +0.000 A 
ATOM     18  C   UNL     1       1.717  12.542  18.416  0.00  0.00    +0.000 A 
ATOM     19  C   UNL     1       2.161  11.216  18.264  0.00  0.00    +0.000 A 
BRANCH  17  20
ATOM     20  C   UNL     1      -0.043  14.235  18.913  0.00  0.00    +0.000 C 
ATOM     21  N   UNL     1      -1.312  14.497  19.346  0.00  0.00    +0.000 N 
ATOM     22  O   UNL     1       0.728  15.162  18.669  0.00  0.00    +0.000 OA
ATOM     23  H   UNL     1      -2.006  13.804  19.583  0.00  0.00    +0.000 HD
ATOM     24  H   UNL     1      -1.570  15.468  19.438  0.00  0.00    +0.000 HD
ENDBRANCH  17  20
ENDBRANCH  12  14
ENDBRANCH   5  10
BRANCH   1  26
ATOM     25  C   UNL     1       5.480   4.485  14.484  0.00  0.00    +0.000 C 
ATOM     26  C   UNL     1       5.689   4.373  15.999  0.00  0.00    +0.000 C 
ATOM     27  C   UNL     1       7.186   4.440  16.314  0.00  0.00    +0.000 C 
ENDBRANCH   1  26
BRANCH   7  28
ATOM     28  C   UNL     1       1.786   2.935  19.584  0.00  0.00    +0.000 C 
ATOM     29  C   UNL     1       0.632   2.237  18.896  0.00  0.00    +0.000 C 
ATOM     30  C   UNL     1       2.003   1.636  18.839  0.00  0.00    +0.000 C 
ENDBRANCH   7  28
TORSDOF 5
ENDMDL
MODEL 7
REMARK VINA RESULT:      -7.6      2.577      8.858
REMARK  Name = 
REMARK  7 active torsions:
REMARK  status: ('A' for Active; 'I' for Inactive)
REMARK    1  A    between atoms: C_1  and  C_2
REMARK    2  A    between atoms: C_2  and  C_3
REMARK    3  A    between atoms: C_2  and  N_4
REMARK    4  A    between atoms: C_8  and  C_9
REMARK    5  A    between atoms: N_11  and  C_12
REMARK    6  A    between atoms: C_15  and  C_16
REMARK    7  A    between atoms: C_22  and  C_23
REMARK                            x       y       z     vdW  Elec       q    Type
REMARK                         _______ _______ _______ _____ _____    ______ ____
ROOT
ATOM      1  N   UNL     1       0.296  13.847  19.060  0.00  0.00    +0.000 N 
ATOM      2  N   UNL     1       1.512  13.659  19.632  0.00  0.00    +0.000 NA
ATOM      3  C   UNL     1       1.700  12.341  19.543  0.00  0.00    +0.000 A 
ATOM      4  C   UNL     1       0.636  11.678  18.896  0.00  0.00    +0.000 A 
ATOM      5  C   UNL     1       0.304  10.363  18.536  0.00  0.00    +0.000 A 
ATOM      6  C   UNL     1      -0.920  10.145  17.902  0.00  0.00    +0.000 A 
ATOM      7  C   UNL     1      -1.767  11.229  17.633  0.00  0.00    +0.000 A 
ATOM      8  N   UNL     1      -1.449  12.518  17.950  0.00  0.00    +0.000 NA
ATOM      9  C   UNL     1      -0.266  12.680  18.580  0.00  0.00    +0.000 A 
ENDROOT
BRANCH   5  10
ATOM     10  C   UNL     1       1.213   9.277  18.940  0.00  0.00    +0.000 C 
ATOM     11  O   UNL     1       1.357   9.113  20.148  0.00  0.00    +0.000 OA
ATOM     12  N   UNL     1       1.866   8.573  17.935  0.00  0.00    +0.000 N 
ATOM     13  H   UNL     1       1.825   8.929  16.989  0.00  0.00    +0.000 HD
BRANCH  12  14
ATOM     14  C   UNL     1       2.737   7.481  18.177  0.00  0.00    +0.000 A 
ATOM     15  C   UNL     1       2.459   6.530  19.161  0.00  0.00    +0.000 A 
ATOM     16  C   UNL     1       3.311   5.455  19.405  0.00  0.00    +0.000 A 
ATOM     17  C   UNL     1       4.479   5.306  18.662  0.00  0.00    +0.000 A 
ATOM     18  C   UNL     1       4.774   6.253  17.669  0.00  0.00    +0.000 A 
ATOM     19  C   UNL     1       3.900   7.327  17.417  0.00  0.00    +0.000 A 
BRANCH  17  20
ATOM     20  C   UNL     1       5.427   4.180  18.887  0.00  0.00    +0.000 C 
ATOM     21  N   UNL     1       6.629   4.192  18.237  0.00  0.00    +0.000 N 
ATOM     22  O   UNL     1       5.147   3.253  19.645  0.00  0.00    +0.000 OA
ATOM     23  H   UNL     1       6.950   4.915  17.609  0.00  0.00    +0.000 HD
ATOM     24  H   UNL     1       7.246   3.412  18.406  0.00  0.00    +0.000 HD
ENDBRANCH  17  20
ENDBRANCH  12  14
ENDBRANCH   5  10
BRANCH   1  26
ATOM     25  C   UNL     1      -1.153  15.486  20.229  0.00  0.00    +0.000 C 
ATOM     26  C   UNL     1      -0.257  15.196  19.018  0.00  0.00    +0.000 C 
ATOM     27  C   UNL     1       0.853  16.248  18.941  0.00  0.00    +0.000 C 
ENDBRANCH   1  26
BRANCH   7  28
ATOM     28  C   UNL     1      -3.094  10.982  16.934  0.00  0.00    +0.000 C 
ATOM     29  C   UNL     1      -3.223  10.964  15.425  0.00  0.00    +0.000 C 
ATOM     30  C   UNL     1      -3.290   9.678  16.192  0.00  0.00    +0.000 C 
ENDBRANCH   7  28
TORSDOF 5
ENDMDL
MODEL 8
REMARK VINA RESULT:      -7.6      5.073      6.825
REMARK  Name = 
REMARK  7 active torsions:
REMARK  status: ('A' for Active; 'I' for Inactive)
REMARK    1  A    between atoms: C_1  and  C_2
REMARK    2  A    between atoms: C_2  and  C_3
REMARK    3  A    between atoms: C_2  and  N_4
REMARK    4  A    between atoms: C_8  and  C_9
REMARK    5  A    between atoms: N_11  and  C_12
REMARK    6  A    between atoms: C_15  and  C_16
REMARK    7  A    between atoms: C_22  and  C_23
REMARK                            x       y       z     vdW  Elec       q    Type
REMARK                         _______ _______ _______ _____ _____    ______ ____
ROOT
ATOM      1  N   UNL     1       3.868   4.102  18.141  0.00  0.00    +0.000 N 
ATOM      2  N   UNL     1       3.867   4.867  19.262  0.00  0.00    +0.000 NA
ATOM      3  C   UNL     1       4.922   5.667  19.096  0.00  0.00    +0.000 A 
ATOM      4  C   UNL     1       5.587   5.451  17.871  0.00  0.00    +0.000 A 
ATOM      5  C   UNL     1       6.700   5.971  17.192  0.00  0.00    +0.000 A 
ATOM      6  C   UNL     1       7.033   5.417  15.955  0.00  0.00    +0.000 A 
ATOM      7  C   UNL     1       6.253   4.381  15.425  0.00  0.00    +0.000 A 
ATOM      8  N   UNL     1       5.152   3.880  16.056  0.00  0.00    +0.000 NA
ATOM      9  C   UNL     1       4.879   4.431  17.259  0.00  0.00    +0.000 A 
ENDROOT
BRANCH   5  10
ATOM     10  C   UNL     1       7.513   6.997  17.868  0.00  0.00    +0.000 C 
ATOM     11  O   UNL     1       8.207   6.608  18.802  0.00  0.00    +0.000 OA
ATOM     12  N   UNL     1       7.388   8.311  17.432  0.00  0.00    +0.000 N 
ATOM     13  H   UNL     1       6.638   8.541  16.794  0.00  0.00    +0.000 HD
BRANCH  12  14
ATOM     14  C   UNL     1       8.136   9.391  17.964  0.00  0.00    +0.000 A 
ATOM     15  C   UNL     1       8.955   9.230  19.083  0.00  0.00    +0.000 A 
ATOM     16  C   UNL     1       9.693  10.287  19.613  0.00  0.00    +0.000 A 
ATOM     17  C   UNL     1       9.624  11.549  19.029  0.00  0.00    +0.000 A 
ATOM     18  C   UNL     1       8.805  11.729  17.902  0.00  0.00    +0.000 A 
ATOM     19  C   UNL     1       8.076  10.652  17.364  0.00  0.00    +0.000 A 
BRANCH  17  20
ATOM     20  C   UNL     1      10.385  12.714  19.558  0.00  0.00    +0.000 C 
ATOM     21  N   UNL     1       9.825  13.957  19.477  0.00  0.00    +0.000 N 
ATOM     22  O   UNL     1      11.496  12.571  20.065  0.00  0.00    +0.000 OA
ATOM     23  H   UNL     1       8.917  14.169  19.091  0.00  0.00    +0.000 HD
ATOM     24  H   UNL     1      10.369  14.726  19.838  0.00  0.00    +0.000 HD
ENDBRANCH  17  20
ENDBRANCH  12  14
ENDBRANCH   5  10
BRANCH   1  26
ATOM     25  C   UNL     1       3.296   1.737  18.628  0.00  0.00    +0.000 C 
ATOM     26  C   UNL     1       2.852   3.065  18.001  0.00  0.00    +0.000 C 
ATOM     27  C   UNL     1       1.523   3.504  18.623  0.00  0.00    +0.000 C 
ENDBRANCH   1  26
BRANCH   7  28
ATOM     28  C   UNL     1       6.619   3.791  14.072  0.00  0.00    +0.000 C 
ATOM     29  C   UNL     1       5.720   3.926  12.860  0.00  0.00    +0.000 C 
ATOM     30  C   UNL     1       6.980   4.733  12.945  0.00  0.00    +0.000 C 
ENDBRANCH   7  28
TORSDOF 5
ENDMDL
MODEL 9
REMARK VINA RESULT:      -7.6      0.862      1.409
REMARK  Name = 
REMARK  7 active torsions:
REMARK  status: ('A' for Active; 'I' for Inactive)
REMARK    1  A    between atoms: C_1  and  C_2
REMARK    2  A    between atoms: C_2  and  C_3
REMARK    3  A    between atoms: C_2  and  N_4
REMARK    4  A    between atoms: C_8  and  C_9
REMARK    5  A    between atoms: N_11  and  C_12
REMARK    6  A    between atoms: C_15  and  C_16
REMARK    7  A    between atoms: C_22  and  C_23
REMARK                            x       y       z     vdW  Elec       q    Type
REMARK                         _______ _______ _______ _____ _____    ______ ____
ROOT
ATOM      1  N   UNL     1       5.667   5.945  16.412  0.00  0.00    +0.000 N 
ATOM      2  N   UNL     1       5.916   7.269  16.571  0.00  0.00    +0.000 NA
ATOM      3  C   UNL     1       4.863   7.705  17.265  0.00  0.00    +0.000 A 
ATOM      4  C   UNL     1       3.951   6.676  17.581  0.00  0.00    +0.000 A 
ATOM      5  C   UNL     1       2.728   6.550  18.259  0.00  0.00    +0.000 A 
ATOM      6  C   UNL     1       2.133   5.289  18.311  0.00  0.00    +0.000 A 
ATOM      7  C   UNL     1       2.767   4.195  17.707  0.00  0.00    +0.000 A 
ATOM      8  N   UNL     1       3.969   4.292  17.068  0.00  0.00    +0.000 NA
ATOM      9  C   UNL     1       4.498   5.534  17.023  0.00  0.00    +0.000 A 
ENDROOT
BRANCH   5  10
ATOM     10  C   UNL     1       2.091   7.771  18.784  0.00  0.00    +0.000 C 
ATOM     11  O   UNL     1       2.015   7.859  20.005  0.00  0.00    +0.000 OA
ATOM     12  N   UNL     1       1.588   8.683  17.864  0.00  0.00    +0.000 N 
ATOM     13  H   UNL     1       1.526   8.409  16.892  0.00  0.00    +0.000 HD
BRANCH  12  14
ATOM     14  C   UNL     1       0.986   9.914  18.225  0.00  0.00    +0.000 A 
ATOM     15  C   UNL     1      -0.400  10.042  18.340  0.00  0.00    +0.000 A 
ATOM     16  C   UNL     1      -1.000  11.249  18.693  0.00  0.00    +0.000 A 
ATOM     17  C   UNL     1      -0.216  12.374  18.941  0.00  0.00    +0.000 A 
ATOM     18  C   UNL     1       1.180  12.262  18.830  0.00  0.00    +0.000 A 
ATOM     19  C   UNL     1       1.778  11.035  18.489  0.00  0.00    +0.000 A 
BRANCH  17  20
ATOM     20  C   UNL     1      -0.805  13.688  19.315  0.00  0.00    +0.000 C 
ATOM     21  N   UNL     1      -0.448  14.797  18.600  0.00  0.00    +0.000 N 
ATOM     22  O   UNL     1      -1.603  13.787  20.245  0.00  0.00    +0.000 OA
ATOM     23  H   UNL     1       0.186  14.810  17.815  0.00  0.00    +0.000 HD
ATOM     24  H   UNL     1      -0.861  15.673  18.883  0.00  0.00    +0.000 HD
ENDBRANCH  17  20
ENDBRANCH  12  14
ENDBRANCH   5  10
BRANCH   1  26
ATOM     25  C   UNL     1       7.491   4.270  16.557  0.00  0.00    +0.000 C 
ATOM     26  C   UNL     1       6.615   5.141  15.648  0.00  0.00    +0.000 C 
ATOM     27  C   UNL     1       5.893   4.252  14.631  0.00  0.00    +0.000 C 
ENDBRANCH   1  26
BRANCH   7  28
ATOM     28  C   UNL     1       2.115   2.824  17.777  0.00  0.00    +0.000 C 
ATOM     29  C   UNL     1       2.270   1.915  18.979  0.00  0.00    +0.000 C 
ATOM     30  C   UNL     1       0.968   2.616  18.742  0.00  0.00    +0.000 C 
ENDBRANCH   7  28
TORSDOF 5
ENDMDL
