MODEL 1
REMARK VINA RESULT:      -7.4      0.000      0.000
REMARK  Name = 
REMARK  5 active torsions:
REMARK  status: ('A' for Active; 'I' for Inactive)
REMARK    1  A    between atoms: C_2  and  C_3
REMARK    2  A    between atoms: C_3  and  N_4
REMARK    3  A    between atoms: N_4  and  C_5
REMARK    4  A    between atoms: C_14  and  C_15
REMARK    5  A    between atoms: C_23  and  C_24
REMARK                            x       y       z     vdW  Elec       q    Type
REMARK                         _______ _______ _______ _____ _____    ______ ____
ROOT
ATOM      1  O   UNL     1       1.964  15.880  18.824  0.00  0.00    +0.000 OA
ATOM      2  C   UNL     1       1.192  14.947  19.078  0.00  0.00    +0.000 C 
ATOM      3  N   UNL     1       1.608  13.678  18.824  0.00  0.00    +0.000 N 
ATOM      4  C   UNL     1       0.859  12.519  18.802  0.00  0.00    +0.000 A 
ATOM      5  N   UNL     1      -0.471  12.586  18.780  0.00  0.00    +0.000 NA
ATOM      6  C   UNL     1      -1.173  11.445  18.748  0.00  0.00    +0.000 A 
ATOM      7  C   UNL     1      -0.540  10.223  18.769  0.00  0.00    +0.000 A 
ATOM      8  C   UNL     1       0.840  10.226  18.774  0.00  0.00    +0.000 A 
ATOM      9  N   UNL     1       1.553  11.378  18.775  0.00  0.00    +0.000 NA
ATOM     10  H   UNL     1       2.576  13.562  18.574  0.00  0.00    +0.000 HD
ENDROOT
BRANCH   6  11
ATOM     11  C   UNL     1      -2.642  11.589  18.670  0.00  0.00    +0.000 A 
ATOM     12  C   UNL     1      -3.368  10.967  17.636  0.00  0.00    +0.000 A 
ATOM     13  C   UNL     1      -4.765  11.056  17.566  0.00  0.00    +0.000 A 
ATOM     14  C   UNL     1      -5.456  11.771  18.535  0.00  0.00    +0.000 A 
ATOM     15 CL   UNL     1      -7.173  11.862  18.479  0.00  0.00    +0.000 Cl
ATOM     16  C   UNL     1      -4.767  12.412  19.560  0.00  0.00    +0.000 A 
ATOM     17  C   UNL     1      -3.368  12.324  19.618  0.00  0.00    +0.000 A 
ENDBRANCH   6  11
BRANCH   8  18
ATOM     18  C   UNL     1       1.621   8.975  18.817  0.00  0.00    +0.000 A 
ATOM     19  C   UNL     1       2.430   8.580  17.732  0.00  0.00    +0.000 A 
ATOM     20  C   UNL     1       3.137   7.374  17.749  0.00  0.00    +0.000 A 
ATOM     21  C   UNL     1       3.052   6.542  18.859  0.00  0.00    +0.000 A 
ATOM     22 CL   UNL     1       3.918   5.057  18.880  0.00  0.00    +0.000 Cl
ATOM     23  C   UNL     1       2.272   6.908  19.952  0.00  0.00    +0.000 A 
ATOM     24  C   UNL     1       1.566   8.116  19.928  0.00  0.00    +0.000 A 
ENDBRANCH   8  18
BRANCH   2  25
ATOM     25  C   UNL     1      -0.185  15.226  19.705  0.00  0.00    +0.000 C 
BRANCH  25  26
ATOM     26  N   UNL     1      -0.119  15.168  21.169  0.00  0.00    +0.000 N 
ATOM     27  H   UNL     1       0.838  15.093  21.506  0.00  0.00    +0.000 HD
BRANCH  26  28
ATOM     28  C   UNL     1      -0.986  14.292  21.832  0.00  0.00    +0.000 A 
ATOM     29  C   UNL     1      -0.521  13.011  22.160  0.00  0.00    +0.000 A 
ATOM     30  C   UNL     1      -1.330  12.096  22.836  0.00  0.00    +0.000 A 
ATOM     31  C   UNL     1      -2.612  12.461  23.232  0.00  0.00    +0.000 A 
ATOM     32  C   UNL     1      -3.072  13.748  22.971  0.00  0.00    +0.000 A 
ATOM     33  C   UNL     1      -2.257  14.662  22.290  0.00  0.00    +0.000 A 
ENDBRANCH  26  28
ENDBRANCH  25  26
ENDBRANCH   2  25
TORSDOF 5
ENDMDL
MODEL 2
REMARK VINA RESULT:      -7.1      1.160      1.860
REMARK  Name = 
REMARK  5 active torsions:
REMARK  status: ('A' for Active; 'I' for Inactive)
REMARK    1  A    between atoms: C_2  and  C_3
REMARK    2  A    between atoms: C_3  and  N_4
REMARK    3  A    between atoms: N_4  and  C_5
REMARK    4  A    between atoms: C_14  and  C_15
REMARK    5  A    between atoms: C_23  and  C_24
REMARK                            x       y       z     vdW  Elec       q    Type
REMARK                         _______ _______ _______ _____ _____    ______ ____
ROOT
ATOM      1  O   UNL     1       3.043  14.793  17.937  0.00  0.00    +0.000 OA
ATOM      2  C   UNL     1       2.251  13.909  18.288  0.00  0.00    +0.000 C 
ATOM      3  N   UNL     1       2.617  12.611  18.118  0.00  0.00    +0.000 N 
ATOM      4  C   UNL     1       1.830  11.479  18.210  0.00  0.00    +0.000 A 
ATOM      5  N   UNL     1       0.504  11.591  18.229  0.00  0.00    +0.000 NA
ATOM      6  C   UNL     1      -0.236  10.476  18.308  0.00  0.00    +0.000 A 
ATOM      7  C   UNL     1       0.358   9.238  18.401  0.00  0.00    +0.000 A 
ATOM      8  C   UNL     1       1.737   9.193  18.360  0.00  0.00    +0.000 A 
ATOM      9  N   UNL     1       2.486  10.316  18.249  0.00  0.00    +0.000 NA
ATOM     10  H   UNL     1       3.571  12.442  17.846  0.00  0.00    +0.000 HD
ENDROOT
BRANCH   6  11
ATOM     11  C   UNL     1      -1.701  10.664  18.268  0.00  0.00    +0.000 A 
ATOM     12  C   UNL     1      -2.308  11.711  18.988  0.00  0.00    +0.000 A 
ATOM     13  C   UNL     1      -3.691  11.933  18.931  0.00  0.00    +0.000 A 
ATOM     14  C   UNL     1      -4.487  11.105  18.149  0.00  0.00    +0.000 A 
ATOM     15 CL   UNL     1      -6.182  11.385  18.047  0.00  0.00    +0.000 Cl
ATOM     16  C   UNL     1      -3.920  10.051  17.441  0.00  0.00    +0.000 A 
ATOM     17  C   UNL     1      -2.536   9.832  17.509  0.00  0.00    +0.000 A 
ENDBRANCH   6  11
BRANCH   8  18
ATOM     18  C   UNL     1       2.479   7.923  18.473  0.00  0.00    +0.000 A 
ATOM     19  C   UNL     1       3.460   7.562  17.527  0.00  0.00    +0.000 A 
ATOM     20  C   UNL     1       4.133   6.339  17.604  0.00  0.00    +0.000 A 
ATOM     21  C   UNL     1       3.842   5.456  18.636  0.00  0.00    +0.000 A 
ATOM     22 CL   UNL     1       4.667   3.951  18.730  0.00  0.00    +0.000 Cl
ATOM     23  C   UNL     1       2.888   5.787  19.594  0.00  0.00    +0.000 A 
ATOM     24  C   UNL     1       2.216   7.012  19.511  0.00  0.00    +0.000 A 
ENDBRANCH   8  18
BRANCH   2  25
ATOM     25  C   UNL     1       0.907  14.282  18.937  0.00  0.00    +0.000 C 
BRANCH  25  26
ATOM     26  N   UNL     1       1.030  14.354  20.398  0.00  0.00    +0.000 N 
ATOM     27  H   UNL     1       1.994  14.252  20.706  0.00  0.00    +0.000 HD
BRANCH  26  28
ATOM     28  C   UNL     1       0.141  13.597  21.169  0.00  0.00    +0.000 A 
ATOM     29  C   UNL     1      -1.084  14.173  21.535  0.00  0.00    +0.000 A 
ATOM     30  C   UNL     1      -2.022  13.465  22.289  0.00  0.00    +0.000 A 
ATOM     31  C   UNL     1      -1.767  12.149  22.660  0.00  0.00    +0.000 A 
ATOM     32  C   UNL     1      -0.584  11.538  22.254  0.00  0.00    +0.000 A 
ATOM     33  C   UNL     1       0.355  12.253  21.500  0.00  0.00    +0.000 A 
ENDBRANCH  26  28
ENDBRANCH  25  26
ENDBRANCH   2  25
TORSDOF 5
ENDMDL
MODEL 3
REMARK VINA RESULT:      -7.1      0.978      1.454
REMARK  Name = 
REMARK  5 active torsions:
REMARK  status: ('A' for Active; 'I' for Inactive)
REMARK    1  A    between atoms: C_2  and  C_3
REMARK    2  A    between atoms: C_3  and  N_4
REMARK    3  A    between atoms: N_4  and  C_5
REMARK    4  A    between atoms: C_14  and  C_15
REMARK    5  A    between atoms: C_23  and  C_24
REMARK                            x       y       z     vdW  Elec       q    Type
REMARK                         _______ _______ _______ _____ _____    ______ ____
ROOT
ATOM      1  O   UNL     1       1.506  16.043  20.607  0.00  0.00    +0.000 OA
ATOM      2  C   UNL     1       0.727  15.082  20.577  0.00  0.00    +0.000 C 
ATOM      3  N   UNL     1       1.185  13.896  20.094  0.00  0.00    +0.000 N 
ATOM      4  C   UNL     1       0.459  12.774  19.748  0.00  0.00    +0.000 A 
ATOM      5  N   UNL     1      -0.864  12.852  19.615  0.00  0.00    +0.000 NA
ATOM      6  C   UNL     1      -1.543  11.750  19.268  0.00  0.00    +0.000 A 
ATOM      7  C   UNL     1      -0.896  10.549  19.083  0.00  0.00    +0.000 A 
ATOM      8  C   UNL     1       0.477  10.542  19.221  0.00  0.00    +0.000 A 
ATOM      9  N   UNL     1       1.169  11.662  19.541  0.00  0.00    +0.000 NA
ATOM     10  H   UNL     1       2.173  13.831  19.919  0.00  0.00    +0.000 HD
ENDROOT
BRANCH   6  11
ATOM     11  C   UNL     1      -3.000  11.916  19.083  0.00  0.00    +0.000 A 
ATOM     12  C   UNL     1      -3.662  11.281  18.015  0.00  0.00    +0.000 A 
ATOM     13  C   UNL     1      -5.049  11.391  17.844  0.00  0.00    +0.000 A 
ATOM     14  C   UNL     1      -5.793  12.141  18.746  0.00  0.00    +0.000 A 
ATOM     15 CL   UNL     1      -7.501  12.259  18.565  0.00  0.00    +0.000 Cl
ATOM     16  C   UNL     1      -5.167  12.796  19.801  0.00  0.00    +0.000 A 
ATOM     17  C   UNL     1      -3.777  12.686  19.960  0.00  0.00    +0.000 A 
ENDBRANCH   6  11
BRANCH   8  18
ATOM     18  C   UNL     1       1.269   9.308  19.065  0.00  0.00    +0.000 A 
ATOM     19  C   UNL     1       1.377   8.370  20.111  0.00  0.00    +0.000 A 
ATOM     20  C   UNL     1       2.162   7.220  19.984  0.00  0.00    +0.000 A 
ATOM     21  C   UNL     1       2.851   6.984  18.800  0.00  0.00    +0.000 A 
ATOM     22 CL   UNL     1       3.819   5.572  18.643  0.00  0.00    +0.000 Cl
ATOM     23  C   UNL     1       2.756   7.884  17.743  0.00  0.00    +0.000 A 
ATOM     24  C   UNL     1       1.969   9.034  17.877  0.00  0.00    +0.000 A 
ENDBRANCH   8  18
BRANCH   2  25
ATOM     25  C   UNL     1      -0.707  15.225  21.115  0.00  0.00    +0.000 C 
BRANCH  25  26
ATOM     26  N   UNL     1      -0.850  14.566  22.418  0.00  0.00    +0.000 N 
ATOM     27  H   UNL     1      -0.153  13.837  22.556  0.00  0.00    +0.000 HD
BRANCH  26  28
ATOM     28  C   UNL     1      -2.130  14.159  22.811  0.00  0.00    +0.000 A 
ATOM     29  C   UNL     1      -2.292  12.864  23.321  0.00  0.00    +0.000 A 
ATOM     30  C   UNL     1      -3.539  12.402  23.747  0.00  0.00    +0.000 A 
ATOM     31  C   UNL     1      -4.644  13.247  23.707  0.00  0.00    +0.000 A 
ATOM     32  C   UNL     1      -4.492  14.557  23.263  0.00  0.00    +0.000 A 
ATOM     33  C   UNL     1      -3.239  15.014  22.834  0.00  0.00    +0.000 A 
ENDBRANCH  26  28
ENDBRANCH  25  26
ENDBRANCH   2  25
TORSDOF 5
ENDMDL
MODEL 4
REMARK VINA RESULT:      -7.1      1.319      1.714
REMARK  Name = 
REMARK  5 active torsions:
REMARK  status: ('A' for Active; 'I' for Inactive)
REMARK    1  A    between atoms: C_2  and  C_3
REMARK    2  A    between atoms: C_3  and  N_4
REMARK    3  A    between atoms: N_4  and  C_5
REMARK    4  A    between atoms: C_14  and  C_15
REMARK    5  A    between atoms: C_23  and  C_24
REMARK                            x       y       z     vdW  Elec       q    Type
REMARK                         _______ _______ _______ _____ _____    ______ ____
ROOT
ATOM      1  O   UNL     1       1.273  15.496  21.915  0.00  0.00    +0.000 OA
ATOM      2  C   UNL     1       0.508  14.579  21.589  0.00  0.00    +0.000 C 
ATOM      3  N   UNL     1       1.041  13.470  21.012  0.00  0.00    +0.000 N 
ATOM      4  C   UNL     1       0.386  12.443  20.362  0.00  0.00    +0.000 A 
ATOM      5  N   UNL     1      -0.889  12.587  20.006  0.00  0.00    +0.000 NA
ATOM      6  C   UNL     1      -1.498  11.578  19.368  0.00  0.00    +0.000 A 
ATOM      7  C   UNL     1      -0.834  10.400  19.111  0.00  0.00    +0.000 A 
ATOM      8  C   UNL     1       0.490  10.323  19.493  0.00  0.00    +0.000 A 
ATOM      9  N   UNL     1       1.116  11.353  20.110  0.00  0.00    +0.000 NA
ATOM     10  H   UNL     1       2.045  13.399  21.010  0.00  0.00    +0.000 HD
ENDROOT
BRANCH   6  11
ATOM     11  C   UNL     1      -2.894  11.822  18.950  0.00  0.00    +0.000 A 
ATOM     12  C   UNL     1      -3.338  11.432  17.672  0.00  0.00    +0.000 A 
ATOM     13  C   UNL     1      -4.668  11.616  17.271  0.00  0.00    +0.000 A 
ATOM     14  C   UNL     1      -5.575  12.195  18.148  0.00  0.00    +0.000 A 
ATOM     15 CL   UNL     1      -7.218  12.399  17.679  0.00  0.00    +0.000 Cl
ATOM     16  C   UNL     1      -5.165  12.608  19.412  0.00  0.00    +0.000 A 
ATOM     17  C   UNL     1      -3.830  12.426  19.803  0.00  0.00    +0.000 A 
ENDBRANCH   6  11
BRANCH   8  18
ATOM     18  C   UNL     1       1.291   9.102  19.286  0.00  0.00    +0.000 A 
ATOM     19  C   UNL     1       1.880   8.817  18.038  0.00  0.00    +0.000 A 
ATOM     20  C   UNL     1       2.602   7.639  17.823  0.00  0.00    +0.000 A 
ATOM     21  C   UNL     1       2.755   6.726  18.860  0.00  0.00    +0.000 A 
ATOM     22 CL   UNL     1       3.641   5.276  18.597  0.00  0.00    +0.000 Cl
ATOM     23  C   UNL     1       2.196   6.983  20.108  0.00  0.00    +0.000 A 
ATOM     24  C   UNL     1       1.473   8.163  20.316  0.00  0.00    +0.000 A 
ENDBRANCH   8  18
BRANCH   2  25
ATOM     25  C   UNL     1      -1.000  14.686  21.873  0.00  0.00    +0.000 C 
BRANCH  25  26
ATOM     26  N   UNL     1      -1.385  13.830  23.000  0.00  0.00    +0.000 N 
ATOM     27  H   UNL     1      -0.875  12.950  23.003  0.00  0.00    +0.000 HD
BRANCH  26  28
ATOM     28  C   UNL     1      -2.750  13.654  23.255  0.00  0.00    +0.000 A 
ATOM     29  C   UNL     1      -3.154  12.532  23.992  0.00  0.00    +0.000 A 
ATOM     30  C   UNL     1      -4.498  12.308  24.295  0.00  0.00    +0.000 A 
ATOM     31  C   UNL     1      -5.463  13.227  23.898  0.00  0.00    +0.000 A 
ATOM     32  C   UNL     1      -5.077  14.379  23.218  0.00  0.00    +0.000 A 
ATOM     33  C   UNL     1      -3.727  14.598  22.914  0.00  0.00    +0.000 A 
ENDBRANCH  26  28
ENDBRANCH  25  26
ENDBRANCH   2  25
TORSDOF 5
ENDMDL
MODEL 5
REMARK VINA RESULT:      -7.0      1.198      1.700
REMARK  Name = 
REMARK  5 active torsions:
REMARK  status: ('A' for Active; 'I' for Inactive)
REMARK    1  A    between atoms: C_2  and  C_3
REMARK    2  A    between atoms: C_3  and  N_4
REMARK    3  A    between atoms: N_4  and  C_5
REMARK    4  A    between atoms: C_14  and  C_15
REMARK    5  A    between atoms: C_23  and  C_24
REMARK                            x       y       z     vdW  Elec       q    Type
REMARK                         _______ _______ _______ _____ _____    ______ ____
ROOT
ATOM      1  O   UNL     1       3.165  14.833  17.971  0.00  0.00    +0.000 OA
ATOM      2  C   UNL     1       2.358  13.956  18.302  0.00  0.00    +0.000 C 
ATOM      3  N   UNL     1       2.706  12.655  18.115  0.00  0.00    +0.000 N 
ATOM      4  C   UNL     1       1.902  11.534  18.184  0.00  0.00    +0.000 A 
ATOM      5  N   UNL     1       0.577  11.665  18.194  0.00  0.00    +0.000 NA
ATOM      6  C   UNL     1      -0.179  10.560  18.251  0.00  0.00    +0.000 A 
ATOM      7  C   UNL     1       0.396   9.312  18.329  0.00  0.00    +0.000 A 
ATOM      8  C   UNL     1       1.775   9.248  18.297  0.00  0.00    +0.000 A 
ATOM      9  N   UNL     1       2.540  10.361  18.208  0.00  0.00    +0.000 NA
ATOM     10  H   UNL     1       3.659  12.477  17.847  0.00  0.00    +0.000 HD
ENDROOT
BRANCH   6  11
ATOM     11  C   UNL     1      -1.641  10.770  18.203  0.00  0.00    +0.000 A 
ATOM     12  C   UNL     1      -2.462   9.923  17.435  0.00  0.00    +0.000 A 
ATOM     13  C   UNL     1      -3.854  10.078  17.408  0.00  0.00    +0.000 A 
ATOM     14  C   UNL     1      -4.445  11.089  18.155  0.00  0.00    +0.000 A 
ATOM     15 CL   UNL     1      -6.156  11.272  18.156  0.00  0.00    +0.000 Cl
ATOM     16  C   UNL     1      -3.661  11.955  18.911  0.00  0.00    +0.000 A 
ATOM     17  C   UNL     1      -2.268  11.796  18.926  0.00  0.00    +0.000 A 
ENDBRANCH   6  11
BRANCH   8  18
ATOM     18  C   UNL     1       2.497   7.965  18.394  0.00  0.00    +0.000 A 
ATOM     19  C   UNL     1       2.275   7.080  19.469  0.00  0.00    +0.000 A 
ATOM     20  C   UNL     1       2.989   5.884  19.590  0.00  0.00    +0.000 A 
ATOM     21  C   UNL     1       3.935   5.547  18.629  0.00  0.00    +0.000 A 
ATOM     22 CL   UNL     1       4.816   4.078  18.778  0.00  0.00    +0.000 Cl
ATOM     23  C   UNL     1       4.169   6.392  17.548  0.00  0.00    +0.000 A 
ATOM     24  C   UNL     1       3.452   7.589  17.434  0.00  0.00    +0.000 A 
ENDBRANCH   8  18
BRANCH   2  25
ATOM     25  C   UNL     1       1.015  14.338  18.948  0.00  0.00    +0.000 C 
BRANCH  25  26
ATOM     26  N   UNL     1       1.190  14.681  20.364  0.00  0.00    +0.000 N 
ATOM     27  H   UNL     1       2.164  14.626  20.653  0.00  0.00    +0.000 HD
BRANCH  26  28
ATOM     28  C   UNL     1       0.325  14.092  21.294  0.00  0.00    +0.000 A 
ATOM     29  C   UNL     1       0.226  12.694  21.322  0.00  0.00    +0.000 A 
ATOM     30  C   UNL     1      -0.604  12.043  22.236  0.00  0.00    +0.000 A 
ATOM     31  C   UNL     1      -1.325  12.782  23.170  0.00  0.00    +0.000 A 
ATOM     32  C   UNL     1      -1.193  14.167  23.199  0.00  0.00    +0.000 A 
ATOM     33  C   UNL     1      -0.360  14.815  22.278  0.00  0.00    +0.000 A 
ENDBRANCH  26  28
ENDBRANCH  25  26
ENDBRANCH   2  25
TORSDOF 5
ENDMDL
MODEL 6
REMARK VINA RESULT:      -6.9      1.976      2.605
REMARK  Name = 
REMARK  5 active torsions:
REMARK  status: ('A' for Active; 'I' for Inactive)
REMARK    1  A    between atoms: C_2  and  C_3
REMARK    2  A    between atoms: C_3  and  N_4
REMARK    3  A    between atoms: N_4  and  C_5
REMARK    4  A    between atoms: C_14  and  C_15
REMARK    5  A    between atoms: C_23  and  C_24
REMARK                            x       y       z     vdW  Elec       q    Type
REMARK                         _______ _______ _______ _____ _____    ______ ____
ROOT
ATOM      1  O   UNL     1       2.954  14.861  17.208  0.00  0.00    +0.000 OA
ATOM      2  C   UNL     1       2.449  14.159  18.094  0.00  0.00    +0.000 C 
ATOM      3  N   UNL     1       2.471  12.809  17.936  0.00  0.00    +0.000 N 
ATOM      4  C   UNL     1       1.781  11.851  18.653  0.00  0.00    +0.000 A 
ATOM      5  N   UNL     1       0.776  12.211  19.449  0.00  0.00    +0.000 NA
ATOM      6  C   UNL     1       0.117  11.261  20.125  0.00  0.00    +0.000 A 
ATOM      7  C   UNL     1       0.486   9.938  20.028  0.00  0.00    +0.000 A 
ATOM      8  C   UNL     1       1.525   9.633  19.172  0.00  0.00    +0.000 A 
ATOM      9  N   UNL     1       2.172  10.588  18.464  0.00  0.00    +0.000 NA
ATOM     10  H   UNL     1       3.022  12.451  17.174  0.00  0.00    +0.000 HD
ENDROOT
BRANCH   6  11
ATOM     11  C   UNL     1      -1.022  11.720  20.948  0.00  0.00    +0.000 A 
ATOM     12  C   UNL     1      -2.132  12.346  20.348  0.00  0.00    +0.000 A 
ATOM     13  C   UNL     1      -3.240  12.752  21.104  0.00  0.00    +0.000 A 
ATOM     14  C   UNL     1      -3.252  12.534  22.476  0.00  0.00    +0.000 A 
ATOM     15 CL   UNL     1      -4.619  13.000  23.410  0.00  0.00    +0.000 Cl
ATOM     16  C   UNL     1      -2.164  11.934  23.101  0.00  0.00    +0.000 A 
ATOM     17  C   UNL     1      -1.055  11.538  22.338  0.00  0.00    +0.000 A 
ENDBRANCH   6  11
BRANCH   8  18
ATOM     18  C   UNL     1       2.015   8.252  19.006  0.00  0.00    +0.000 A 
ATOM     19  C   UNL     1       2.623   7.830  17.806  0.00  0.00    +0.000 A 
ATOM     20  C   UNL     1       3.049   6.511  17.627  0.00  0.00    +0.000 A 
ATOM     21  C   UNL     1       2.882   5.588  18.653  0.00  0.00    +0.000 A 
ATOM     22 CL   UNL     1       3.403   3.964  18.433  0.00  0.00    +0.000 Cl
ATOM     23  C   UNL     1       2.297   5.974  19.855  0.00  0.00    +0.000 A 
ATOM     24  C   UNL     1       1.871   7.296  20.027  0.00  0.00    +0.000 A 
ENDBRANCH   8  18
BRANCH   2  25
ATOM     25  C   UNL     1       1.854  14.807  19.355  0.00  0.00    +0.000 C 
BRANCH  25  26
ATOM     26  N   UNL     1       0.470  15.235  19.126  0.00  0.00    +0.000 N 
ATOM     27  H   UNL     1       0.410  15.990  18.446  0.00  0.00    +0.000 HD
BRANCH  26  28
ATOM     28  C   UNL     1      -0.342  15.460  20.243  0.00  0.00    +0.000 A 
ATOM     29  C   UNL     1       0.157  15.125  21.510  0.00  0.00    +0.000 A 
ATOM     30  C   UNL     1      -0.595  15.340  22.666  0.00  0.00    +0.000 A 
ATOM     31  C   UNL     1      -1.851  15.933  22.579  0.00  0.00    +0.000 A 
ATOM     32  C   UNL     1      -2.339  16.330  21.337  0.00  0.00    +0.000 A 
ATOM     33  C   UNL     1      -1.581  16.109  20.180  0.00  0.00    +0.000 A 
ENDBRANCH  26  28
ENDBRANCH  25  26
ENDBRANCH   2  25
TORSDOF 5
ENDMDL
MODEL 7
REMARK VINA RESULT:      -6.9      2.676      3.781
REMARK  Name = 
REMARK  5 active torsions:
REMARK  status: ('A' for Active; 'I' for Inactive)
REMARK    1  A    between atoms: C_2  and  C_3
REMARK    2  A    between atoms: C_3  and  N_4
REMARK    3  A    between atoms: N_4  and  C_5
REMARK    4  A    between atoms: C_14  and  C_15
REMARK    5  A    between atoms: C_23  and  C_24
REMARK                            x       y       z     vdW  Elec       q    Type
REMARK                         _______ _______ _______ _____ _____    ______ ____
ROOT
ATOM      1  O   UNL     1       1.282   9.532  24.046  0.00  0.00    +0.000 OA
ATOM      2  C   UNL     1       0.810   9.284  22.930  0.00  0.00    +0.000 C 
ATOM      3  N   UNL     1       1.644   8.807  21.969  0.00  0.00    +0.000 N 
ATOM      4  C   UNL     1       1.408   8.683  20.614  0.00  0.00    +0.000 A 
ATOM      5  N   UNL     1       0.362   9.294  20.062  0.00  0.00    +0.000 NA
ATOM      6  C   UNL     1       0.162   9.166  18.743  0.00  0.00    +0.000 A 
ATOM      7  C   UNL     1       1.000   8.392  17.972  0.00  0.00    +0.000 A 
ATOM      8  C   UNL     1       2.074   7.799  18.605  0.00  0.00    +0.000 A 
ATOM      9  N   UNL     1       2.296   7.953  19.933  0.00  0.00    +0.000 NA
ATOM     10  H   UNL     1       2.571   8.550  22.262  0.00  0.00    +0.000 HD
ENDROOT
BRANCH   6  11
ATOM     11  C   UNL     1      -0.983   9.914  18.183  0.00  0.00    +0.000 A 
ATOM     12  C   UNL     1      -1.466   9.623  16.893  0.00  0.00    +0.000 A 
ATOM     13  C   UNL     1      -2.576  10.291  16.359  0.00  0.00    +0.000 A 
ATOM     14  C   UNL     1      -3.220  11.263  17.114  0.00  0.00    +0.000 A 
ATOM     15 CL   UNL     1      -4.603  12.069  16.482  0.00  0.00    +0.000 Cl
ATOM     16  C   UNL     1      -2.756  11.587  18.385  0.00  0.00    +0.000 A 
ATOM     17  C   UNL     1      -1.640  10.918  18.908  0.00  0.00    +0.000 A 
ENDBRANCH   6  11
BRANCH   8  18
ATOM     18  C   UNL     1       3.024   6.933  17.881  0.00  0.00    +0.000 A 
ATOM     19  C   UNL     1       2.895   5.530  17.900  0.00  0.00    +0.000 A 
ATOM     20  C   UNL     1       3.817   4.703  17.252  0.00  0.00    +0.000 A 
ATOM     21  C   UNL     1       4.886   5.268  16.565  0.00  0.00    +0.000 A 
ATOM     22 CL   UNL     1       6.023   4.252  15.771  0.00  0.00    +0.000 Cl
ATOM     23  C   UNL     1       5.035   6.651  16.517  0.00  0.00    +0.000 A 
ATOM     24  C   UNL     1       4.109   7.473  17.169  0.00  0.00    +0.000 A 
ENDBRANCH   8  18
BRANCH   2  25
ATOM     25  C   UNL     1      -0.693   9.473  22.662  0.00  0.00    +0.000 C 
BRANCH  25  26
ATOM     26  N   UNL     1      -1.212  10.645  23.377  0.00  0.00    +0.000 N 
ATOM     27  H   UNL     1      -1.977  10.403  24.003  0.00  0.00    +0.000 HD
BRANCH  26  28
ATOM     28  C   UNL     1      -1.477  11.802  22.636  0.00  0.00    +0.000 A 
ATOM     29  C   UNL     1      -0.417  12.417  21.955  0.00  0.00    +0.000 A 
ATOM     30  C   UNL     1      -0.617  13.564  21.184  0.00  0.00    +0.000 A 
ATOM     31  C   UNL     1      -1.895  14.096  21.048  0.00  0.00    +0.000 A 
ATOM     32  C   UNL     1      -2.972  13.466  21.665  0.00  0.00    +0.000 A 
ATOM     33  C   UNL     1      -2.765  12.316  22.439  0.00  0.00    +0.000 A 
ENDBRANCH  26  28
ENDBRANCH  25  26
ENDBRANCH   2  25
TORSDOF 5
ENDMDL
MODEL 8
REMARK VINA RESULT:      -6.9      2.113      2.886
REMARK  Name = 
REMARK  5 active torsions:
REMARK  status: ('A' for Active; 'I' for Inactive)
REMARK    1  A    between atoms: C_2  and  C_3
REMARK    2  A    between atoms: C_3  and  N_4
REMARK    3  A    between atoms: N_4  and  C_5
REMARK    4  A    between atoms: C_14  and  C_15
REMARK    5  A    between atoms: C_23  and  C_24
REMARK                            x       y       z     vdW  Elec       q    Type
REMARK                         _______ _______ _______ _____ _____    ______ ____
ROOT
ATOM      1  O   UNL     1       3.112  14.898  17.253  0.00  0.00    +0.000 OA
ATOM      2  C   UNL     1       2.631  14.145  18.109  0.00  0.00    +0.000 C 
ATOM      3  N   UNL     1       2.662  12.806  17.880  0.00  0.00    +0.000 N 
ATOM      4  C   UNL     1       1.994  11.805  18.557  0.00  0.00    +0.000 A 
ATOM      5  N   UNL     1       1.001  12.112  19.389  0.00  0.00    +0.000 NA
ATOM      6  C   UNL     1       0.362  11.121  20.025  0.00  0.00    +0.000 A 
ATOM      7  C   UNL     1       0.741   9.809  19.851  0.00  0.00    +0.000 A 
ATOM      8  C   UNL     1       1.767   9.559  18.962  0.00  0.00    +0.000 A 
ATOM      9  N   UNL     1       2.393  10.558  18.294  0.00  0.00    +0.000 NA
ATOM     10  H   UNL     1       3.202  12.495  17.090  0.00  0.00    +0.000 HD
ENDROOT
BRANCH   6  11
ATOM     11  C   UNL     1      -0.765  11.524  20.891  0.00  0.00    +0.000 A 
ATOM     12  C   UNL     1      -0.764  11.205  22.263  0.00  0.00    +0.000 A 
ATOM     13  C   UNL     1      -1.803  11.614  23.110  0.00  0.00    +0.000 A 
ATOM     14  C   UNL     1      -2.861  12.350  22.593  0.00  0.00    +0.000 A 
ATOM     15 CL   UNL     1      -4.127  12.884  23.628  0.00  0.00    +0.000 Cl
ATOM     16  C   UNL     1      -2.901  12.666  21.239  0.00  0.00    +0.000 A 
ATOM     17  C   UNL     1      -1.860  12.247  20.396  0.00  0.00    +0.000 A 
ENDBRANCH   6  11
BRANCH   8  18
ATOM     18  C   UNL     1       2.267   8.194  18.714  0.00  0.00    +0.000 A 
ATOM     19  C   UNL     1       3.054   7.897  17.582  0.00  0.00    +0.000 A 
ATOM     20  C   UNL     1       3.492   6.596  17.319  0.00  0.00    +0.000 A 
ATOM     21  C   UNL     1       3.157   5.566  18.190  0.00  0.00    +0.000 A 
ATOM     22 CL   UNL     1       3.694   3.965  17.866  0.00  0.00    +0.000 Cl
ATOM     23  C   UNL     1       2.392   5.828  19.323  0.00  0.00    +0.000 A 
ATOM     24  C   UNL     1       1.955   7.132  19.581  0.00  0.00    +0.000 A 
ENDBRANCH   8  18
BRANCH   2  25
ATOM     25  C   UNL     1       2.054  14.720  19.414  0.00  0.00    +0.000 C 
BRANCH  25  26
ATOM     26  N   UNL     1       0.682  15.203  19.216  0.00  0.00    +0.000 N 
ATOM     27  H   UNL     1       0.639  15.967  18.546  0.00  0.00    +0.000 HD
BRANCH  26  28
ATOM     28  C   UNL     1      -0.099  15.445  20.352  0.00  0.00    +0.000 A 
ATOM     29  C   UNL     1      -1.383  15.978  20.178  0.00  0.00    +0.000 A 
ATOM     30  C   UNL     1      -2.220  16.227  21.268  0.00  0.00    +0.000 A 
ATOM     31  C   UNL     1      -1.798  15.910  22.555  0.00  0.00    +0.000 A 
ATOM     32  C   UNL     1      -0.550  15.322  22.744  0.00  0.00    +0.000 A 
ATOM     33  C   UNL     1       0.286  15.077  21.647  0.00  0.00    +0.000 A 
ENDBRANCH  26  28
ENDBRANCH  25  26
ENDBRANCH   2  25
TORSDOF 5
ENDMDL
MODEL 9
REMARK VINA RESULT:      -6.9      2.011      2.637
REMARK  Name = 
REMARK  5 active torsions:
REMARK  status: ('A' for Active; 'I' for Inactive)
REMARK    1  A    between atoms: C_2  and  C_3
REMARK    2  A    between atoms: C_3  and  N_4
REMARK    3  A    between atoms: N_4  and  C_5
REMARK    4  A    between atoms: C_14  and  C_15
REMARK    5  A    between atoms: C_23  and  C_24
REMARK                            x       y       z     vdW  Elec       q    Type
REMARK                         _______ _______ _______ _____ _____    ______ ____
ROOT
ATOM      1  O   UNL     1       2.331  16.059  19.023  0.00  0.00    +0.000 OA
ATOM      2  C   UNL     1       1.754  15.190  19.688  0.00  0.00    +0.000 C 
ATOM      3  N   UNL     1       1.850  13.897  19.280  0.00  0.00    +0.000 N 
ATOM      4  C   UNL     1       1.119  12.806  19.708  0.00  0.00    +0.000 A 
ATOM      5  N   UNL     1       0.012  12.987  20.426  0.00  0.00    +0.000 NA
ATOM      6  C   UNL     1      -0.684  11.912  20.820  0.00  0.00    +0.000 A 
ATOM      7  C   UNL     1      -0.252  10.640  20.518  0.00  0.00    +0.000 A 
ATOM      8  C   UNL     1       0.894  10.525  19.757  0.00  0.00    +0.000 A 
ATOM      9  N   UNL     1       1.582  11.611  19.332  0.00  0.00    +0.000 NA
ATOM     10  H   UNL     1       2.503  13.704  18.539  0.00  0.00    +0.000 HD
ENDROOT
BRANCH   6  11
ATOM     11  C   UNL     1      -1.931  12.182  21.565  0.00  0.00    +0.000 A 
ATOM     12  C   UNL     1      -2.017  11.900  22.942  0.00  0.00    +0.000 A 
ATOM     13  C   UNL     1      -3.175  12.187  23.677  0.00  0.00    +0.000 A 
ATOM     14  C   UNL     1      -4.267  12.763  23.039  0.00  0.00    +0.000 A 
ATOM     15 CL   UNL     1      -5.684  13.148  23.937  0.00  0.00    +0.000 Cl
ATOM     16  C   UNL     1      -4.220  13.037  21.676  0.00  0.00    +0.000 A 
ATOM     17  C   UNL     1      -3.060  12.740  20.947  0.00  0.00    +0.000 A 
ENDBRANCH   6  11
BRANCH   8  18
ATOM     18  C   UNL     1       1.457   9.211  19.393  0.00  0.00    +0.000 A 
ATOM     19  C   UNL     1       1.867   8.931  18.074  0.00  0.00    +0.000 A 
ATOM     20  C   UNL     1       2.360   7.673  17.714  0.00  0.00    +0.000 A 
ATOM     21  C   UNL     1       2.460   6.672  18.673  0.00  0.00    +0.000 A 
ATOM     22 CL   UNL     1       3.063   5.124  18.231  0.00  0.00    +0.000 Cl
ATOM     23  C   UNL     1       2.076   6.920  19.988  0.00  0.00    +0.000 A 
ATOM     24  C   UNL     1       1.582   8.181  20.341  0.00  0.00    +0.000 A 
ENDBRANCH   8  18
BRANCH   2  25
ATOM     25  C   UNL     1       0.986  15.570  20.966  0.00  0.00    +0.000 C 
BRANCH  25  26
ATOM     26  N   UNL     1      -0.404  15.925  20.659  0.00  0.00    +0.000 N 
ATOM     27  H   UNL     1      -0.467  16.755  20.075  0.00  0.00    +0.000 HD
BRANCH  26  28
ATOM     28  C   UNL     1      -1.324  15.947  21.714  0.00  0.00    +0.000 A 
ATOM     29  C   UNL     1      -0.900  15.519  22.980  0.00  0.00    +0.000 A 
ATOM     30  C   UNL     1      -1.763  15.532  24.077  0.00  0.00    +0.000 A 
ATOM     31  C   UNL     1      -3.061  16.013  23.936  0.00  0.00    +0.000 A 
ATOM     32  C   UNL     1      -3.483  16.500  22.702  0.00  0.00    +0.000 A 
ATOM     33  C   UNL     1      -2.613  16.482  21.603  0.00  0.00    +0.000 A 
ENDBRANCH  26  28
ENDBRANCH  25  26
ENDBRANCH   2  25
TORSDOF 5
ENDMDL
