MODEL 1
REMARK VINA RESULT:      -7.9      0.000      0.000
REMARK  Name = 
REMARK  10 active torsions:
REMARK  status: ('A' for Active; 'I' for Inactive)
REMARK    1  A    between atoms: C_1  and  O_2
REMARK    2  A    between atoms: O_2  and  C_3
REMARK    3  A    between atoms: C_7  and  C_8
REMARK    4  A    between atoms: C_8  and  N_9
REMARK    5  A    between atoms: N_9  and  C_10
REMARK    6  A    between atoms: C_10  and  C_11
REMARK    7  A    between atoms: C_11  and  C_12
REMARK    8  A    between atoms: C_14  and  C_15
REMARK    9  A    between atoms: C_15  and  N_16
REMARK   10  A    between atoms: N_19  and  C_20
REMARK                            x       y       z     vdW  Elec       q    Type
REMARK                         _______ _______ _______ _____ _____    ______ ____
ROOT
ATOM      1  C   UNL     1       2.505   6.630  19.610  0.00  0.00    +0.000 A 
ATOM      2  C   UNL     1       1.953   7.709  20.353  0.00  0.00    +0.000 A 
ATOM      3  C   UNL     1       1.647   8.666  19.413  0.00  0.00    +0.000 A 
ATOM      4  O   UNL     1       2.050   8.220  18.191  0.00  0.00    +0.000 OA
ATOM      5  N   UNL     1       2.589   6.947  18.315  0.00  0.00    +0.000 NA
ENDROOT
BRANCH   1   6
ATOM      6  C   UNL     1       2.848   5.258  20.109  0.00  0.00    +0.000 C 
BRANCH   6   7
ATOM      7  C   UNL     1       2.294   4.066  19.321  0.00  0.00    +0.000 C 
ATOM      8  C   UNL     1       0.846   3.644  19.656  0.00  0.00    +0.000 C 
ATOM      9  O   UNL     1       1.349   2.681  20.637  0.00  0.00    +0.000 OA
ATOM     10  C   UNL     1       2.653   2.713  19.987  0.00  0.00    +0.000 C 
BRANCH   7  11
ATOM     11  N   UNL     1       2.641   4.101  17.879  0.00  0.00    +0.000 NA
ATOM     12  H   UNL     1       1.820   4.043  17.274  0.00  0.00    +0.000 HD
BRANCH  11  13
ATOM     13  C   UNL     1       3.622   3.130  17.395  0.00  0.00    +0.000 C 
BRANCH  13  18
ATOM     14  C   UNL     1       6.765   5.286  17.207  0.00  0.00    +0.000 A 
ATOM     15  C   UNL     1       7.025   5.258  15.834  0.00  0.00    +0.000 A 
ATOM     16  C   UNL     1       6.200   4.539  14.968  0.00  0.00    +0.000 A 
ATOM     17  C   UNL     1       5.101   3.846  15.467  0.00  0.00    +0.000 A 
ATOM     18  C   UNL     1       4.832   3.852  16.843  0.00  0.00    +0.000 A 
ATOM     19  C   UNL     1       5.671   4.577  17.706  0.00  0.00    +0.000 A 
BRANCH  14  21
ATOM     20  C   UNL     1       7.602   7.449  17.721  0.00  0.00    +0.000 C 
ATOM     21  O   UNL     1       7.633   6.045  17.945  0.00  0.00    +0.000 OA
ENDBRANCH  14  21
ENDBRANCH  13  18
ENDBRANCH  11  13
ENDBRANCH   7  11
ENDBRANCH   6   7
ENDBRANCH   1   6
BRANCH   3  22
ATOM     22  C   UNL     1       0.943   9.989  19.461  0.00  0.00    +0.000 C 
BRANCH  22  23
ATOM     23  N   UNL     1      -0.450   9.863  19.909  0.00  0.00    +0.000 NA
ATOM     24  C   UNL     1      -0.562   9.604  21.362  0.00  0.00    +0.000 C 
ATOM     25  C   UNL     1      -0.379  10.838  22.272  0.00  0.00    +0.000 C 
ATOM     26  N   UNL     1      -1.364  11.863  21.894  0.00  0.00    +0.000 N 
ATOM     27  C   UNL     1      -1.289  12.278  20.489  0.00  0.00    +0.000 C 
ATOM     28  C   UNL     1      -1.293  11.034  19.551  0.00  0.00    +0.000 C 
BRANCH  26  29
ATOM     29  C   UNL     1      -1.933  12.656  22.876  0.00  0.00    +0.000 A 
ATOM     30  C   UNL     1      -1.328  13.823  23.375  0.00  0.00    +0.000 A 
ATOM     31  C   UNL     1      -1.957  14.627  24.341  0.00  0.00    +0.000 A 
ATOM     32  C   UNL     1      -3.216  14.281  24.824  0.00  0.00    +0.000 A 
ATOM     33  C   UNL     1      -3.844  13.138  24.344  0.00  0.00    +0.000 A 
ATOM     34  C   UNL     1      -3.206  12.346  23.384  0.00  0.00    +0.000 A 
ENDBRANCH  26  29
ENDBRANCH  22  23
ENDBRANCH   3  22
TORSDOF 9
ENDMDL
MODEL 2
REMARK VINA RESULT:      -7.7      1.416      4.038
REMARK  Name = 
REMARK  10 active torsions:
REMARK  status: ('A' for Active; 'I' for Inactive)
REMARK    1  A    between atoms: C_1  and  O_2
REMARK    2  A    between atoms: O_2  and  C_3
REMARK    3  A    between atoms: C_7  and  C_8
REMARK    4  A    between atoms: C_8  and  N_9
REMARK    5  A    between atoms: N_9  and  C_10
REMARK    6  A    between atoms: C_10  and  C_11
REMARK    7  A    between atoms: C_11  and  C_12
REMARK    8  A    between atoms: C_14  and  C_15
REMARK    9  A    between atoms: C_15  and  N_16
REMARK   10  A    between atoms: N_19  and  C_20
REMARK                            x       y       z     vdW  Elec       q    Type
REMARK                         _______ _______ _______ _____ _____    ______ ____
ROOT
ATOM      1  C   UNL     1       3.197   7.438  17.807  0.00  0.00    +0.000 A 
ATOM      2  C   UNL     1       2.447   7.332  19.011  0.00  0.00    +0.000 A 
ATOM      3  C   UNL     1       1.698   8.484  19.065  0.00  0.00    +0.000 A 
ATOM      4  O   UNL     1       2.024   9.266  17.997  0.00  0.00    +0.000 OA
ATOM      5  N   UNL     1       2.964   8.612  17.212  0.00  0.00    +0.000 NA
ENDROOT
BRANCH   1   6
ATOM      6  C   UNL     1       4.047   6.384  17.164  0.00  0.00    +0.000 C 
BRANCH   6   7
ATOM      7  C   UNL     1       5.452   6.170  17.737  0.00  0.00    +0.000 C 
ATOM      8  C   UNL     1       6.430   7.359  17.603  0.00  0.00    +0.000 C 
ATOM      9  O   UNL     1       6.929   6.812  16.341  0.00  0.00    +0.000 OA
ATOM     10  C   UNL     1       6.403   5.504  16.710  0.00  0.00    +0.000 C 
BRANCH   7  11
ATOM     11  N   UNL     1       5.453   5.476  19.048  0.00  0.00    +0.000 NA
ATOM     12  H   UNL     1       6.175   5.826  19.680  0.00  0.00    +0.000 HD
BRANCH  11  13
ATOM     13  C   UNL     1       5.537   4.015  19.041  0.00  0.00    +0.000 C 
BRANCH  13  18
ATOM     14  C   UNL     1       2.027   2.719  19.785  0.00  0.00    +0.000 A 
ATOM     15  C   UNL     1       1.642   2.254  18.524  0.00  0.00    +0.000 A 
ATOM     16  C   UNL     1       2.503   2.365  17.432  0.00  0.00    +0.000 A 
ATOM     17  C   UNL     1       3.762   2.937  17.591  0.00  0.00    +0.000 A 
ATOM     18  C   UNL     1       4.160   3.421  18.845  0.00  0.00    +0.000 A 
ATOM     19  C   UNL     1       3.283   3.306  19.939  0.00  0.00    +0.000 A 
BRANCH  14  21
ATOM     20  C   UNL     1       1.530   2.804  22.107  0.00  0.00    +0.000 C 
ATOM     21  O   UNL     1       1.103   2.531  20.777  0.00  0.00    +0.000 OA
ENDBRANCH  14  21
ENDBRANCH  13  18
ENDBRANCH  11  13
ENDBRANCH   7  11
ENDBRANCH   6   7
ENDBRANCH   1   6
BRANCH   3  22
ATOM     22  C   UNL     1       0.615   8.985  19.974  0.00  0.00    +0.000 C 
BRANCH  22  23
ATOM     23  N   UNL     1       1.120   9.934  20.973  0.00  0.00    +0.000 NA
ATOM     24  C   UNL     1       0.790  11.339  20.645  0.00  0.00    +0.000 C 
ATOM     25  C   UNL     1      -0.658  11.772  20.963  0.00  0.00    +0.000 C 
ATOM     26  N   UNL     1      -0.925  11.541  22.392  0.00  0.00    +0.000 N 
ATOM     27  C   UNL     1      -0.726  10.153  22.822  0.00  0.00    +0.000 C 
ATOM     28  C   UNL     1       0.667   9.631  22.356  0.00  0.00    +0.000 C 
BRANCH  26  29
ATOM     29  C   UNL     1      -1.728  12.430  23.086  0.00  0.00    +0.000 A 
ATOM     30  C   UNL     1      -3.027  12.118  23.525  0.00  0.00    +0.000 A 
ATOM     31  C   UNL     1      -3.796  13.031  24.267  0.00  0.00    +0.000 A 
ATOM     32  C   UNL     1      -3.272  14.279  24.595  0.00  0.00    +0.000 A 
ATOM     33  C   UNL     1      -1.988  14.612  24.185  0.00  0.00    +0.000 A 
ATOM     34  C   UNL     1      -1.234  13.696  23.444  0.00  0.00    +0.000 A 
ENDBRANCH  26  29
ENDBRANCH  22  23
ENDBRANCH   3  22
TORSDOF 9
ENDMDL
MODEL 3
REMARK VINA RESULT:      -7.7      2.557      4.847
REMARK  Name = 
REMARK  10 active torsions:
REMARK  status: ('A' for Active; 'I' for Inactive)
REMARK    1  A    between atoms: C_1  and  O_2
REMARK    2  A    between atoms: O_2  and  C_3
REMARK    3  A    between atoms: C_7  and  C_8
REMARK    4  A    between atoms: C_8  and  N_9
REMARK    5  A    between atoms: N_9  and  C_10
REMARK    6  A    between atoms: C_10  and  C_11
REMARK    7  A    between atoms: C_11  and  C_12
REMARK    8  A    between atoms: C_14  and  C_15
REMARK    9  A    between atoms: C_15  and  N_16
REMARK   10  A    between atoms: N_19  and  C_20
REMARK                            x       y       z     vdW  Elec       q    Type
REMARK                         _______ _______ _______ _____ _____    ______ ____
ROOT
ATOM      1  C   UNL     1       2.895   7.126  18.182  0.00  0.00    +0.000 A 
ATOM      2  C   UNL     1       2.219   8.346  17.902  0.00  0.00    +0.000 A 
ATOM      3  C   UNL     1       1.650   8.719  19.097  0.00  0.00    +0.000 A 
ATOM      4  O   UNL     1       1.910   7.754  20.023  0.00  0.00    +0.000 OA
ATOM      5  N   UNL     1       2.686   6.756  19.450  0.00  0.00    +0.000 NA
ENDROOT
BRANCH   1   6
ATOM      6  C   UNL     1       3.827   6.371  17.285  0.00  0.00    +0.000 C 
BRANCH   6   7
ATOM      7  C   UNL     1       5.268   6.178  17.772  0.00  0.00    +0.000 C 
ATOM      8  C   UNL     1       6.214   7.386  17.593  0.00  0.00    +0.000 C 
ATOM      9  O   UNL     1       6.649   6.859  16.298  0.00  0.00    +0.000 OA
ATOM     10  C   UNL     1       6.168   5.538  16.685  0.00  0.00    +0.000 C 
BRANCH   7  11
ATOM     11  N   UNL     1       5.358   5.473  19.074  0.00  0.00    +0.000 NA
ATOM     12  H   UNL     1       6.112   5.830  19.665  0.00  0.00    +0.000 HD
BRANCH  11  13
ATOM     13  C   UNL     1       5.464   4.014  19.049  0.00  0.00    +0.000 C 
BRANCH  13  18
ATOM     14  C   UNL     1       1.911   2.850  19.810  0.00  0.00    +0.000 A 
ATOM     15  C   UNL     1       1.580   2.207  18.614  0.00  0.00    +0.000 A 
ATOM     16  C   UNL     1       2.491   2.155  17.558  0.00  0.00    +0.000 A 
ATOM     17  C   UNL     1       3.746   2.741  17.691  0.00  0.00    +0.000 A 
ATOM     18  C   UNL     1       4.092   3.401  18.878  0.00  0.00    +0.000 A 
ATOM     19  C   UNL     1       3.165   3.450  19.935  0.00  0.00    +0.000 A 
BRANCH  14  21
ATOM     20  C   UNL     1       1.381   2.605  22.113  0.00  0.00    +0.000 C 
ATOM     21  O   UNL     1       0.942   2.811  20.775  0.00  0.00    +0.000 OA
ENDBRANCH  14  21
ENDBRANCH  13  18
ENDBRANCH  11  13
ENDBRANCH   7  11
ENDBRANCH   6   7
ENDBRANCH   1   6
BRANCH   3  22
ATOM     22  C   UNL     1       0.906   9.934  19.566  0.00  0.00    +0.000 C 
BRANCH  22  23
ATOM     23  N   UNL     1       0.354  10.714  18.450  0.00  0.00    +0.000 NA
ATOM     24  C   UNL     1      -0.746  10.011  17.752  0.00  0.00    +0.000 C 
ATOM     25  C   UNL     1      -2.117  10.052  18.462  0.00  0.00    +0.000 C 
ATOM     26  N   UNL     1      -2.506  11.455  18.674  0.00  0.00    +0.000 N 
ATOM     27  C   UNL     1      -1.534  12.237  19.444  0.00  0.00    +0.000 C 
ATOM     28  C   UNL     1      -0.103  12.071  18.849  0.00  0.00    +0.000 C 
BRANCH  26  29
ATOM     29  C   UNL     1      -3.839  11.814  18.569  0.00  0.00    +0.000 A 
ATOM     30  C   UNL     1      -4.605  12.265  19.659  0.00  0.00    +0.000 A 
ATOM     31  C   UNL     1      -5.945  12.664  19.506  0.00  0.00    +0.000 A 
ATOM     32  C   UNL     1      -6.544  12.628  18.250  0.00  0.00    +0.000 A 
ATOM     33  C   UNL     1      -5.810  12.196  17.152  0.00  0.00    +0.000 A 
ATOM     34  C   UNL     1      -4.479  11.800  17.318  0.00  0.00    +0.000 A 
ENDBRANCH  26  29
ENDBRANCH  22  23
ENDBRANCH   3  22
TORSDOF 9
ENDMDL
MODEL 4
REMARK VINA RESULT:      -7.6      0.951      1.140
REMARK  Name = 
REMARK  10 active torsions:
REMARK  status: ('A' for Active; 'I' for Inactive)
REMARK    1  A    between atoms: C_1  and  O_2
REMARK    2  A    between atoms: O_2  and  C_3
REMARK    3  A    between atoms: C_7  and  C_8
REMARK    4  A    between atoms: C_8  and  N_9
REMARK    5  A    between atoms: N_9  and  C_10
REMARK    6  A    between atoms: C_10  and  C_11
REMARK    7  A    between atoms: C_11  and  C_12
REMARK    8  A    between atoms: C_14  and  C_15
REMARK    9  A    between atoms: C_15  and  N_16
REMARK   10  A    between atoms: N_19  and  C_20
REMARK                            x       y       z     vdW  Elec       q    Type
REMARK                         _______ _______ _______ _____ _____    ______ ____
ROOT
ATOM      1  C   UNL     1       2.501   6.618  19.557  0.00  0.00    +0.000 A 
ATOM      2  C   UNL     1       1.987   7.829  20.095  0.00  0.00    +0.000 A 
ATOM      3  C   UNL     1       1.663   8.595  18.999  0.00  0.00    +0.000 A 
ATOM      4  O   UNL     1       2.020   7.915  17.873  0.00  0.00    +0.000 OA
ATOM      5  N   UNL     1       2.546   6.679  18.223  0.00  0.00    +0.000 NA
ENDROOT
BRANCH   1   6
ATOM      6  C   UNL     1       2.844   5.361  20.299  0.00  0.00    +0.000 C 
BRANCH   6   7
ATOM      7  C   UNL     1       2.287   4.044  19.744  0.00  0.00    +0.000 C 
ATOM      8  C   UNL     1       0.797   3.759  20.037  0.00  0.00    +0.000 C 
ATOM      9  O   UNL     1       1.172   3.020  21.243  0.00  0.00    +0.000 OA
ATOM     10  C   UNL     1       2.521   2.860  20.716  0.00  0.00    +0.000 C 
BRANCH   7  11
ATOM     11  N   UNL     1       2.744   3.748  18.364  0.00  0.00    +0.000 NA
ATOM     12  H   UNL     1       2.071   3.188  17.837  0.00  0.00    +0.000 HD
BRANCH  11  13
ATOM     13  C   UNL     1       4.060   3.130  18.205  0.00  0.00    +0.000 C 
BRANCH  13  18
ATOM     14  C   UNL     1       6.768   5.741  17.564  0.00  0.00    +0.000 A 
ATOM     15  C   UNL     1       6.665   5.897  16.180  0.00  0.00    +0.000 A 
ATOM     16  C   UNL     1       5.735   5.158  15.448  0.00  0.00    +0.000 A 
ATOM     17  C   UNL     1       4.893   4.259  16.096  0.00  0.00    +0.000 A 
ATOM     18  C   UNL     1       4.991   4.079  17.483  0.00  0.00    +0.000 A 
ATOM     19  C   UNL     1       5.934   4.827  18.210  0.00  0.00    +0.000 A 
BRANCH  14  21
ATOM     20  C   UNL     1       7.796   7.879  17.700  0.00  0.00    +0.000 C 
ATOM     21  O   UNL     1       7.702   6.539  18.169  0.00  0.00    +0.000 OA
ENDBRANCH  14  21
ENDBRANCH  13  18
ENDBRANCH  11  13
ENDBRANCH   7  11
ENDBRANCH   6   7
ENDBRANCH   1   6
BRANCH   3  22
ATOM     22  C   UNL     1       0.977   9.915  18.813  0.00  0.00    +0.000 C 
BRANCH  22  23
ATOM     23  N   UNL     1      -0.355   9.943  19.432  0.00  0.00    +0.000 NA
ATOM     24  C   UNL     1      -0.297  10.067  20.905  0.00  0.00    +0.000 C 
ATOM     25  C   UNL     1      -0.015  11.488  21.441  0.00  0.00    +0.000 C 
ATOM     26  N   UNL     1      -1.042  12.408  20.925  0.00  0.00    +0.000 N 
ATOM     27  C   UNL     1      -1.130  12.447  19.462  0.00  0.00    +0.000 C 
ATOM     28  C   UNL     1      -1.238  11.005  18.882  0.00  0.00    +0.000 C 
BRANCH  26  29
ATOM     29  C   UNL     1      -1.497  13.439  21.729  0.00  0.00    +0.000 A 
ATOM     30  C   UNL     1      -2.353  14.457  21.270  0.00  0.00    +0.000 A 
ATOM     31  C   UNL     1      -2.831  15.463  22.127  0.00  0.00    +0.000 A 
ATOM     32  C   UNL     1      -2.467  15.466  23.471  0.00  0.00    +0.000 A 
ATOM     33  C   UNL     1      -1.630  14.468  23.956  0.00  0.00    +0.000 A 
ATOM     34  C   UNL     1      -1.159  13.474  23.093  0.00  0.00    +0.000 A 
ENDBRANCH  26  29
ENDBRANCH  22  23
ENDBRANCH   3  22
TORSDOF 9
ENDMDL
MODEL 5
REMARK VINA RESULT:      -7.5      2.099      2.963
REMARK  Name = 
REMARK  10 active torsions:
REMARK  status: ('A' for Active; 'I' for Inactive)
REMARK    1  A    between atoms: C_1  and  O_2
REMARK    2  A    between atoms: O_2  and  C_3
REMARK    3  A    between atoms: C_7  and  C_8
REMARK    4  A    between atoms: C_8  and  N_9
REMARK    5  A    between atoms: N_9  and  C_10
REMARK    6  A    between atoms: C_10  and  C_11
REMARK    7  A    between atoms: C_11  and  C_12
REMARK    8  A    between atoms: C_14  and  C_15
REMARK    9  A    between atoms: C_15  and  N_16
REMARK   10  A    between atoms: N_19  and  C_20
REMARK                            x       y       z     vdW  Elec       q    Type
REMARK                         _______ _______ _______ _____ _____    ______ ____
ROOT
ATOM      1  C   UNL     1       2.265   6.501  19.593  0.00  0.00    +0.000 A 
ATOM      2  C   UNL     1       2.078   7.880  19.886  0.00  0.00    +0.000 A 
ATOM      3  C   UNL     1       1.964   8.491  18.659  0.00  0.00    +0.000 A 
ATOM      4  O   UNL     1       2.138   7.552  17.687  0.00  0.00    +0.000 OA
ATOM      5  N   UNL     1       2.329   6.307  18.272  0.00  0.00    +0.000 NA
ENDROOT
BRANCH   1   6
ATOM      6  C   UNL     1       2.272   5.355  20.558  0.00  0.00    +0.000 C 
BRANCH   6   7
ATOM      7  C   UNL     1       2.376   3.942  19.971  0.00  0.00    +0.000 C 
ATOM      8  C   UNL     1       1.040   3.205  19.731  0.00  0.00    +0.000 C 
ATOM      9  O   UNL     1       1.135   2.592  21.056  0.00  0.00    +0.000 OA
ATOM     10  C   UNL     1       2.567   2.868  21.071  0.00  0.00    +0.000 C 
BRANCH   7  11
ATOM     11  N   UNL     1       3.381   3.831  18.885  0.00  0.00    +0.000 NA
ATOM     12  H   UNL     1       3.147   3.107  18.203  0.00  0.00    +0.000 HD
BRANCH  11  13
ATOM     13  C   UNL     1       4.779   3.643  19.273  0.00  0.00    +0.000 C 
BRANCH  13  18
ATOM     14  C   UNL     1       6.403   5.569  16.408  0.00  0.00    +0.000 A 
ATOM     15  C   UNL     1       7.327   6.354  17.104  0.00  0.00    +0.000 A 
ATOM     16  C   UNL     1       7.422   6.274  18.494  0.00  0.00    +0.000 A 
ATOM     17  C   UNL     1       6.599   5.403  19.201  0.00  0.00    +0.000 A 
ATOM     18  C   UNL     1       5.658   4.618  18.521  0.00  0.00    +0.000 A 
ATOM     19  C   UNL     1       5.568   4.708  17.120  0.00  0.00    +0.000 A 
BRANCH  14  21
ATOM     20  C   UNL     1       6.630   4.545  14.276  0.00  0.00    +0.000 C 
ATOM     21  O   UNL     1       6.423   5.722  15.048  0.00  0.00    +0.000 OA
ENDBRANCH  14  21
ENDBRANCH  13  18
ENDBRANCH  11  13
ENDBRANCH   7  11
ENDBRANCH   6   7
ENDBRANCH   1   6
BRANCH   3  22
ATOM     22  C   UNL     1       1.641   9.886  18.213  0.00  0.00    +0.000 C 
BRANCH  22  23
ATOM     23  N   UNL     1       1.183  10.734  19.321  0.00  0.00    +0.000 NA
ATOM     24  C   UNL     1       0.670  12.044  18.862  0.00  0.00    +0.000 C 
ATOM     25  C   UNL     1      -0.761  12.030  18.280  0.00  0.00    +0.000 C 
ATOM     26  N   UNL     1      -1.683  11.482  19.287  0.00  0.00    +0.000 N 
ATOM     27  C   UNL     1      -1.332  10.136  19.752  0.00  0.00    +0.000 C 
ATOM     28  C   UNL     1       0.165  10.079  20.182  0.00  0.00    +0.000 C 
BRANCH  26  29
ATOM     29  C   UNL     1      -2.965  11.996  19.387  0.00  0.00    +0.000 A 
ATOM     30  C   UNL     1      -3.352  12.923  20.370  0.00  0.00    +0.000 A 
ATOM     31  C   UNL     1      -4.651  13.458  20.413  0.00  0.00    +0.000 A 
ATOM     32  C   UNL     1      -5.593  13.078  19.460  0.00  0.00    +0.000 A 
ATOM     33  C   UNL     1      -5.238  12.170  18.470  0.00  0.00    +0.000 A 
ATOM     34  C   UNL     1      -3.942  11.644  18.440  0.00  0.00    +0.000 A 
ENDBRANCH  26  29
ENDBRANCH  22  23
ENDBRANCH   3  22
TORSDOF 9
ENDMDL
MODEL 6
REMARK VINA RESULT:      -7.5      2.503      3.291
REMARK  Name = 
REMARK  10 active torsions:
REMARK  status: ('A' for Active; 'I' for Inactive)
REMARK    1  A    between atoms: C_1  and  O_2
REMARK    2  A    between atoms: O_2  and  C_3
REMARK    3  A    between atoms: C_7  and  C_8
REMARK    4  A    between atoms: C_8  and  N_9
REMARK    5  A    between atoms: N_9  and  C_10
REMARK    6  A    between atoms: C_10  and  C_11
REMARK    7  A    between atoms: C_11  and  C_12
REMARK    8  A    between atoms: C_14  and  C_15
REMARK    9  A    between atoms: C_15  and  N_16
REMARK   10  A    between atoms: N_19  and  C_20
REMARK                            x       y       z     vdW  Elec       q    Type
REMARK                         _______ _______ _______ _____ _____    ______ ____
ROOT
ATOM      1  C   UNL     1       2.439   6.676  19.878  0.00  0.00    +0.000 A 
ATOM      2  C   UNL     1       1.788   7.660  20.672  0.00  0.00    +0.000 A 
ATOM      3  C   UNL     1       1.479   8.675  19.796  0.00  0.00    +0.000 A 
ATOM      4  O   UNL     1       1.970   8.353  18.567  0.00  0.00    +0.000 OA
ATOM      5  N   UNL     1       2.574   7.104  18.619  0.00  0.00    +0.000 NA
ENDROOT
BRANCH   1   6
ATOM      6  C   UNL     1       2.833   5.288  20.285  0.00  0.00    +0.000 C 
BRANCH   6   7
ATOM      7  C   UNL     1       2.302   4.130  19.433  0.00  0.00    +0.000 C 
ATOM      8  C   UNL     1       0.883   3.626  19.780  0.00  0.00    +0.000 C 
ATOM      9  O   UNL     1       1.455   2.621  20.677  0.00  0.00    +0.000 OA
ATOM     10  C   UNL     1       2.735   2.751  19.992  0.00  0.00    +0.000 C 
BRANCH   7  11
ATOM     11  N   UNL     1       2.601   4.278  17.987  0.00  0.00    +0.000 NA
ATOM     12  H   UNL     1       1.757   4.313  17.411  0.00  0.00    +0.000 HD
BRANCH  11  13
ATOM     13  C   UNL     1       3.515   3.309  17.382  0.00  0.00    +0.000 C 
BRANCH  13  18
ATOM     14  C   UNL     1       6.719   5.375  17.218  0.00  0.00    +0.000 A 
ATOM     15  C   UNL     1       6.942   5.411  15.840  0.00  0.00    +0.000 A 
ATOM     16  C   UNL     1       6.072   4.764  14.961  0.00  0.00    +0.000 A 
ATOM     17  C   UNL     1       4.964   4.080  15.454  0.00  0.00    +0.000 A 
ATOM     18  C   UNL     1       4.732   4.022  16.835  0.00  0.00    +0.000 A 
ATOM     19  C   UNL     1       5.617   4.674  17.711  0.00  0.00    +0.000 A 
BRANCH  14  21
ATOM     20  C   UNL     1       7.770   5.669  19.329  0.00  0.00    +0.000 C 
ATOM     21  O   UNL     1       7.630   6.066  17.970  0.00  0.00    +0.000 OA
ENDBRANCH  14  21
ENDBRANCH  13  18
ENDBRANCH  11  13
ENDBRANCH   7  11
ENDBRANCH   6   7
ENDBRANCH   1   6
BRANCH   3  22
ATOM     22  C   UNL     1       0.699   9.950  19.909  0.00  0.00    +0.000 C 
BRANCH  22  23
ATOM     23  N   UNL     1       0.693  10.713  18.654  0.00  0.00    +0.000 NA
ATOM     24  C   UNL     1      -0.488  11.596  18.528  0.00  0.00    +0.000 C 
ATOM     25  C   UNL     1      -0.421  12.914  19.331  0.00  0.00    +0.000 C 
ATOM     26  N   UNL     1       0.780  13.662  18.926  0.00  0.00    +0.000 N 
ATOM     27  C   UNL     1       2.034  12.922  19.097  0.00  0.00    +0.000 C 
ATOM     28  C   UNL     1       1.930  11.511  18.444  0.00  0.00    +0.000 C 
BRANCH  26  29
ATOM     29  C   UNL     1       0.731  15.044  18.864  0.00  0.00    +0.000 A 
ATOM     30  C   UNL     1       1.875  15.854  18.749  0.00  0.00    +0.000 A 
ATOM     31  C   UNL     1       1.784  17.253  18.644  0.00  0.00    +0.000 A 
ATOM     32  C   UNL     1       0.537  17.872  18.641  0.00  0.00    +0.000 A 
ATOM     33  C   UNL     1      -0.613  17.098  18.743  0.00  0.00    +0.000 A 
ATOM     34  C   UNL     1      -0.508  15.708  18.850  0.00  0.00    +0.000 A 
ENDBRANCH  26  29
ENDBRANCH  22  23
ENDBRANCH   3  22
TORSDOF 9
ENDMDL
MODEL 7
REMARK VINA RESULT:      -7.5      2.154      2.828
REMARK  Name = 
REMARK  10 active torsions:
REMARK  status: ('A' for Active; 'I' for Inactive)
REMARK    1  A    between atoms: C_1  and  O_2
REMARK    2  A    between atoms: O_2  and  C_3
REMARK    3  A    between atoms: C_7  and  C_8
REMARK    4  A    between atoms: C_8  and  N_9
REMARK    5  A    between atoms: N_9  and  C_10
REMARK    6  A    between atoms: C_10  and  C_11
REMARK    7  A    between atoms: C_11  and  C_12
REMARK    8  A    between atoms: C_14  and  C_15
REMARK    9  A    between atoms: C_15  and  N_16
REMARK   10  A    between atoms: N_19  and  C_20
REMARK                            x       y       z     vdW  Elec       q    Type
REMARK                         _______ _______ _______ _____ _____    ______ ____
ROOT
ATOM      1  C   UNL     1       2.532   6.848  19.579  0.00  0.00    +0.000 A 
ATOM      2  C   UNL     1       1.697   7.804  20.221  0.00  0.00    +0.000 A 
ATOM      3  C   UNL     1       1.459   8.764  19.265  0.00  0.00    +0.000 A 
ATOM      4  O   UNL     1       2.158   8.442  18.141  0.00  0.00    +0.000 OA
ATOM      5  N   UNL     1       2.831   7.244  18.339  0.00  0.00    +0.000 NA
ENDROOT
BRANCH   1   6
ATOM      6  C   UNL     1       2.953   5.507  20.101  0.00  0.00    +0.000 C 
BRANCH   6   7
ATOM      7  C   UNL     1       2.358   4.270  19.419  0.00  0.00    +0.000 C 
ATOM      8  C   UNL     1       0.962   3.828  19.912  0.00  0.00    +0.000 C 
ATOM      9  O   UNL     1       1.585   2.919  20.875  0.00  0.00    +0.000 OA
ATOM     10  C   UNL     1       2.818   2.955  20.098  0.00  0.00    +0.000 C 
BRANCH   7  11
ATOM     11  N   UNL     1       2.560   4.254  17.949  0.00  0.00    +0.000 NA
ATOM     12  H   UNL     1       1.685   4.147  17.431  0.00  0.00    +0.000 HD
BRANCH  11  13
ATOM     13  C   UNL     1       3.519   3.292  17.408  0.00  0.00    +0.000 C 
BRANCH  13  18
ATOM     14  C   UNL     1       6.607   5.530  17.292  0.00  0.00    +0.000 A 
ATOM     15  C   UNL     1       6.958   5.430  15.944  0.00  0.00    +0.000 A 
ATOM     16  C   UNL     1       6.211   4.637  15.071  0.00  0.00    +0.000 A 
ATOM     17  C   UNL     1       5.101   3.940  15.539  0.00  0.00    +0.000 A 
ATOM     18  C   UNL     1       4.742   4.017  16.892  0.00  0.00    +0.000 A 
ATOM     19  C   UNL     1       5.503   4.817  17.763  0.00  0.00    +0.000 A 
BRANCH  14  21
ATOM     20  C   UNL     1       7.938   5.815  19.240  0.00  0.00    +0.000 C 
ATOM     21  O   UNL     1       7.404   6.356  18.038  0.00  0.00    +0.000 OA
ENDBRANCH  14  21
ENDBRANCH  13  18
ENDBRANCH  11  13
ENDBRANCH   7  11
ENDBRANCH   6   7
ENDBRANCH   1   6
BRANCH   3  22
ATOM     22  C   UNL     1       0.583   9.980  19.202  0.00  0.00    +0.000 C 
BRANCH  22  23
ATOM     23  N   UNL     1       1.130  11.102  19.976  0.00  0.00    +0.000 NA
ATOM     24  C   UNL     1       1.623  12.202  19.117  0.00  0.00    +0.000 C 
ATOM     25  C   UNL     1       0.534  13.131  18.538  0.00  0.00    +0.000 C 
ATOM     26  N   UNL     1      -0.247  13.704  19.646  0.00  0.00    +0.000 N 
ATOM     27  C   UNL     1      -0.872  12.705  20.519  0.00  0.00    +0.000 C 
ATOM     28  C   UNL     1       0.177  11.647  20.978  0.00  0.00    +0.000 C 
BRANCH  26  29
ATOM     29  C   UNL     1      -0.709  15.005  19.550  0.00  0.00    +0.000 A 
ATOM     30  C   UNL     1      -1.628  15.568  20.454  0.00  0.00    +0.000 A 
ATOM     31  C   UNL     1      -2.041  16.908  20.352  0.00  0.00    +0.000 A 
ATOM     32  C   UNL     1      -1.532  17.719  19.341  0.00  0.00    +0.000 A 
ATOM     33  C   UNL     1      -0.615  17.194  18.438  0.00  0.00    +0.000 A 
ATOM     34  C   UNL     1      -0.215  15.859  18.550  0.00  0.00    +0.000 A 
ENDBRANCH  26  29
ENDBRANCH  22  23
ENDBRANCH   3  22
TORSDOF 9
ENDMDL
MODEL 8
REMARK VINA RESULT:      -7.4      1.528      2.314
REMARK  Name = 
REMARK  10 active torsions:
REMARK  status: ('A' for Active; 'I' for Inactive)
REMARK    1  A    between atoms: C_1  and  O_2
REMARK    2  A    between atoms: O_2  and  C_3
REMARK    3  A    between atoms: C_7  and  C_8
REMARK    4  A    between atoms: C_8  and  N_9
REMARK    5  A    between atoms: N_9  and  C_10
REMARK    6  A    between atoms: C_10  and  C_11
REMARK    7  A    between atoms: C_11  and  C_12
REMARK    8  A    between atoms: C_14  and  C_15
REMARK    9  A    between atoms: C_15  and  N_16
REMARK   10  A    between atoms: N_19  and  C_20
REMARK                            x       y       z     vdW  Elec       q    Type
REMARK                         _______ _______ _______ _____ _____    ______ ____
ROOT
ATOM      1  C   UNL     1       2.301   7.207  18.539  0.00  0.00    +0.000 A 
ATOM      2  C   UNL     1       1.737   8.390  17.989  0.00  0.00    +0.000 A 
ATOM      3  C   UNL     1       1.342   9.134  19.077  0.00  0.00    +0.000 A 
ATOM      4  O   UNL     1       1.592   8.416  20.208  0.00  0.00    +0.000 OA
ATOM      5  N   UNL     1       2.189   7.209  19.871  0.00  0.00    +0.000 NA
ENDROOT
BRANCH   1   6
ATOM      6  C   UNL     1       3.045   6.127  17.813  0.00  0.00    +0.000 C 
BRANCH   6   7
ATOM      7  C   UNL     1       2.866   4.690  18.317  0.00  0.00    +0.000 C 
ATOM      8  C   UNL     1       2.675   3.608  17.231  0.00  0.00    +0.000 C 
ATOM      9  O   UNL     1       1.222   3.757  17.333  0.00  0.00    +0.000 OA
ATOM     10  C   UNL     1       1.386   4.370  18.646  0.00  0.00    +0.000 C 
BRANCH   7  11
ATOM     11  N   UNL     1       3.786   4.338  19.426  0.00  0.00    +0.000 NA
ATOM     12  H   UNL     1       4.007   5.137  20.025  0.00  0.00    +0.000 HD
BRANCH  11  13
ATOM     13  C   UNL     1       5.046   3.680  19.079  0.00  0.00    +0.000 C 
BRANCH  13  18
ATOM     14  C   UNL     1       7.069   5.513  16.413  0.00  0.00    +0.000 A 
ATOM     15  C   UNL     1       7.762   6.441  17.196  0.00  0.00    +0.000 A 
ATOM     16  C   UNL     1       7.572   6.488  18.578  0.00  0.00    +0.000 A 
ATOM     17  C   UNL     1       6.693   5.601  19.192  0.00  0.00    +0.000 A 
ATOM     18  C   UNL     1       5.980   4.671  18.421  0.00  0.00    +0.000 A 
ATOM     19  C   UNL     1       6.176   4.635  17.029  0.00  0.00    +0.000 A 
BRANCH  14  21
ATOM     20  C   UNL     1       6.793   4.527  14.269  0.00  0.00    +0.000 C 
ATOM     21  O   UNL     1       7.360   5.553  15.076  0.00  0.00    +0.000 OA
ENDBRANCH  14  21
ENDBRANCH  13  18
ENDBRANCH  11  13
ENDBRANCH   7  11
ENDBRANCH   6   7
ENDBRANCH   1   6
BRANCH   3  22
ATOM     22  C   UNL     1       0.789  10.517  19.253  0.00  0.00    +0.000 C 
BRANCH  22  23
ATOM     23  N   UNL     1       1.266  11.155  20.486  0.00  0.00    +0.000 NA
ATOM     24  C   UNL     1       0.949  12.600  20.540  0.00  0.00    +0.000 C 
ATOM     25  C   UNL     1      -0.507  12.946  20.922  0.00  0.00    +0.000 C 
ATOM     26  N   UNL     1      -0.817  12.340  22.227  0.00  0.00    +0.000 N 
ATOM     27  C   UNL     1      -0.634  10.886  22.272  0.00  0.00    +0.000 C 
ATOM     28  C   UNL     1       0.771  10.495  21.722  0.00  0.00    +0.000 C 
BRANCH  26  29
ATOM     29  C   UNL     1      -1.639  13.017  23.113  0.00  0.00    +0.000 A 
ATOM     30  C   UNL     1      -1.263  14.208  23.759  0.00  0.00    +0.000 A 
ATOM     31  C   UNL     1      -2.141  14.892  24.618  0.00  0.00    +0.000 A 
ATOM     32  C   UNL     1      -3.424  14.398  24.842  0.00  0.00    +0.000 A 
ATOM     33  C   UNL     1      -3.827  13.228  24.210  0.00  0.00    +0.000 A 
ATOM     34  C   UNL     1      -2.943  12.556  23.360  0.00  0.00    +0.000 A 
ENDBRANCH  26  29
ENDBRANCH  22  23
ENDBRANCH   3  22
TORSDOF 9
ENDMDL
MODEL 9
REMARK VINA RESULT:      -7.4      1.619      4.244
REMARK  Name = 
REMARK  10 active torsions:
REMARK  status: ('A' for Active; 'I' for Inactive)
REMARK    1  A    between atoms: C_1  and  O_2
REMARK    2  A    between atoms: O_2  and  C_3
REMARK    3  A    between atoms: C_7  and  C_8
REMARK    4  A    between atoms: C_8  and  N_9
REMARK    5  A    between atoms: N_9  and  C_10
REMARK    6  A    between atoms: C_10  and  C_11
REMARK    7  A    between atoms: C_11  and  C_12
REMARK    8  A    between atoms: C_14  and  C_15
REMARK    9  A    between atoms: C_15  and  N_16
REMARK   10  A    between atoms: N_19  and  C_20
REMARK                            x       y       z     vdW  Elec       q    Type
REMARK                         _______ _______ _______ _____ _____    ______ ____
ROOT
ATOM      1  C   UNL     1       3.824   6.345  18.132  0.00  0.00    +0.000 A 
ATOM      2  C   UNL     1       2.591   7.040  18.262  0.00  0.00    +0.000 A 
ATOM      3  C   UNL     1       2.295   6.990  19.605  0.00  0.00    +0.000 A 
ATOM      4  O   UNL     1       3.255   6.257  20.234  0.00  0.00    +0.000 OA
ATOM      5  N   UNL     1       4.210   5.851  19.312  0.00  0.00    +0.000 NA
ENDROOT
BRANCH   1   6
ATOM      6  C   UNL     1       4.693   6.246  16.915  0.00  0.00    +0.000 C 
BRANCH   6   7
ATOM      7  C   UNL     1       5.992   5.442  17.043  0.00  0.00    +0.000 C 
ATOM      8  C   UNL     1       7.225   6.221  17.553  0.00  0.00    +0.000 C 
ATOM      9  O   UNL     1       7.617   6.513  16.173  0.00  0.00    +0.000 OA
ATOM     10  C   UNL     1       6.787   5.406  15.713  0.00  0.00    +0.000 C 
BRANCH   7  11
ATOM     11  N   UNL     1       5.794   4.092  17.625  0.00  0.00    +0.000 NA
ATOM     12  H   UNL     1       6.669   3.577  17.735  0.00  0.00    +0.000 HD
BRANCH  11  13
ATOM     13  C   UNL     1       4.833   3.206  16.967  0.00  0.00    +0.000 C 
BRANCH  13  18
ATOM     14  C   UNL     1       2.882   2.513  20.171  0.00  0.00    +0.000 A 
ATOM     15  C   UNL     1       1.610   2.248  19.656  0.00  0.00    +0.000 A 
ATOM     16  C   UNL     1       1.374   2.302  18.282  0.00  0.00    +0.000 A 
ATOM     17  C   UNL     1       2.411   2.615  17.407  0.00  0.00    +0.000 A 
ATOM     18  C   UNL     1       3.690   2.896  17.907  0.00  0.00    +0.000 A 
ATOM     19  C   UNL     1       3.916   2.842  19.294  0.00  0.00    +0.000 A 
BRANCH  14  21
ATOM     20  C   UNL     1       1.871   2.841  22.296  0.00  0.00    +0.000 C 
ATOM     21  O   UNL     1       2.989   2.405  21.531  0.00  0.00    +0.000 OA
ENDBRANCH  14  21
ENDBRANCH  13  18
ENDBRANCH  11  13
ENDBRANCH   7  11
ENDBRANCH   6   7
ENDBRANCH   1   6
BRANCH   3  22
ATOM     22  C   UNL     1       1.229   7.603  20.463  0.00  0.00    +0.000 C 
BRANCH  22  23
ATOM     23  N   UNL     1       1.579   8.960  20.902  0.00  0.00    +0.000 NA
ATOM     24  C   UNL     1       1.010  10.008  20.025  0.00  0.00    +0.000 C 
ATOM     25  C   UNL     1      -0.486  10.320  20.248  0.00  0.00    +0.000 C 
ATOM     26  N   UNL     1      -0.691  10.710  21.652  0.00  0.00    +0.000 N 
ATOM     27  C   UNL     1      -0.253   9.703  22.624  0.00  0.00    +0.000 C 
ATOM     28  C   UNL     1       1.202   9.239  22.312  0.00  0.00    +0.000 C 
BRANCH  26  29
ATOM     29  C   UNL     1      -1.624  11.686  21.958  0.00  0.00    +0.000 A 
ATOM     30  C   UNL     1      -2.084  12.634  21.027  0.00  0.00    +0.000 A 
ATOM     31  C   UNL     1      -3.066  13.583  21.361  0.00  0.00    +0.000 A 
ATOM     32  C   UNL     1      -3.617  13.595  22.640  0.00  0.00    +0.000 A 
ATOM     33  C   UNL     1      -3.191  12.664  23.579  0.00  0.00    +0.000 A 
ATOM     34  C   UNL     1      -2.211  11.727  23.234  0.00  0.00    +0.000 A 
ENDBRANCH  26  29
ENDBRANCH  22  23
ENDBRANCH   3  22
TORSDOF 9
ENDMDL
