MODEL 1
REMARK VINA RESULT:      -8.2      0.000      0.000
REMARK  Name = 
REMARK  6 active torsions:
REMARK  status: ('A' for Active; 'I' for Inactive)
REMARK    1  A    between atoms: C_1  and  C_2
REMARK    2  A    between atoms: C_2  and  O_3
REMARK    3  A    between atoms: O_3  and  C_4
REMARK    4  A    between atoms: C_4  and  C_6
REMARK    5  A    between atoms: C_10  and  C_11
REMARK    6  A    between atoms: C_16  and  C_17
REMARK                            x       y       z     vdW  Elec       q    Type
REMARK                         _______ _______ _______ _____ _____    ______ ____
ROOT
ATOM      1  C   UNL     1       3.465   3.628  18.436  0.00  0.00    +0.000 A 
ATOM      2  C   UNL     1       3.367   2.221  18.294  0.00  0.00    +0.000 A 
ATOM      3  C   UNL     1       2.187   1.521  18.542  0.00  0.00    +0.000 A 
ATOM      4  C   UNL     1       1.053   2.207  18.946  0.00  0.00    +0.000 A 
ATOM      5  C   UNL     1       1.112   3.590  19.118  0.00  0.00    +0.000 A 
ATOM      6  C   UNL     1       2.298   4.321  18.874  0.00  0.00    +0.000 A 
ENDROOT
BRANCH   6   7
ATOM      7  C   UNL     1       2.247   5.774  19.080  0.00  0.00    +0.000 A 
ATOM      8  C   UNL     1       1.966   6.361  20.302  0.00  0.00    +0.000 A 
ATOM      9  S   UNL     1       1.902   8.066  20.136  0.00  0.00    +0.000 S 
ATOM     10  C   UNL     1       2.224   7.902  18.460  0.00  0.00    +0.000 A 
ATOM     11  N   UNL     1       2.235   8.963  17.644  0.00  0.00    +0.000 N 
ATOM     12  N   UNL     1       2.443   6.678  18.048  0.00  0.00    +0.000 NA
ATOM     13  H   UNL     1       2.365   9.887  18.034  0.00  0.00    +0.000 HD
ATOM     14  H   UNL     1       2.628   8.819  16.721  0.00  0.00    +0.000 HD
ENDBRANCH   6   7
BRANCH   1  19
ATOM     15  C   UNL     1       6.472   4.759  16.360  0.00  0.00    +0.000 A 
ATOM     16  C   UNL     1       7.250   5.416  17.314  0.00  0.00    +0.000 A 
ATOM     17  C   UNL     1       6.799   5.496  18.627  0.00  0.00    +0.000 A 
ATOM     18  C   UNL     1       5.560   4.945  18.982  0.00  0.00    +0.000 A 
ATOM     19  C   UNL     1       4.755   4.266  18.045  0.00  0.00    +0.000 A 
ATOM     20  C   UNL     1       5.259   4.164  16.740  0.00  0.00    +0.000 A 
BRANCH  15  21
ATOM     21  C   UNL     1       6.922   4.757  14.941  0.00  0.00    +0.000 C 
ATOM     22  O   UNL     1       7.750   5.528  14.491  0.00  0.00    +0.000 OA
BRANCH  21  23
ATOM     23  O   UNL     1       6.245   3.809  14.246  0.00  0.00    +0.000 OA
BRANCH  23  25
ATOM     24  C   UNL     1       5.245   3.337  12.093  0.00  0.00    +0.000 C 
ATOM     25  C   UNL     1       6.504   3.726  12.840  0.00  0.00    +0.000 C 
ENDBRANCH  23  25
ENDBRANCH  21  23
ENDBRANCH  15  21
ENDBRANCH   1  19
TORSDOF 5
ENDMDL
MODEL 2
REMARK VINA RESULT:      -8.1      1.044      1.142
REMARK  Name = 
REMARK  6 active torsions:
REMARK  status: ('A' for Active; 'I' for Inactive)
REMARK    1  A    between atoms: C_1  and  C_2
REMARK    2  A    between atoms: C_2  and  O_3
REMARK    3  A    between atoms: O_3  and  C_4
REMARK    4  A    between atoms: C_4  and  C_6
REMARK    5  A    between atoms: C_10  and  C_11
REMARK    6  A    between atoms: C_16  and  C_17
REMARK                            x       y       z     vdW  Elec       q    Type
REMARK                         _______ _______ _______ _____ _____    ______ ____
ROOT
ATOM      1  C   UNL     1       3.581   3.600  18.461  0.00  0.00    +0.000 A 
ATOM      2  C   UNL     1       3.570   2.184  18.388  0.00  0.00    +0.000 A 
ATOM      3  C   UNL     1       2.438   1.426  18.686  0.00  0.00    +0.000 A 
ATOM      4  C   UNL     1       1.268   2.061  19.073  0.00  0.00    +0.000 A 
ATOM      5  C   UNL     1       1.243   3.450  19.178  0.00  0.00    +0.000 A 
ATOM      6  C   UNL     1       2.379   4.240  18.882  0.00  0.00    +0.000 A 
ENDROOT
BRANCH   6   7
ATOM      7  C   UNL     1       2.241   5.696  19.020  0.00  0.00    +0.000 A 
ATOM      8  C   UNL     1       2.454   6.584  17.978  0.00  0.00    +0.000 A 
ATOM      9  S   UNL     1       2.292   8.196  18.537  0.00  0.00    +0.000 S 
ATOM     10  C   UNL     1       1.979   7.605  20.115  0.00  0.00    +0.000 A 
ATOM     11  N   UNL     1       1.821   8.436  21.154  0.00  0.00    +0.000 N 
ATOM     12  N   UNL     1       1.919   6.301  20.225  0.00  0.00    +0.000 NA
ATOM     13  H   UNL     1       1.574   9.401  20.983  0.00  0.00    +0.000 HD
ATOM     14  H   UNL     1       1.442   8.031  22.002  0.00  0.00    +0.000 HD
ENDBRANCH   6   7
BRANCH   1  19
ATOM     15  C   UNL     1       6.449   4.872  16.271  0.00  0.00    +0.000 A 
ATOM     16  C   UNL     1       7.234   5.559  17.197  0.00  0.00    +0.000 A 
ATOM     17  C   UNL     1       6.835   5.614  18.527  0.00  0.00    +0.000 A 
ATOM     18  C   UNL     1       5.637   5.007  18.929  0.00  0.00    +0.000 A 
ATOM     19  C   UNL     1       4.825   4.296  18.022  0.00  0.00    +0.000 A 
ATOM     20  C   UNL     1       5.280   4.222  16.697  0.00  0.00    +0.000 A 
BRANCH  15  21
ATOM     21  C   UNL     1       6.840   4.895  14.836  0.00  0.00    +0.000 C 
ATOM     22  O   UNL     1       7.821   5.477  14.409  0.00  0.00    +0.000 OA
BRANCH  21  23
ATOM     23  O   UNL     1       5.926   4.215  14.100  0.00  0.00    +0.000 OA
BRANCH  23  25
ATOM     24  C   UNL     1       5.179   3.264  12.003  0.00  0.00    +0.000 C 
ATOM     25  C   UNL     1       6.366   3.690  12.841  0.00  0.00    +0.000 C 
ENDBRANCH  23  25
ENDBRANCH  21  23
ENDBRANCH  15  21
ENDBRANCH   1  19
TORSDOF 5
ENDMDL
MODEL 3
REMARK VINA RESULT:      -7.9      2.116      3.618
REMARK  Name = 
REMARK  6 active torsions:
REMARK  status: ('A' for Active; 'I' for Inactive)
REMARK    1  A    between atoms: C_1  and  C_2
REMARK    2  A    between atoms: C_2  and  O_3
REMARK    3  A    between atoms: O_3  and  C_4
REMARK    4  A    between atoms: C_4  and  C_6
REMARK    5  A    between atoms: C_10  and  C_11
REMARK    6  A    between atoms: C_16  and  C_17
REMARK                            x       y       z     vdW  Elec       q    Type
REMARK                         _______ _______ _______ _____ _____    ______ ____
ROOT
ATOM      1  C   UNL     1       3.919   6.557  17.755  0.00  0.00    +0.000 A 
ATOM      2  C   UNL     1       3.726   7.904  17.357  0.00  0.00    +0.000 A 
ATOM      3  C   UNL     1       2.635   8.663  17.780  0.00  0.00    +0.000 A 
ATOM      4  C   UNL     1       1.690   8.098  18.621  0.00  0.00    +0.000 A 
ATOM      5  C   UNL     1       1.831   6.769  19.019  0.00  0.00    +0.000 A 
ATOM      6  C   UNL     1       2.929   5.980  18.602  0.00  0.00    +0.000 A 
ENDROOT
BRANCH   6   7
ATOM      7  C   UNL     1       2.983   4.594  19.086  0.00  0.00    +0.000 A 
ATOM      8  C   UNL     1       2.876   4.249  20.422  0.00  0.00    +0.000 A 
ATOM      9  S   UNL     1       3.078   2.557  20.612  0.00  0.00    +0.000 S 
ATOM     10  C   UNL     1       3.318   2.409  18.921  0.00  0.00    +0.000 A 
ATOM     11  N   UNL     1       3.630   1.234  18.359  0.00  0.00    +0.000 N 
ATOM     12  N   UNL     1       3.185   3.517  18.235  0.00  0.00    +0.000 NA
ATOM     13  H   UNL     1       3.426   0.377  18.856  0.00  0.00    +0.000 HD
ATOM     14  H   UNL     1       3.556   1.182  17.350  0.00  0.00    +0.000 HD
ENDBRANCH   6   7
BRANCH   1  19
ATOM     15  C   UNL     1       6.571   4.914  15.540  0.00  0.00    +0.000 A 
ATOM     16  C   UNL     1       7.538   4.546  16.475  0.00  0.00    +0.000 A 
ATOM     17  C   UNL     1       7.335   4.833  17.820  0.00  0.00    +0.000 A 
ATOM     18  C   UNL     1       6.179   5.512  18.229  0.00  0.00    +0.000 A 
ATOM     19  C   UNL     1       5.177   5.888  17.312  0.00  0.00    +0.000 A 
ATOM     20  C   UNL     1       5.392   5.544  15.969  0.00  0.00    +0.000 A 
BRANCH  15  21
ATOM     21  C   UNL     1       6.840   4.681  14.095  0.00  0.00    +0.000 C 
ATOM     22  O   UNL     1       7.583   5.374  13.423  0.00  0.00    +0.000 OA
BRANCH  21  23
ATOM     23  O   UNL     1       6.108   3.627  13.656  0.00  0.00    +0.000 OA
BRANCH  23  25
ATOM     24  C   UNL     1       4.700   3.244  11.725  0.00  0.00    +0.000 C 
ATOM     25  C   UNL     1       6.116   3.373  12.246  0.00  0.00    +0.000 C 
ENDBRANCH  23  25
ENDBRANCH  21  23
ENDBRANCH  15  21
ENDBRANCH   1  19
TORSDOF 5
ENDMDL
MODEL 4
REMARK VINA RESULT:      -7.9      3.316      6.246
REMARK  Name = 
REMARK  6 active torsions:
REMARK  status: ('A' for Active; 'I' for Inactive)
REMARK    1  A    between atoms: C_1  and  C_2
REMARK    2  A    between atoms: C_2  and  O_3
REMARK    3  A    between atoms: O_3  and  C_4
REMARK    4  A    between atoms: C_4  and  C_6
REMARK    5  A    between atoms: C_10  and  C_11
REMARK    6  A    between atoms: C_16  and  C_17
REMARK                            x       y       z     vdW  Elec       q    Type
REMARK                         _______ _______ _______ _____ _____    ______ ____
ROOT
ATOM      1  C   UNL     1       5.202   4.801  15.767  0.00  0.00    +0.000 A 
ATOM      2  C   UNL     1       4.810   4.228  14.532  0.00  0.00    +0.000 A 
ATOM      3  C   UNL     1       5.714   3.973  13.501  0.00  0.00    +0.000 A 
ATOM      4  C   UNL     1       7.053   4.285  13.669  0.00  0.00    +0.000 A 
ATOM      5  C   UNL     1       7.478   4.871  14.861  0.00  0.00    +0.000 A 
ATOM      6  C   UNL     1       6.579   5.140  15.920  0.00  0.00    +0.000 A 
ENDROOT
BRANCH   6   7
ATOM      7  C   UNL     1       7.134   5.752  17.134  0.00  0.00    +0.000 A 
ATOM      8  C   UNL     1       7.484   7.088  17.222  0.00  0.00    +0.000 A 
ATOM      9  S   UNL     1       8.180   7.415  18.754  0.00  0.00    +0.000 S 
ATOM     10  C   UNL     1       7.992   5.764  19.178  0.00  0.00    +0.000 A 
ATOM     11  N   UNL     1       8.451   5.285  20.341  0.00  0.00    +0.000 N 
ATOM     12  N   UNL     1       7.386   5.021  18.285  0.00  0.00    +0.000 NA
ATOM     13  H   UNL     1       8.627   5.923  21.105  0.00  0.00    +0.000 HD
ATOM     14  H   UNL     1       8.128   4.362  20.607  0.00  0.00    +0.000 HD
ENDBRANCH   6   7
BRANCH   1  19
ATOM     15  C   UNL     1       2.430   3.933  18.257  0.00  0.00    +0.000 A 
ATOM     16  C   UNL     1       2.111   5.187  18.779  0.00  0.00    +0.000 A 
ATOM     17  C   UNL     1       2.795   6.311  18.330  0.00  0.00    +0.000 A 
ATOM     18  C   UNL     1       3.816   6.181  17.379  0.00  0.00    +0.000 A 
ATOM     19  C   UNL     1       4.157   4.932  16.822  0.00  0.00    +0.000 A 
ATOM     20  C   UNL     1       3.417   3.824  17.265  0.00  0.00    +0.000 A 
BRANCH  15  21
ATOM     21  C   UNL     1       1.754   2.729  18.809  0.00  0.00    +0.000 C 
ATOM     22  O   UNL     1       0.583   2.457  18.612  0.00  0.00    +0.000 OA
BRANCH  21  23
ATOM     23  O   UNL     1       2.623   2.028  19.580  0.00  0.00    +0.000 OA
BRANCH  23  25
ATOM     24  C   UNL     1       1.757   2.755  21.720  0.00  0.00    +0.000 C 
ATOM     25  C   UNL     1       2.981   2.604  20.842  0.00  0.00    +0.000 C 
ENDBRANCH  23  25
ENDBRANCH  21  23
ENDBRANCH  15  21
ENDBRANCH   1  19
TORSDOF 5
ENDMDL
MODEL 5
REMARK VINA RESULT:      -7.9      4.232      6.951
REMARK  Name = 
REMARK  6 active torsions:
REMARK  status: ('A' for Active; 'I' for Inactive)
REMARK    1  A    between atoms: C_1  and  C_2
REMARK    2  A    between atoms: C_2  and  O_3
REMARK    3  A    between atoms: O_3  and  C_4
REMARK    4  A    between atoms: C_4  and  C_6
REMARK    5  A    between atoms: C_10  and  C_11
REMARK    6  A    between atoms: C_16  and  C_17
REMARK                            x       y       z     vdW  Elec       q    Type
REMARK                         _______ _______ _______ _____ _____    ______ ____
ROOT
ATOM      1  C   UNL     1       2.419   4.814  19.105  0.00  0.00    +0.000 A 
ATOM      2  C   UNL     1       1.291   3.975  19.283  0.00  0.00    +0.000 A 
ATOM      3  C   UNL     1       1.384   2.583  19.289  0.00  0.00    +0.000 A 
ATOM      4  C   UNL     1       2.617   1.976  19.114  0.00  0.00    +0.000 A 
ATOM      5  C   UNL     1       3.748   2.765  18.914  0.00  0.00    +0.000 A 
ATOM      6  C   UNL     1       3.679   4.178  18.903  0.00  0.00    +0.000 A 
ENDROOT
BRANCH   6   7
ATOM      7  C   UNL     1       4.933   4.912  18.691  0.00  0.00    +0.000 A 
ATOM      8  C   UNL     1       5.252   5.551  17.505  0.00  0.00    +0.000 A 
ATOM      9  S   UNL     1       6.829   6.216  17.599  0.00  0.00    +0.000 S 
ATOM     10  C   UNL     1       6.985   5.589  19.187  0.00  0.00    +0.000 A 
ATOM     11  N   UNL     1       8.129   5.703  19.874  0.00  0.00    +0.000 N 
ATOM     12  N   UNL     1       5.921   4.990  19.661  0.00  0.00    +0.000 NA
ATOM     13  H   UNL     1       8.798   6.414  19.608  0.00  0.00    +0.000 HD
ATOM     14  H   UNL     1       8.083   5.494  20.864  0.00  0.00    +0.000 HD
ENDBRANCH   6   7
BRANCH   1  19
ATOM     15  C   UNL     1       1.558   8.257  20.533  0.00  0.00    +0.000 A 
ATOM     16  C   UNL     1       1.709   9.078  19.415  0.00  0.00    +0.000 A 
ATOM     17  C   UNL     1       2.093   8.518  18.202  0.00  0.00    +0.000 A 
ATOM     18  C   UNL     1       2.353   7.145  18.110  0.00  0.00    +0.000 A 
ATOM     19  C   UNL     1       2.200   6.285  19.217  0.00  0.00    +0.000 A 
ATOM     20  C   UNL     1       1.769   6.875  20.415  0.00  0.00    +0.000 A 
BRANCH  15  21
ATOM     21  C   UNL     1       1.234   8.879  21.846  0.00  0.00    +0.000 C 
ATOM     22  O   UNL     1       2.071   9.313  22.616  0.00  0.00    +0.000 OA
BRANCH  21  23
ATOM     23  O   UNL     1      -0.107   8.845  22.051  0.00  0.00    +0.000 OA
BRANCH  23  25
ATOM     24  C   UNL     1      -0.906  11.092  22.461  0.00  0.00    +0.000 C 
ATOM     25  C   UNL     1      -0.633   9.725  23.052  0.00  0.00    +0.000 C 
ENDBRANCH  23  25
ENDBRANCH  21  23
ENDBRANCH  15  21
ENDBRANCH   1  19
TORSDOF 5
ENDMDL
MODEL 6
REMARK VINA RESULT:      -7.8      2.128      3.664
REMARK  Name = 
REMARK  6 active torsions:
REMARK  status: ('A' for Active; 'I' for Inactive)
REMARK    1  A    between atoms: C_1  and  C_2
REMARK    2  A    between atoms: C_2  and  O_3
REMARK    3  A    between atoms: O_3  and  C_4
REMARK    4  A    between atoms: C_4  and  C_6
REMARK    5  A    between atoms: C_10  and  C_11
REMARK    6  A    between atoms: C_16  and  C_17
REMARK                            x       y       z     vdW  Elec       q    Type
REMARK                         _______ _______ _______ _____ _____    ______ ____
ROOT
ATOM      1  C   UNL     1       3.712   6.757  17.847  0.00  0.00    +0.000 A 
ATOM      2  C   UNL     1       3.620   8.110  17.437  0.00  0.00    +0.000 A 
ATOM      3  C   UNL     1       2.563   8.938  17.814  0.00  0.00    +0.000 A 
ATOM      4  C   UNL     1       1.552   8.439  18.618  0.00  0.00    +0.000 A 
ATOM      5  C   UNL     1       1.593   7.106  19.025  0.00  0.00    +0.000 A 
ATOM      6  C   UNL     1       2.654   6.247  18.655  0.00  0.00    +0.000 A 
ENDROOT
BRANCH   6   7
ATOM      7  C   UNL     1       2.602   4.863  19.145  0.00  0.00    +0.000 A 
ATOM      8  C   UNL     1       2.364   3.773  18.326  0.00  0.00    +0.000 A 
ATOM      9  S   UNL     1       2.283   2.339  19.262  0.00  0.00    +0.000 S 
ATOM     10  C   UNL     1       2.541   3.266  20.681  0.00  0.00    +0.000 A 
ATOM     11  N   UNL     1       2.514   2.705  21.897  0.00  0.00    +0.000 N 
ATOM     12  N   UNL     1       2.752   4.544  20.486  0.00  0.00    +0.000 NA
ATOM     13  H   UNL     1       2.653   1.708  21.985  0.00  0.00    +0.000 HD
ATOM     14  H   UNL     1       2.872   3.266  22.661  0.00  0.00    +0.000 HD
ENDBRANCH   6   7
BRANCH   1  19
ATOM     15  C   UNL     1       6.357   4.966  15.740  0.00  0.00    +0.000 A 
ATOM     16  C   UNL     1       7.245   4.515  16.718  0.00  0.00    +0.000 A 
ATOM     17  C   UNL     1       6.990   4.794  18.055  0.00  0.00    +0.000 A 
ATOM     18  C   UNL     1       5.865   5.546  18.417  0.00  0.00    +0.000 A 
ATOM     19  C   UNL     1       4.942   6.008  17.457  0.00  0.00    +0.000 A 
ATOM     20  C   UNL     1       5.204   5.672  16.120  0.00  0.00    +0.000 A 
BRANCH  15  21
ATOM     21  C   UNL     1       6.686   4.739  14.307  0.00  0.00    +0.000 C 
ATOM     22  O   UNL     1       7.629   5.258  13.737  0.00  0.00    +0.000 OA
BRANCH  21  23
ATOM     23  O   UNL     1       5.764   3.916  13.749  0.00  0.00    +0.000 OA
BRANCH  23  25
ATOM     24  C   UNL     1       4.782   3.212  11.652  0.00  0.00    +0.000 C 
ATOM     25  C   UNL     1       6.058   3.400  12.446  0.00  0.00    +0.000 C 
ENDBRANCH  23  25
ENDBRANCH  21  23
ENDBRANCH  15  21
ENDBRANCH   1  19
TORSDOF 5
ENDMDL
MODEL 7
REMARK VINA RESULT:      -7.8      4.256      6.861
REMARK  Name = 
REMARK  6 active torsions:
REMARK  status: ('A' for Active; 'I' for Inactive)
REMARK    1  A    between atoms: C_1  and  C_2
REMARK    2  A    between atoms: C_2  and  O_3
REMARK    3  A    between atoms: O_3  and  C_4
REMARK    4  A    between atoms: C_4  and  C_6
REMARK    5  A    between atoms: C_10  and  C_11
REMARK    6  A    between atoms: C_16  and  C_17
REMARK                            x       y       z     vdW  Elec       q    Type
REMARK                         _______ _______ _______ _____ _____    ______ ____
ROOT
ATOM      1  C   UNL     1       2.490   4.952  19.898  0.00  0.00    +0.000 A 
ATOM      2  C   UNL     1       1.389   4.405  20.604  0.00  0.00    +0.000 A 
ATOM      3  C   UNL     1       1.428   3.140  21.191  0.00  0.00    +0.000 A 
ATOM      4  C   UNL     1       2.576   2.372  21.093  0.00  0.00    +0.000 A 
ATOM      5  C   UNL     1       3.674   2.864  20.389  0.00  0.00    +0.000 A 
ATOM      6  C   UNL     1       3.658   4.143  19.784  0.00  0.00    +0.000 A 
ENDROOT
BRANCH   6   7
ATOM      7  C   UNL     1       4.871   4.566  19.072  0.00  0.00    +0.000 A 
ATOM      8  C   UNL     1       5.165   4.186  17.774  0.00  0.00    +0.000 A 
ATOM      9  S   UNL     1       6.702   4.793  17.316  0.00  0.00    +0.000 S 
ATOM     10  C   UNL     1       6.877   5.489  18.873  0.00  0.00    +0.000 A 
ATOM     11  N   UNL     1       8.005   6.111  19.238  0.00  0.00    +0.000 N 
ATOM     12  N   UNL     1       5.843   5.356  19.667  0.00  0.00    +0.000 NA
ATOM     13  H   UNL     1       8.636   6.453  18.524  0.00  0.00    +0.000 HD
ATOM     14  H   UNL     1       7.961   6.667  20.084  0.00  0.00    +0.000 HD
ENDBRANCH   6   7
BRANCH   1  19
ATOM     15  C   UNL     1       1.509   8.643  19.668  0.00  0.00    +0.000 A 
ATOM     16  C   UNL     1       2.030   9.001  18.425  0.00  0.00    +0.000 A 
ATOM     17  C   UNL     1       2.701   8.051  17.664  0.00  0.00    +0.000 A 
ATOM     18  C   UNL     1       2.877   6.751  18.155  0.00  0.00    +0.000 A 
ATOM     19  C   UNL     1       2.355   6.352  19.402  0.00  0.00    +0.000 A 
ATOM     20  C   UNL     1       1.645   7.322  20.125  0.00  0.00    +0.000 A 
BRANCH  15  21
ATOM     21  C   UNL     1       0.871   9.690  20.512  0.00  0.00    +0.000 C 
ATOM     22  O   UNL     1       1.079  10.883  20.385  0.00  0.00    +0.000 OA
BRANCH  21  23
ATOM     23  O   UNL     1       0.077   9.107  21.445  0.00  0.00    +0.000 OA
BRANCH  23  25
ATOM     24  C   UNL     1      -0.978  10.417  23.185  0.00  0.00    +0.000 C 
ATOM     25  C   UNL     1       0.214   9.569  22.794  0.00  0.00    +0.000 C 
ENDBRANCH  23  25
ENDBRANCH  21  23
ENDBRANCH  15  21
ENDBRANCH   1  19
TORSDOF 5
ENDMDL
MODEL 8
REMARK VINA RESULT:      -7.6      4.067      6.780
REMARK  Name = 
REMARK  6 active torsions:
REMARK  status: ('A' for Active; 'I' for Inactive)
REMARK    1  A    between atoms: C_1  and  C_2
REMARK    2  A    between atoms: C_2  and  O_3
REMARK    3  A    between atoms: O_3  and  C_4
REMARK    4  A    between atoms: C_4  and  C_6
REMARK    5  A    between atoms: C_10  and  C_11
REMARK    6  A    between atoms: C_16  and  C_17
REMARK                            x       y       z     vdW  Elec       q    Type
REMARK                         _______ _______ _______ _____ _____    ______ ____
ROOT
ATOM      1  C   UNL     1       3.454   6.510  17.897  0.00  0.00    +0.000 A 
ATOM      2  C   UNL     1       4.299   7.194  16.987  0.00  0.00    +0.000 A 
ATOM      3  C   UNL     1       5.135   6.527  16.092  0.00  0.00    +0.000 A 
ATOM      4  C   UNL     1       5.158   5.142  16.075  0.00  0.00    +0.000 A 
ATOM      5  C   UNL     1       4.358   4.431  16.968  0.00  0.00    +0.000 A 
ATOM      6  C   UNL     1       3.503   5.085  17.886  0.00  0.00    +0.000 A 
ENDROOT
BRANCH   6   7
ATOM      7  C   UNL     1       2.698   4.239  18.777  0.00  0.00    +0.000 A 
ATOM      8  C   UNL     1       1.415   3.816  18.473  0.00  0.00    +0.000 A 
ATOM      9  S   UNL     1       0.761   2.929  19.785  0.00  0.00    +0.000 S 
ATOM     10  C   UNL     1       2.208   3.190  20.667  0.00  0.00    +0.000 A 
ATOM     11  N   UNL     1       2.339   2.777  21.934  0.00  0.00    +0.000 N 
ATOM     12  N   UNL     1       3.153   3.825  20.020  0.00  0.00    +0.000 NA
ATOM     13  H   UNL     1       1.731   2.047  22.282  0.00  0.00    +0.000 HD
ATOM     14  H   UNL     1       3.277   2.783  22.316  0.00  0.00    +0.000 HD
ENDBRANCH   6   7
BRANCH   1  19
ATOM     15  C   UNL     1       1.030   9.261  18.989  0.00  0.00    +0.000 A 
ATOM     16  C   UNL     1       0.848   8.963  20.340  0.00  0.00    +0.000 A 
ATOM     17  C   UNL     1       1.505   7.872  20.896  0.00  0.00    +0.000 A 
ATOM     18  C   UNL     1       2.323   7.060  20.098  0.00  0.00    +0.000 A 
ATOM     19  C   UNL     1       2.537   7.338  18.732  0.00  0.00    +0.000 A 
ATOM     20  C   UNL     1       1.894   8.472  18.214  0.00  0.00    +0.000 A 
BRANCH  15  21
ATOM     21  C   UNL     1       0.252  10.377  18.386  0.00  0.00    +0.000 C 
ATOM     22  O   UNL     1       0.425  11.550  18.661  0.00  0.00    +0.000 OA
BRANCH  21  23
ATOM     23  O   UNL     1      -0.681   9.879  17.536  0.00  0.00    +0.000 OA
BRANCH  23  25
ATOM     24  C   UNL     1      -3.092   9.695  17.630  0.00  0.00    +0.000 C 
ATOM     25  C   UNL     1      -1.906  10.612  17.416  0.00  0.00    +0.000 C 
ENDBRANCH  23  25
ENDBRANCH  21  23
ENDBRANCH  15  21
ENDBRANCH   1  19
TORSDOF 5
ENDMDL
MODEL 9
REMARK VINA RESULT:      -7.6      3.599      5.944
REMARK  Name = 
REMARK  6 active torsions:
REMARK  status: ('A' for Active; 'I' for Inactive)
REMARK    1  A    between atoms: C_1  and  C_2
REMARK    2  A    between atoms: C_2  and  O_3
REMARK    3  A    between atoms: O_3  and  C_4
REMARK    4  A    between atoms: C_4  and  C_6
REMARK    5  A    between atoms: C_10  and  C_11
REMARK    6  A    between atoms: C_16  and  C_17
REMARK                            x       y       z     vdW  Elec       q    Type
REMARK                         _______ _______ _______ _____ _____    ______ ____
ROOT
ATOM      1  C   UNL     1       2.526   4.567  18.617  0.00  0.00    +0.000 A 
ATOM      2  C   UNL     1       1.458   3.643  18.496  0.00  0.00    +0.000 A 
ATOM      3  C   UNL     1       1.649   2.325  18.082  0.00  0.00    +0.000 A 
ATOM      4  C   UNL     1       2.924   1.880  17.772  0.00  0.00    +0.000 A 
ATOM      5  C   UNL     1       3.999   2.763  17.857  0.00  0.00    +0.000 A 
ATOM      6  C   UNL     1       3.830   4.104  18.273  0.00  0.00    +0.000 A 
ENDROOT
BRANCH   6   7
ATOM      7  C   UNL     1       5.032   4.946  18.335  0.00  0.00    +0.000 A 
ATOM      8  C   UNL     1       5.365   5.872  17.360  0.00  0.00    +0.000 A 
ATOM      9  S   UNL     1       6.876   6.594  17.726  0.00  0.00    +0.000 S 
ATOM     10  C   UNL     1       6.992   5.613  19.127  0.00  0.00    +0.000 A 
ATOM     11  N   UNL     1       8.082   5.631  19.905  0.00  0.00    +0.000 N 
ATOM     12  N   UNL     1       5.954   4.851  19.366  0.00  0.00    +0.000 NA
ATOM     13  H   UNL     1       8.705   6.427  19.866  0.00  0.00    +0.000 HD
ATOM     14  H   UNL     1       7.996   5.187  20.812  0.00  0.00    +0.000 HD
ENDBRANCH   6   7
BRANCH   1  19
ATOM     15  C   UNL     1       1.814   8.320  18.834  0.00  0.00    +0.000 A 
ATOM     16  C   UNL     1       1.661   8.504  20.208  0.00  0.00    +0.000 A 
ATOM     17  C   UNL     1       1.783   7.415  21.063  0.00  0.00    +0.000 A 
ATOM     18  C   UNL     1       2.031   6.136  20.545  0.00  0.00    +0.000 A 
ATOM     19  C   UNL     1       2.203   5.917  19.163  0.00  0.00    +0.000 A 
ATOM     20  C   UNL     1       2.117   7.044  18.332  0.00  0.00    +0.000 A 
BRANCH  15  21
ATOM     21  C   UNL     1       1.593   9.475  17.923  0.00  0.00    +0.000 C 
ATOM     22  O   UNL     1       2.459  10.274  17.617  0.00  0.00    +0.000 OA
BRANCH  21  23
ATOM     23  O   UNL     1       0.293   9.511  17.535  0.00  0.00    +0.000 OA
BRANCH  23  25
ATOM     24  C   UNL     1      -1.887  10.562  17.544  0.00  0.00    +0.000 C 
ATOM     25  C   UNL     1      -0.587  10.350  18.292  0.00  0.00    +0.000 C 
ENDBRANCH  23  25
ENDBRANCH  21  23
ENDBRANCH  15  21
ENDBRANCH   1  19
TORSDOF 5
ENDMDL
