MODEL 1
REMARK VINA RESULT:      -7.8      0.000      0.000
REMARK  Name = 
REMARK  7 active torsions:
REMARK  status: ('A' for Active; 'I' for Inactive)
REMARK    1  A    between atoms: C_2  and  C_10
REMARK    2  A    between atoms: N_3  and  C_4
REMARK    3  A    between atoms: C_4  and  C_5
REMARK    4  A    between atoms: C_14  and  C_15
REMARK    5  A    between atoms: C_15  and  N_16
REMARK    6  A    between atoms: C_20  and  C_21
REMARK    7  A    between atoms: C_21  and  O_22
REMARK                            x       y       z     vdW  Elec       q    Type
REMARK                         _______ _______ _______ _____ _____    ______ ____
ROOT
ATOM      1  C   UNL     1       5.606   5.337  16.247  0.00  0.00    +0.000 A 
ATOM      2  C   UNL     1       4.889   6.532  16.350  0.00  0.00    +0.000 A 
ATOM      3  C   UNL     1       4.078   6.750  17.462  0.00  0.00    +0.000 A 
ATOM      4  C   UNL     1       4.019   5.797  18.484  0.00  0.00    +0.000 A 
ATOM      5  C   UNL     1       4.744   4.597  18.394  0.00  0.00    +0.000 A 
ATOM      6  C   UNL     1       5.491   4.354  17.235  0.00  0.00    +0.000 A 
ENDROOT
BRANCH   1   8
ATOM      7  O   UNL     1       7.716   5.548  15.228  0.00  0.00    +0.000 OA
ATOM      8  C   UNL     1       6.582   5.100  15.159  0.00  0.00    +0.000 C 
ATOM      9  N   UNL     1       6.070   4.447  14.061  0.00  0.00    +0.000 N 
ATOM     10  H   UNL     1       5.070   4.309  13.997  0.00  0.00    +0.000 HD
BRANCH   9  11
ATOM     11  C   UNL     1       6.794   4.436  12.813  0.00  0.00    +0.000 C 
BRANCH  11  12
ATOM     12  C   UNL     1       6.473   3.185  12.094  0.00  0.00    +0.000 A 
ATOM     13  C   UNL     1       5.288   2.527  11.838  0.00  0.00    +0.000 A 
ATOM     14  C   UNL     1       5.626   1.373  11.092  0.00  0.00    +0.000 A 
ATOM     15  C   UNL     1       6.991   1.401  10.935  0.00  0.00    +0.000 A 
ATOM     16  O   UNL     1       7.518   2.498  11.541  0.00  0.00    +0.000 OA
ENDBRANCH  11  12
ENDBRANCH   9  11
ENDBRANCH   1   8
BRANCH   5  17
ATOM     17  C   UNL     1       4.752   3.598  19.531  0.00  0.00    +0.000 C 
BRANCH  17  18
ATOM     18  N   UNL     1       3.585   2.706  19.658  0.00  0.00    +0.000 NA
ATOM     19  C   UNL     1       3.426   1.733  18.576  0.00  0.00    +0.000 C 
ATOM     20  C   UNL     1       2.311   2.259  17.692  0.00  0.00    +0.000 C 
ATOM     21  C   UNL     1       1.410   3.027  18.638  0.00  0.00    +0.000 C 
ATOM     22  C   UNL     1       2.282   3.384  19.843  0.00  0.00    +0.000 C 
BRANCH  22  23
ATOM     23  C   UNL     1       1.627   2.910  21.153  0.00  0.00    +0.000 C 
BRANCH  23  24
ATOM     24  O   UNL     1       2.628   2.499  22.082  0.00  0.00    +0.000 OA
ATOM     25  H   UNL     1       2.954   3.332  22.472  0.00  0.00    +0.000 HD
ENDBRANCH  23  24
ENDBRANCH  22  23
ENDBRANCH  17  18
ENDBRANCH   5  17
TORSDOF 7
ENDMDL
MODEL 2
REMARK VINA RESULT:      -7.8      1.466      2.086
REMARK  Name = 
REMARK  7 active torsions:
REMARK  status: ('A' for Active; 'I' for Inactive)
REMARK    1  A    between atoms: C_2  and  C_10
REMARK    2  A    between atoms: N_3  and  C_4
REMARK    3  A    between atoms: C_4  and  C_5
REMARK    4  A    between atoms: C_14  and  C_15
REMARK    5  A    between atoms: C_15  and  N_16
REMARK    6  A    between atoms: C_20  and  C_21
REMARK    7  A    between atoms: C_21  and  O_22
REMARK                            x       y       z     vdW  Elec       q    Type
REMARK                         _______ _______ _______ _____ _____    ______ ____
ROOT
ATOM      1  C   UNL     1       4.624   5.771  16.679  0.00  0.00    +0.000 A 
ATOM      2  C   UNL     1       4.462   7.027  17.269  0.00  0.00    +0.000 A 
ATOM      3  C   UNL     1       3.363   7.258  18.095  0.00  0.00    +0.000 A 
ATOM      4  C   UNL     1       2.458   6.226  18.361  0.00  0.00    +0.000 A 
ATOM      5  C   UNL     1       2.619   4.957  17.781  0.00  0.00    +0.000 A 
ATOM      6  C   UNL     1       3.680   4.761  16.889  0.00  0.00    +0.000 A 
ENDROOT
BRANCH   1   8
ATOM      7  O   UNL     1       6.870   6.053  16.037  0.00  0.00    +0.000 OA
ATOM      8  C   UNL     1       5.833   5.423  15.898  0.00  0.00    +0.000 C 
ATOM      9  N   UNL     1       5.646   4.433  14.961  0.00  0.00    +0.000 N 
ATOM     10  H   UNL     1       4.704   4.121  14.761  0.00  0.00    +0.000 HD
BRANCH   9  11
ATOM     11  C   UNL     1       6.621   4.217  13.920  0.00  0.00    +0.000 C 
BRANCH  11  12
ATOM     12  C   UNL     1       5.967   3.506  12.801  0.00  0.00    +0.000 A 
ATOM     13  C   UNL     1       4.705   3.585  12.249  0.00  0.00    +0.000 A 
ATOM     14  C   UNL     1       4.675   2.647  11.189  0.00  0.00    +0.000 A 
ATOM     15  C   UNL     1       5.917   2.059  11.159  0.00  0.00    +0.000 A 
ATOM     16  O   UNL     1       6.712   2.572  12.135  0.00  0.00    +0.000 OA
ENDBRANCH  11  12
ENDBRANCH   9  11
ENDBRANCH   1   8
BRANCH   5  17
ATOM     17  C   UNL     1       1.693   3.812  18.130  0.00  0.00    +0.000 C 
BRANCH  17  18
ATOM     18  N   UNL     1       2.170   2.833  19.124  0.00  0.00    +0.000 NA
ATOM     19  C   UNL     1       1.121   2.191  19.917  0.00  0.00    +0.000 C 
ATOM     20  C   UNL     1       1.151   2.855  21.281  0.00  0.00    +0.000 C 
ATOM     21  C   UNL     1       2.601   3.258  21.471  0.00  0.00    +0.000 C 
ATOM     22  C   UNL     1       3.198   3.330  20.065  0.00  0.00    +0.000 C 
BRANCH  22  23
ATOM     23  C   UNL     1       4.465   2.461  19.963  0.00  0.00    +0.000 C 
BRANCH  23  24
ATOM     24  O   UNL     1       5.482   3.157  19.246  0.00  0.00    +0.000 OA
ATOM     25  H   UNL     1       5.885   3.749  19.909  0.00  0.00    +0.000 HD
ENDBRANCH  23  24
ENDBRANCH  22  23
ENDBRANCH  17  18
ENDBRANCH   5  17
TORSDOF 7
ENDMDL
MODEL 3
REMARK VINA RESULT:      -7.7      4.357      8.059
REMARK  Name = 
REMARK  7 active torsions:
REMARK  status: ('A' for Active; 'I' for Inactive)
REMARK    1  A    between atoms: C_2  and  C_10
REMARK    2  A    between atoms: N_3  and  C_4
REMARK    3  A    between atoms: C_4  and  C_5
REMARK    4  A    between atoms: C_14  and  C_15
REMARK    5  A    between atoms: C_15  and  N_16
REMARK    6  A    between atoms: C_20  and  C_21
REMARK    7  A    between atoms: C_21  and  O_22
REMARK                            x       y       z     vdW  Elec       q    Type
REMARK                         _______ _______ _______ _____ _____    ______ ____
ROOT
ATOM      1  C   UNL     1       2.784   7.468  17.920  0.00  0.00    +0.000 A 
ATOM      2  C   UNL     1       4.089   7.423  17.423  0.00  0.00    +0.000 A 
ATOM      3  C   UNL     1       4.674   6.188  17.146  0.00  0.00    +0.000 A 
ATOM      4  C   UNL     1       3.941   5.011  17.325  0.00  0.00    +0.000 A 
ATOM      5  C   UNL     1       2.626   5.046  17.814  0.00  0.00    +0.000 A 
ATOM      6  C   UNL     1       2.078   6.286  18.166  0.00  0.00    +0.000 A 
ENDROOT
BRANCH   1   8
ATOM      7  O   UNL     1       2.172   9.654  17.302  0.00  0.00    +0.000 OA
ATOM      8  C   UNL     1       2.062   8.746  18.113  0.00  0.00    +0.000 C 
ATOM      9  N   UNL     1       1.374   8.844  19.300  0.00  0.00    +0.000 N 
ATOM     10  H   UNL     1       1.517   8.135  20.008  0.00  0.00    +0.000 HD
BRANCH   9  11
ATOM     11  C   UNL     1       0.903  10.124  19.769  0.00  0.00    +0.000 C 
BRANCH  11  12
ATOM     12  C   UNL     1       0.409   9.966  21.154  0.00  0.00    +0.000 A 
ATOM     13  C   UNL     1       0.517   8.947  22.077  0.00  0.00    +0.000 A 
ATOM     14  C   UNL     1      -0.165   9.388  23.237  0.00  0.00    +0.000 A 
ATOM     15  C   UNL     1      -0.641  10.645  22.951  0.00  0.00    +0.000 A 
ATOM     16  O   UNL     1      -0.298  11.008  21.686  0.00  0.00    +0.000 OA
ENDBRANCH  11  12
ENDBRANCH   9  11
ENDBRANCH   1   8
BRANCH   5  17
ATOM     17  C   UNL     1       1.798   3.784  17.932  0.00  0.00    +0.000 C 
BRANCH  17  18
ATOM     18  N   UNL     1       2.162   2.831  18.995  0.00  0.00    +0.000 NA
ATOM     19  C   UNL     1       1.036   2.293  19.760  0.00  0.00    +0.000 C 
ATOM     20  C   UNL     1       1.037   3.023  21.090  0.00  0.00    +0.000 C 
ATOM     21  C   UNL     1       2.497   3.348  21.340  0.00  0.00    +0.000 C 
ATOM     22  C   UNL     1       3.169   3.314  19.966  0.00  0.00    +0.000 C 
BRANCH  22  23
ATOM     23  C   UNL     1       4.384   2.368  19.975  0.00  0.00    +0.000 C 
BRANCH  23  24
ATOM     24  O   UNL     1       5.483   2.974  19.299  0.00  0.00    +0.000 OA
ATOM     25  H   UNL     1       5.701   2.350  18.581  0.00  0.00    +0.000 HD
ENDBRANCH  23  24
ENDBRANCH  22  23
ENDBRANCH  17  18
ENDBRANCH   5  17
TORSDOF 7
ENDMDL
MODEL 4
REMARK VINA RESULT:      -7.6      1.980      2.880
REMARK  Name = 
REMARK  7 active torsions:
REMARK  status: ('A' for Active; 'I' for Inactive)
REMARK    1  A    between atoms: C_2  and  C_10
REMARK    2  A    between atoms: N_3  and  C_4
REMARK    3  A    between atoms: C_4  and  C_5
REMARK    4  A    between atoms: C_14  and  C_15
REMARK    5  A    between atoms: C_15  and  N_16
REMARK    6  A    between atoms: C_20  and  C_21
REMARK    7  A    between atoms: C_21  and  O_22
REMARK                            x       y       z     vdW  Elec       q    Type
REMARK                         _______ _______ _______ _____ _____    ______ ____
ROOT
ATOM      1  C   UNL     1       4.288   6.270  17.353  0.00  0.00    +0.000 A 
ATOM      2  C   UNL     1       3.705   7.426  17.878  0.00  0.00    +0.000 A 
ATOM      3  C   UNL     1       2.410   7.366  18.393  0.00  0.00    +0.000 A 
ATOM      4  C   UNL     1       1.723   6.148  18.421  0.00  0.00    +0.000 A 
ATOM      5  C   UNL     1       2.306   4.980  17.904  0.00  0.00    +0.000 A 
ATOM      6  C   UNL     1       3.574   5.069  17.316  0.00  0.00    +0.000 A 
ENDROOT
BRANCH   1   8
ATOM      7  O   UNL     1       6.252   7.249  16.507  0.00  0.00    +0.000 OA
ATOM      8  C   UNL     1       5.701   6.237  16.911  0.00  0.00    +0.000 C 
ATOM      9  N   UNL     1       6.269   4.985  16.896  0.00  0.00    +0.000 N 
ATOM     10  H   UNL     1       5.675   4.177  17.034  0.00  0.00    +0.000 HD
BRANCH   9  11
ATOM     11  C   UNL     1       7.506   4.750  16.192  0.00  0.00    +0.000 C 
BRANCH  11  12
ATOM     12  C   UNL     1       7.206   4.591  14.753  0.00  0.00    +0.000 A 
ATOM     13  C   UNL     1       6.287   3.826  14.065  0.00  0.00    +0.000 A 
ATOM     14  C   UNL     1       6.482   4.109  12.692  0.00  0.00    +0.000 A 
ATOM     15  C   UNL     1       7.501   5.030  12.628  0.00  0.00    +0.000 A 
ATOM     16  O   UNL     1       7.950   5.330  13.876  0.00  0.00    +0.000 OA
ENDBRANCH  11  12
ENDBRANCH   9  11
ENDBRANCH   1   8
BRANCH   5  17
ATOM     17  C   UNL     1       1.604   3.642  18.006  0.00  0.00    +0.000 C 
BRANCH  17  18
ATOM     18  N   UNL     1       2.054   2.718  19.063  0.00  0.00    +0.000 NA
ATOM     19  C   UNL     1       1.003   2.242  19.962  0.00  0.00    +0.000 C 
ATOM     20  C   UNL     1       1.162   3.020  21.254  0.00  0.00    +0.000 C 
ATOM     21  C   UNL     1       2.648   3.312  21.337  0.00  0.00    +0.000 C 
ATOM     22  C   UNL     1       3.171   3.207  19.903  0.00  0.00    +0.000 C 
BRANCH  22  23
ATOM     23  C   UNL     1       4.355   2.227  19.822  0.00  0.00    +0.000 C 
BRANCH  23  24
ATOM     24  O   UNL     1       4.214   1.380  18.684  0.00  0.00    +0.000 OA
ATOM     25  H   UNL     1       3.941   1.982  17.966  0.00  0.00    +0.000 HD
ENDBRANCH  23  24
ENDBRANCH  22  23
ENDBRANCH  17  18
ENDBRANCH   5  17
TORSDOF 7
ENDMDL
MODEL 5
REMARK VINA RESULT:      -7.6      3.756      8.098
REMARK  Name = 
REMARK  7 active torsions:
REMARK  status: ('A' for Active; 'I' for Inactive)
REMARK    1  A    between atoms: C_2  and  C_10
REMARK    2  A    between atoms: N_3  and  C_4
REMARK    3  A    between atoms: C_4  and  C_5
REMARK    4  A    between atoms: C_14  and  C_15
REMARK    5  A    between atoms: C_15  and  N_16
REMARK    6  A    between atoms: C_20  and  C_21
REMARK    7  A    between atoms: C_21  and  O_22
REMARK                            x       y       z     vdW  Elec       q    Type
REMARK                         _______ _______ _______ _____ _____    ______ ____
ROOT
ATOM      1  C   UNL     1       2.855   5.171  18.854  0.00  0.00    +0.000 A 
ATOM      2  C   UNL     1       2.788   3.793  18.631  0.00  0.00    +0.000 A 
ATOM      3  C   UNL     1       3.451   3.245  17.534  0.00  0.00    +0.000 A 
ATOM      4  C   UNL     1       4.210   4.066  16.693  0.00  0.00    +0.000 A 
ATOM      5  C   UNL     1       4.290   5.450  16.915  0.00  0.00    +0.000 A 
ATOM      6  C   UNL     1       3.555   6.000  17.972  0.00  0.00    +0.000 A 
ENDROOT
BRANCH   1   8
ATOM      7  O   UNL     1       1.753   5.114  20.932  0.00  0.00    +0.000 OA
ATOM      8  C   UNL     1       2.282   5.797  20.068  0.00  0.00    +0.000 C 
ATOM      9  N   UNL     1       2.307   7.172  20.072  0.00  0.00    +0.000 N 
ATOM     10  H   UNL     1       2.561   7.658  19.221  0.00  0.00    +0.000 HD
BRANCH   9  11
ATOM     11  C   UNL     1       1.506   7.916  21.014  0.00  0.00    +0.000 C 
BRANCH  11  12
ATOM     12  C   UNL     1       0.861   9.039  20.301  0.00  0.00    +0.000 A 
ATOM     13  C   UNL     1      -0.176   9.887  20.630  0.00  0.00    +0.000 A 
ATOM     14  C   UNL     1      -0.333  10.767  19.533  0.00  0.00    +0.000 A 
ATOM     15  C   UNL     1       0.618  10.406  18.609  0.00  0.00    +0.000 A 
ATOM     16  O   UNL     1       1.350   9.355  19.064  0.00  0.00    +0.000 OA
ENDBRANCH  11  12
ENDBRANCH   9  11
ENDBRANCH   1   8
BRANCH   5  17
ATOM     17  C   UNL     1       5.175   6.331  16.060  0.00  0.00    +0.000 C 
BRANCH  17  18
ATOM     18  N   UNL     1       6.609   6.386  16.400  0.00  0.00    +0.000 NA
ATOM     19  C   UNL     1       7.341   5.134  16.209  0.00  0.00    +0.000 C 
ATOM     20  C   UNL     1       7.538   4.540  17.591  0.00  0.00    +0.000 C 
ATOM     21  C   UNL     1       7.614   5.744  18.511  0.00  0.00    +0.000 C 
ATOM     22  C   UNL     1       6.923   6.883  17.759  0.00  0.00    +0.000 C 
BRANCH  22  23
ATOM     23  C   UNL     1       7.842   8.115  17.667  0.00  0.00    +0.000 C 
BRANCH  23  24
ATOM     24  O   UNL     1       8.665   8.200  18.828  0.00  0.00    +0.000 OA
ATOM     25  H   UNL     1       9.449   8.702  18.534  0.00  0.00    +0.000 HD
ENDBRANCH  23  24
ENDBRANCH  22  23
ENDBRANCH  17  18
ENDBRANCH   5  17
TORSDOF 7
ENDMDL
MODEL 6
REMARK VINA RESULT:      -7.5      2.104      3.129
REMARK  Name = 
REMARK  7 active torsions:
REMARK  status: ('A' for Active; 'I' for Inactive)
REMARK    1  A    between atoms: C_2  and  C_10
REMARK    2  A    between atoms: N_3  and  C_4
REMARK    3  A    between atoms: C_4  and  C_5
REMARK    4  A    between atoms: C_14  and  C_15
REMARK    5  A    between atoms: C_15  and  N_16
REMARK    6  A    between atoms: C_20  and  C_21
REMARK    7  A    between atoms: C_21  and  O_22
REMARK                            x       y       z     vdW  Elec       q    Type
REMARK                         _______ _______ _______ _____ _____    ______ ____
ROOT
ATOM      1  C   UNL     1       4.431   6.931  17.642  0.00  0.00    +0.000 A 
ATOM      2  C   UNL     1       3.778   8.101  17.244  0.00  0.00    +0.000 A 
ATOM      3  C   UNL     1       2.523   8.399  17.774  0.00  0.00    +0.000 A 
ATOM      4  C   UNL     1       1.947   7.553  18.728  0.00  0.00    +0.000 A 
ATOM      5  C   UNL     1       2.601   6.381  19.141  0.00  0.00    +0.000 A 
ATOM      6  C   UNL     1       3.823   6.051  18.542  0.00  0.00    +0.000 A 
ENDROOT
BRANCH   1   8
ATOM      7  O   UNL     1       6.522   7.486  16.720  0.00  0.00    +0.000 OA
ATOM      8  C   UNL     1       5.815   6.623  17.217  0.00  0.00    +0.000 C 
ATOM      9  N   UNL     1       6.170   5.299  17.330  0.00  0.00    +0.000 N 
ATOM     10  H   UNL     1       5.452   4.617  17.542  0.00  0.00    +0.000 HD
BRANCH   9  11
ATOM     11  C   UNL     1       7.345   4.796  16.662  0.00  0.00    +0.000 C 
BRANCH  11  12
ATOM     12  C   UNL     1       7.016   4.563  15.240  0.00  0.00    +0.000 A 
ATOM     13  C   UNL     1       6.098   3.748  14.611  0.00  0.00    +0.000 A 
ATOM     14  C   UNL     1       6.256   3.969  13.222  0.00  0.00    +0.000 A 
ATOM     15  C   UNL     1       7.253   4.906  13.091  0.00  0.00    +0.000 A 
ATOM     16  O   UNL     1       7.724   5.275  14.311  0.00  0.00    +0.000 OA
ENDBRANCH  11  12
ENDBRANCH   9  11
ENDBRANCH   1   8
BRANCH   5  17
ATOM     17  C   UNL     1       2.024   5.505  20.233  0.00  0.00    +0.000 C 
BRANCH  17  18
ATOM     18  N   UNL     1       2.013   4.049  19.999  0.00  0.00    +0.000 NA
ATOM     19  C   UNL     1       0.818   3.352  20.476  0.00  0.00    +0.000 C 
ATOM     20  C   UNL     1       1.218   2.649  21.759  0.00  0.00    +0.000 C 
ATOM     21  C   UNL     1       2.690   2.333  21.571  0.00  0.00    +0.000 C 
ATOM     22  C   UNL     1       3.191   3.313  20.509  0.00  0.00    +0.000 C 
BRANCH  22  23
ATOM     23  C   UNL     1       3.880   2.563  19.354  0.00  0.00    +0.000 C 
BRANCH  23  24
ATOM     24  O   UNL     1       5.150   2.070  19.778  0.00  0.00    +0.000 OA
ATOM     25  H   UNL     1       5.725   2.179  18.998  0.00  0.00    +0.000 HD
ENDBRANCH  23  24
ENDBRANCH  22  23
ENDBRANCH  17  18
ENDBRANCH   5  17
TORSDOF 7
ENDMDL
MODEL 7
REMARK VINA RESULT:      -7.5      2.071      2.921
REMARK  Name = 
REMARK  7 active torsions:
REMARK  status: ('A' for Active; 'I' for Inactive)
REMARK    1  A    between atoms: C_2  and  C_10
REMARK    2  A    between atoms: N_3  and  C_4
REMARK    3  A    between atoms: C_4  and  C_5
REMARK    4  A    between atoms: C_14  and  C_15
REMARK    5  A    between atoms: C_15  and  N_16
REMARK    6  A    between atoms: C_20  and  C_21
REMARK    7  A    between atoms: C_21  and  O_22
REMARK                            x       y       z     vdW  Elec       q    Type
REMARK                         _______ _______ _______ _____ _____    ______ ____
ROOT
ATOM      1  C   UNL     1       4.424   6.557  17.936  0.00  0.00    +0.000 A 
ATOM      2  C   UNL     1       3.596   7.633  17.604  0.00  0.00    +0.000 A 
ATOM      3  C   UNL     1       2.371   7.780  18.253  0.00  0.00    +0.000 A 
ATOM      4  C   UNL     1       1.998   6.880  19.257  0.00  0.00    +0.000 A 
ATOM      5  C   UNL     1       2.828   5.802  19.604  0.00  0.00    +0.000 A 
ATOM      6  C   UNL     1       4.018   5.618  18.889  0.00  0.00    +0.000 A 
ENDROOT
BRANCH   1   8
ATOM      7  O   UNL     1       6.315   7.341  16.778  0.00  0.00    +0.000 OA
ATOM      8  C   UNL     1       5.789   6.417  17.378  0.00  0.00    +0.000 C 
ATOM      9  N   UNL     1       6.334   5.161  17.503  0.00  0.00    +0.000 N 
ATOM     10  H   UNL     1       5.744   4.400  17.815  0.00  0.00    +0.000 HD
BRANCH   9  11
ATOM     11  C   UNL     1       7.496   4.788  16.735  0.00  0.00    +0.000 C 
BRANCH  11  12
ATOM     12  C   UNL     1       7.077   4.533  15.340  0.00  0.00    +0.000 A 
ATOM     13  C   UNL     1       6.097   3.735  14.786  0.00  0.00    +0.000 A 
ATOM     14  C   UNL     1       6.181   3.918  13.385  0.00  0.00    +0.000 A 
ATOM     15  C   UNL     1       7.200   4.816  13.173  0.00  0.00    +0.000 A 
ATOM     16  O   UNL     1       7.753   5.197  14.355  0.00  0.00    +0.000 OA
ENDBRANCH  11  12
ENDBRANCH   9  11
ENDBRANCH   1   8
BRANCH   5  17
ATOM     17  C   UNL     1       2.472   4.873  20.745  0.00  0.00    +0.000 C 
BRANCH  17  18
ATOM     18  N   UNL     1       2.288   3.446  20.426  0.00  0.00    +0.000 NA
ATOM     19  C   UNL     1       3.292   2.547  20.995  0.00  0.00    +0.000 C 
ATOM     20  C   UNL     1       4.226   2.177  19.858  0.00  0.00    +0.000 C 
ATOM     21  C   UNL     1       3.351   2.226  18.621  0.00  0.00    +0.000 C 
ATOM     22  C   UNL     1       2.169   3.126  18.985  0.00  0.00    +0.000 C 
BRANCH  22  23
ATOM     23  C   UNL     1       0.832   2.410  18.716  0.00  0.00    +0.000 C 
BRANCH  23  24
ATOM     24  O   UNL     1      -0.145   2.821  19.670  0.00  0.00    +0.000 OA
ATOM     25  H   UNL     1      -0.981   2.843  19.167  0.00  0.00    +0.000 HD
ENDBRANCH  23  24
ENDBRANCH  22  23
ENDBRANCH  17  18
ENDBRANCH   5  17
TORSDOF 7
ENDMDL
MODEL 8
REMARK VINA RESULT:      -7.4      1.718      2.331
REMARK  Name = 
REMARK  7 active torsions:
REMARK  status: ('A' for Active; 'I' for Inactive)
REMARK    1  A    between atoms: C_2  and  C_10
REMARK    2  A    between atoms: N_3  and  C_4
REMARK    3  A    between atoms: C_4  and  C_5
REMARK    4  A    between atoms: C_14  and  C_15
REMARK    5  A    between atoms: C_15  and  N_16
REMARK    6  A    between atoms: C_20  and  C_21
REMARK    7  A    between atoms: C_21  and  O_22
REMARK                            x       y       z     vdW  Elec       q    Type
REMARK                         _______ _______ _______ _____ _____    ______ ____
ROOT
ATOM      1  C   UNL     1       4.498   5.529  16.608  0.00  0.00    +0.000 A 
ATOM      2  C   UNL     1       4.653   6.917  16.571  0.00  0.00    +0.000 A 
ATOM      3  C   UNL     1       3.883   7.715  17.416  0.00  0.00    +0.000 A 
ATOM      4  C   UNL     1       2.996   7.123  18.321  0.00  0.00    +0.000 A 
ATOM      5  C   UNL     1       2.841   5.729  18.373  0.00  0.00    +0.000 A 
ATOM      6  C   UNL     1       3.559   4.943  17.463  0.00  0.00    +0.000 A 
ENDROOT
BRANCH   1   8
ATOM      7  O   UNL     1       5.875   3.638  16.356  0.00  0.00    +0.000 OA
ATOM      8  C   UNL     1       5.373   4.621  15.832  0.00  0.00    +0.000 C 
ATOM      9  N   UNL     1       5.642   5.040  14.549  0.00  0.00    +0.000 N 
ATOM     10  H   UNL     1       5.366   5.974  14.272  0.00  0.00    +0.000 HD
BRANCH   9  11
ATOM     11  C   UNL     1       6.720   4.447  13.796  0.00  0.00    +0.000 C 
BRANCH  11  12
ATOM     12  C   UNL     1       6.141   3.565  12.760  0.00  0.00    +0.000 A 
ATOM     13  C   UNL     1       6.667   2.541  11.999  0.00  0.00    +0.000 A 
ATOM     14  C   UNL     1       5.612   2.073  11.180  0.00  0.00    +0.000 A 
ATOM     15  C   UNL     1       4.512   2.835  11.493  0.00  0.00    +0.000 A 
ATOM     16  O   UNL     1       4.821   3.747  12.453  0.00  0.00    +0.000 OA
ENDBRANCH  11  12
ENDBRANCH   9  11
ENDBRANCH   1   8
BRANCH   5  17
ATOM     17  C   UNL     1       1.946   5.076  19.405  0.00  0.00    +0.000 C 
BRANCH  17  18
ATOM     18  N   UNL     1       2.095   3.624  19.610  0.00  0.00    +0.000 NA
ATOM     19  C   UNL     1       0.905   2.944  20.123  0.00  0.00    +0.000 C 
ATOM     20  C   UNL     1       1.164   2.683  21.595  0.00  0.00    +0.000 C 
ATOM     21  C   UNL     1       2.669   2.514  21.688  0.00  0.00    +0.000 C 
ATOM     22  C   UNL     1       3.240   3.213  20.453  0.00  0.00    +0.000 C 
BRANCH  22  23
ATOM     23  C   UNL     1       4.158   2.263  19.662  0.00  0.00    +0.000 C 
BRANCH  23  24
ATOM     24  O   UNL     1       5.369   2.930  19.311  0.00  0.00    +0.000 OA
ATOM     25  H   UNL     1       5.588   3.465  20.097  0.00  0.00    +0.000 HD
ENDBRANCH  23  24
ENDBRANCH  22  23
ENDBRANCH  17  18
ENDBRANCH   5  17
TORSDOF 7
ENDMDL
MODEL 9
REMARK VINA RESULT:      -7.3      1.522      1.954
REMARK  Name = 
REMARK  7 active torsions:
REMARK  status: ('A' for Active; 'I' for Inactive)
REMARK    1  A    between atoms: C_2  and  C_10
REMARK    2  A    between atoms: N_3  and  C_4
REMARK    3  A    between atoms: C_4  and  C_5
REMARK    4  A    between atoms: C_14  and  C_15
REMARK    5  A    between atoms: C_15  and  N_16
REMARK    6  A    between atoms: C_20  and  C_21
REMARK    7  A    between atoms: C_21  and  O_22
REMARK                            x       y       z     vdW  Elec       q    Type
REMARK                         _______ _______ _______ _____ _____    ______ ____
ROOT
ATOM      1  C   UNL     1       6.389   5.210  16.035  0.00  0.00    +0.000 A 
ATOM      2  C   UNL     1       7.094   5.810  17.082  0.00  0.00    +0.000 A 
ATOM      3  C   UNL     1       6.458   6.014  18.306  0.00  0.00    +0.000 A 
ATOM      4  C   UNL     1       5.141   5.582  18.492  0.00  0.00    +0.000 A 
ATOM      5  C   UNL     1       4.429   4.969  17.448  0.00  0.00    +0.000 A 
ATOM      6  C   UNL     1       5.051   4.843  16.200  0.00  0.00    +0.000 A 
ENDROOT
BRANCH   1   8
ATOM      7  O   UNL     1       7.965   5.519  14.315  0.00  0.00    +0.000 OA
ATOM      8  C   UNL     1       7.043   4.849  14.757  0.00  0.00    +0.000 C 
ATOM      9  N   UNL     1       6.461   3.796  14.091  0.00  0.00    +0.000 N 
ATOM     10  H   UNL     1       5.571   3.443  14.419  0.00  0.00    +0.000 HD
BRANCH   9  11
ATOM     11  C   UNL     1       6.773   3.543  12.705  0.00  0.00    +0.000 C 
BRANCH  11  12
ATOM     12  C   UNL     1       5.511   3.294  11.976  0.00  0.00    +0.000 A 
ATOM     13  C   UNL     1       4.408   4.080  11.713  0.00  0.00    +0.000 A 
ATOM     14  C   UNL     1       3.519   3.277  10.959  0.00  0.00    +0.000 A 
ATOM     15  C   UNL     1       4.134   2.058  10.806  0.00  0.00    +0.000 A 
ATOM     16  O   UNL     1       5.347   2.055  11.421  0.00  0.00    +0.000 OA
ENDBRANCH  11  12
ENDBRANCH   9  11
ENDBRANCH   1   8
BRANCH   5  17
ATOM     17  C   UNL     1       3.034   4.423  17.666  0.00  0.00    +0.000 C 
BRANCH  17  18
ATOM     18  N   UNL     1       2.905   3.191  18.466  0.00  0.00    +0.000 NA
ATOM     19  C   UNL     1       1.709   2.393  18.190  0.00  0.00    +0.000 C 
ATOM     20  C   UNL     1       0.749   2.654  19.335  0.00  0.00    +0.000 C 
ATOM     21  C   UNL     1       1.648   2.936  20.523  0.00  0.00    +0.000 C 
ATOM     22  C   UNL     1       2.990   3.373  19.932  0.00  0.00    +0.000 C 
BRANCH  22  23
ATOM     23  C   UNL     1       4.141   2.520  20.499  0.00  0.00    +0.000 C 
BRANCH  23  24
ATOM     24  O   UNL     1       5.018   2.120  19.448  0.00  0.00    +0.000 OA
ATOM     25  H   UNL     1       4.610   2.482  18.640  0.00  0.00    +0.000 HD
ENDBRANCH  23  24
ENDBRANCH  22  23
ENDBRANCH  17  18
ENDBRANCH   5  17
TORSDOF 7
ENDMDL
