MODEL 1
REMARK VINA RESULT:      -8.2      0.000      0.000
REMARK  Name = 
REMARK  5 active torsions:
REMARK  status: ('A' for Active; 'I' for Inactive)
REMARK    1  A    between atoms: C_2  and  O_3
REMARK    2  A    between atoms: C_2  and  C_4
REMARK    3  A    between atoms: C_9  and  N_10
REMARK    4  A    between atoms: N_10  and  S_11
REMARK    5  A    between atoms: S_11  and  C_14
REMARK                            x       y       z     vdW  Elec       q    Type
REMARK                         _______ _______ _______ _____ _____    ______ ____
ROOT
ATOM      1  C   UNL     1       1.770   4.287  20.310  0.00  0.00    +0.000 A 
ATOM      2  C   UNL     1       1.798   5.477  21.021  0.00  0.00    +0.000 A 
ATOM      3  N   UNL     1       2.607   6.360  20.355  0.00  0.00    +0.000 N 
ATOM      4  C   UNL     1       3.090   5.786  19.202  0.00  0.00    +0.000 A 
ATOM      5  C   UNL     1       3.946   6.309  18.223  0.00  0.00    +0.000 A 
ATOM      6  C   UNL     1       4.257   5.494  17.130  0.00  0.00    +0.000 A 
ATOM      7  C   UNL     1       3.750   4.201  17.033  0.00  0.00    +0.000 A 
ATOM      8  C   UNL     1       2.928   3.681  18.041  0.00  0.00    +0.000 A 
ATOM      9  C   UNL     1       2.580   4.488  19.144  0.00  0.00    +0.000 A 
ATOM     10  H   UNL     1       2.832   7.297  20.666  0.00  0.00    +0.000 HD
ENDROOT
BRANCH   1  12
ATOM     11  O   UNL     1       1.318   2.428  21.704  0.00  0.00    +0.000 OA
ATOM     12  C   UNL     1       1.077   3.062  20.686  0.00  0.00    +0.000 C 
BRANCH  12  13
ATOM     13  O   UNL     1       0.136   2.652  19.797  0.00  0.00    +0.000 OA
ATOM     14  H   UNL     1       0.497   2.602  18.894  0.00  0.00    +0.000 HD
ENDBRANCH  12  13
ENDBRANCH   1  12
BRANCH   6  15
ATOM     15  N   UNL     1       5.126   5.962  16.108  0.00  0.00    +0.000 N 
ATOM     16  H   UNL     1       4.723   6.189  15.200  0.00  0.00    +0.000 HD
BRANCH  15  17
ATOM     17  S   UNL     1       6.709   5.390  16.016  0.00  0.00    +0.000 S 
ATOM     18  O   UNL     1       7.587   6.507  16.291  0.00  0.00    +0.000 OA
ATOM     19  O   UNL     1       6.801   4.166  16.779  0.00  0.00    +0.000 OA
BRANCH  17  20
ATOM     20  C   UNL     1       6.926   4.977  14.315  0.00  0.00    +0.000 A 
ATOM     21  C   UNL     1       7.860   5.660  13.528  0.00  0.00    +0.000 A 
ATOM     22  C   UNL     1       8.044   5.281  12.198  0.00  0.00    +0.000 A 
ATOM     23  C   UNL     1       7.301   4.229  11.660  0.00  0.00    +0.000 A 
ATOM     24  C   UNL     1       6.358   3.567  12.450  0.00  0.00    +0.000 A 
ATOM     25 CL   UNL     1       5.481   2.244  11.783  0.00  0.00    +0.000 Cl
ATOM     26  C   UNL     1       6.161   3.950  13.776  0.00  0.00    +0.000 A 
ATOM     27  F   UNL     1       5.286   3.281  14.542  0.00  0.00    +0.000 F 
ENDBRANCH  17  20
ENDBRANCH  15  17
ENDBRANCH   6  15
TORSDOF 5
ENDMDL
MODEL 2
REMARK VINA RESULT:      -7.9      1.474      1.910
REMARK  Name = 
REMARK  5 active torsions:
REMARK  status: ('A' for Active; 'I' for Inactive)
REMARK    1  A    between atoms: C_2  and  O_3
REMARK    2  A    between atoms: C_2  and  C_4
REMARK    3  A    between atoms: C_9  and  N_10
REMARK    4  A    between atoms: N_10  and  S_11
REMARK    5  A    between atoms: S_11  and  C_14
REMARK                            x       y       z     vdW  Elec       q    Type
REMARK                         _______ _______ _______ _____ _____    ______ ____
ROOT
ATOM      1  C   UNL     1       2.342   2.684  20.092  0.00  0.00    +0.000 A 
ATOM      2  C   UNL     1       1.605   1.941  19.183  0.00  0.00    +0.000 A 
ATOM      3  N   UNL     1       1.963   2.328  17.918  0.00  0.00    +0.000 N 
ATOM      4  C   UNL     1       2.944   3.290  17.974  0.00  0.00    +0.000 A 
ATOM      5  C   UNL     1       3.602   3.970  16.941  0.00  0.00    +0.000 A 
ATOM      6  C   UNL     1       4.588   4.896  17.297  0.00  0.00    +0.000 A 
ATOM      7  C   UNL     1       4.885   5.147  18.633  0.00  0.00    +0.000 A 
ATOM      8  C   UNL     1       4.189   4.486  19.654  0.00  0.00    +0.000 A 
ATOM      9  C   UNL     1       3.205   3.532  19.324  0.00  0.00    +0.000 A 
ATOM     10  H   UNL     1       1.559   1.971  17.061  0.00  0.00    +0.000 HD
ENDROOT
BRANCH   1  12
ATOM     11  O   UNL     1       1.274   3.043  22.175  0.00  0.00    +0.000 OA
ATOM     12  C   UNL     1       2.240   2.635  21.546  0.00  0.00    +0.000 C 
BRANCH  12  13
ATOM     13  O   UNL     1       3.327   2.109  22.167  0.00  0.00    +0.000 OA
ATOM     14  H   UNL     1       3.081   1.649  22.989  0.00  0.00    +0.000 HD
ENDBRANCH  12  13
ENDBRANCH   1  12
BRANCH   6  15
ATOM     15  N   UNL     1       5.285   5.625  16.296  0.00  0.00    +0.000 N 
ATOM     16  H   UNL     1       4.781   5.880  15.448  0.00  0.00    +0.000 HD
BRANCH  15  17
ATOM     17  S   UNL     1       6.930   5.355  16.045  0.00  0.00    +0.000 S 
ATOM     18  O   UNL     1       7.611   6.613  16.264  0.00  0.00    +0.000 OA
ATOM     19  O   UNL     1       7.317   4.164  16.766  0.00  0.00    +0.000 OA
BRANCH  17  20
ATOM     20  C   UNL     1       7.056   5.001  14.322  0.00  0.00    +0.000 A 
ATOM     21  C   UNL     1       7.896   5.757  13.497  0.00  0.00    +0.000 A 
ATOM     22  C   UNL     1       8.013   5.425  12.146  0.00  0.00    +0.000 A 
ATOM     23  C   UNL     1       7.295   4.345  11.626  0.00  0.00    +0.000 A 
ATOM     24  C   UNL     1       6.446   3.610  12.455  0.00  0.00    +0.000 A 
ATOM     25 CL   UNL     1       5.602   2.256  11.807  0.00  0.00    +0.000 Cl
ATOM     26  C   UNL     1       6.316   3.946  13.802  0.00  0.00    +0.000 A 
ATOM     27  F   UNL     1       5.533   3.206  14.603  0.00  0.00    +0.000 F 
ENDBRANCH  17  20
ENDBRANCH  15  17
ENDBRANCH   6  15
TORSDOF 5
ENDMDL
MODEL 3
REMARK VINA RESULT:      -7.6      3.489      6.963
REMARK  Name = 
REMARK  5 active torsions:
REMARK  status: ('A' for Active; 'I' for Inactive)
REMARK    1  A    between atoms: C_2  and  O_3
REMARK    2  A    between atoms: C_2  and  C_4
REMARK    3  A    between atoms: C_9  and  N_10
REMARK    4  A    between atoms: N_10  and  S_11
REMARK    5  A    between atoms: S_11  and  C_14
REMARK                            x       y       z     vdW  Elec       q    Type
REMARK                         _______ _______ _______ _____ _____    ______ ____
ROOT
ATOM      1  C   UNL     1       6.088   3.877  12.377  0.00  0.00    +0.000 A 
ATOM      2  C   UNL     1       7.089   4.721  11.918  0.00  0.00    +0.000 A 
ATOM      3  N   UNL     1       7.764   5.220  13.001  0.00  0.00    +0.000 N 
ATOM      4  C   UNL     1       7.249   4.698  14.165  0.00  0.00    +0.000 A 
ATOM      5  C   UNL     1       7.619   4.925  15.497  0.00  0.00    +0.000 A 
ATOM      6  C   UNL     1       6.922   4.231  16.492  0.00  0.00    +0.000 A 
ATOM      7  C   UNL     1       5.883   3.364  16.167  0.00  0.00    +0.000 A 
ATOM      8  C   UNL     1       5.501   3.180  14.831  0.00  0.00    +0.000 A 
ATOM      9  C   UNL     1       6.199   3.851  13.806  0.00  0.00    +0.000 A 
ATOM     10  H   UNL     1       8.525   5.886  12.959  0.00  0.00    +0.000 HD
ENDROOT
BRANCH   1  12
ATOM     11  O   UNL     1       4.091   3.701  11.119  0.00  0.00    +0.000 OA
ATOM     12  C   UNL     1       5.099   3.176  11.568  0.00  0.00    +0.000 C 
BRANCH  12  13
ATOM     13  O   UNL     1       5.373   1.862  11.361  0.00  0.00    +0.000 OA
ATOM     14  H   UNL     1       5.389   1.365  12.197  0.00  0.00    +0.000 HD
ENDBRANCH  12  13
ENDBRANCH   1  12
BRANCH   6  15
ATOM     15  N   UNL     1       7.244   4.424  17.862  0.00  0.00    +0.000 N 
ATOM     16  H   UNL     1       7.405   3.599  18.439  0.00  0.00    +0.000 HD
BRANCH  15  17
ATOM     17  S   UNL     1       6.580   5.719  18.713  0.00  0.00    +0.000 S 
ATOM     18  O   UNL     1       6.975   5.572  20.097  0.00  0.00    +0.000 OA
ATOM     19  O   UNL     1       6.856   6.937  17.985  0.00  0.00    +0.000 OA
BRANCH  17  20
ATOM     20  C   UNL     1       4.840   5.439  18.647  0.00  0.00    +0.000 A 
ATOM     21  C   UNL     1       3.990   6.369  18.038  0.00  0.00    +0.000 A 
ATOM     22  C   UNL     1       2.623   6.100  17.958  0.00  0.00    +0.000 A 
ATOM     23  C   UNL     1       2.111   4.912  18.484  0.00  0.00    +0.000 A 
ATOM     24  C   UNL     1       2.966   4.000  19.106  0.00  0.00    +0.000 A 
ATOM     25 CL   UNL     1       2.325   2.521  19.710  0.00  0.00    +0.000 Cl
ATOM     26  C   UNL     1       4.331   4.270  19.200  0.00  0.00    +0.000 A 
ATOM     27  F   UNL     1       5.154   3.369  19.759  0.00  0.00    +0.000 F 
ENDBRANCH  17  20
ENDBRANCH  15  17
ENDBRANCH   6  15
TORSDOF 5
ENDMDL
MODEL 4
REMARK VINA RESULT:      -7.6      1.712      2.160
REMARK  Name = 
REMARK  5 active torsions:
REMARK  status: ('A' for Active; 'I' for Inactive)
REMARK    1  A    between atoms: C_2  and  O_3
REMARK    2  A    between atoms: C_2  and  C_4
REMARK    3  A    between atoms: C_9  and  N_10
REMARK    4  A    between atoms: N_10  and  S_11
REMARK    5  A    between atoms: S_11  and  C_14
REMARK                            x       y       z     vdW  Elec       q    Type
REMARK                         _______ _______ _______ _____ _____    ______ ____
ROOT
ATOM      1  C   UNL     1       1.927   2.744  19.823  0.00  0.00    +0.000 A 
ATOM      2  C   UNL     1       1.499   1.751  18.954  0.00  0.00    +0.000 A 
ATOM      3  N   UNL     1       2.369   1.697  17.897  0.00  0.00    +0.000 N 
ATOM      4  C   UNL     1       3.380   2.614  18.066  0.00  0.00    +0.000 A 
ATOM      5  C   UNL     1       4.477   2.910  17.245  0.00  0.00    +0.000 A 
ATOM      6  C   UNL     1       5.371   3.892  17.684  0.00  0.00    +0.000 A 
ATOM      7  C   UNL     1       5.163   4.564  18.885  0.00  0.00    +0.000 A 
ATOM      8  C   UNL     1       4.040   4.283  19.673  0.00  0.00    +0.000 A 
ATOM      9  C   UNL     1       3.133   3.283  19.265  0.00  0.00    +0.000 A 
ATOM     10  H   UNL     1       2.280   1.083  17.098  0.00  0.00    +0.000 HD
ENDROOT
BRANCH   1  12
ATOM     11  O   UNL     1       1.364   2.588  22.117  0.00  0.00    +0.000 OA
ATOM     12  C   UNL     1       1.267   3.175  21.049  0.00  0.00    +0.000 C 
BRANCH  12  13
ATOM     13  O   UNL     1       0.503   4.290  20.913  0.00  0.00    +0.000 OA
ATOM     14  H   UNL     1      -0.372   4.079  20.543  0.00  0.00    +0.000 HD
ENDBRANCH  12  13
ENDBRANCH   1  12
BRANCH   6  15
ATOM     15  N   UNL     1       6.497   4.244  16.893  0.00  0.00    +0.000 N 
ATOM     16  H   UNL     1       7.424   3.997  17.238  0.00  0.00    +0.000 HD
BRANCH  15  17
ATOM     17  S   UNL     1       6.477   5.657  15.975  0.00  0.00    +0.000 S 
ATOM     18  O   UNL     1       5.125   6.170  16.002  0.00  0.00    +0.000 OA
ATOM     19  O   UNL     1       7.594   6.483  16.376  0.00  0.00    +0.000 OA
BRANCH  17  20
ATOM     20  C   UNL     1       6.782   5.111  14.326  0.00  0.00    +0.000 A 
ATOM     21  C   UNL     1       7.889   5.582  13.611  0.00  0.00    +0.000 A 
ATOM     22  C   UNL     1       8.133   5.097  12.325  0.00  0.00    +0.000 A 
ATOM     23  C   UNL     1       7.276   4.151  11.759  0.00  0.00    +0.000 A 
ATOM     24  C   UNL     1       6.163   3.703  12.475  0.00  0.00    +0.000 A 
ATOM     25 CL   UNL     1       5.141   2.505  11.780  0.00  0.00    +0.000 Cl
ATOM     26  C   UNL     1       5.909   4.193  13.755  0.00  0.00    +0.000 A 
ATOM     27  F   UNL     1       4.864   3.725  14.455  0.00  0.00    +0.000 F 
ENDBRANCH  17  20
ENDBRANCH  15  17
ENDBRANCH   6  15
TORSDOF 5
ENDMDL
MODEL 5
REMARK VINA RESULT:      -7.6      3.230      3.897
REMARK  Name = 
REMARK  5 active torsions:
REMARK  status: ('A' for Active; 'I' for Inactive)
REMARK    1  A    between atoms: C_2  and  O_3
REMARK    2  A    between atoms: C_2  and  C_4
REMARK    3  A    between atoms: C_9  and  N_10
REMARK    4  A    between atoms: N_10  and  S_11
REMARK    5  A    between atoms: S_11  and  C_14
REMARK                            x       y       z     vdW  Elec       q    Type
REMARK                         _______ _______ _______ _____ _____    ______ ____
ROOT
ATOM      1  C   UNL     1       2.292   4.221  20.637  0.00  0.00    +0.000 A 
ATOM      2  C   UNL     1       2.035   5.552  20.934  0.00  0.00    +0.000 A 
ATOM      3  N   UNL     1       2.527   6.324  19.914  0.00  0.00    +0.000 N 
ATOM      4  C   UNL     1       3.075   5.529  18.936  0.00  0.00    +0.000 A 
ATOM      5  C   UNL     1       3.690   5.879  17.727  0.00  0.00    +0.000 A 
ATOM      6  C   UNL     1       4.144   4.844  16.904  0.00  0.00    +0.000 A 
ATOM      7  C   UNL     1       4.008   3.513  17.287  0.00  0.00    +0.000 A 
ATOM      8  C   UNL     1       3.425   3.182  18.518  0.00  0.00    +0.000 A 
ATOM      9  C   UNL     1       2.940   4.206  19.358  0.00  0.00    +0.000 A 
ATOM     10  H   UNL     1       2.504   7.336  19.885  0.00  0.00    +0.000 HD
ENDROOT
BRANCH   1  12
ATOM     11  O   UNL     1       2.827   2.448  22.111  0.00  0.00    +0.000 OA
ATOM     12  C   UNL     1       1.988   3.067  21.472  0.00  0.00    +0.000 C 
BRANCH  12  13
ATOM     13  O   UNL     1       0.679   2.705  21.476  0.00  0.00    +0.000 OA
ATOM     14  H   UNL     1       0.417   2.306  20.628  0.00  0.00    +0.000 HD
ENDBRANCH  12  13
ENDBRANCH   1  12
BRANCH   6  15
ATOM     15  N   UNL     1       4.784   5.134  15.670  0.00  0.00    +0.000 N 
ATOM     16  H   UNL     1       4.254   5.003  14.810  0.00  0.00    +0.000 HD
BRANCH  15  17
ATOM     17  S   UNL     1       6.437   4.855  15.488  0.00  0.00    +0.000 S 
ATOM     18  O   UNL     1       6.638   3.423  15.521  0.00  0.00    +0.000 OA
ATOM     19  O   UNL     1       6.918   5.649  14.380  0.00  0.00    +0.000 OA
BRANCH  17  20
ATOM     20  C   UNL     1       7.155   5.505  16.962  0.00  0.00    +0.000 A 
ATOM     21  C   UNL     1       7.567   4.652  17.991  0.00  0.00    +0.000 A 
ATOM     22  C   UNL     1       8.176   5.190  19.126  0.00  0.00    +0.000 A 
ATOM     23  C   UNL     1       8.368   6.569  19.231  0.00  0.00    +0.000 A 
ATOM     24  C   UNL     1       7.934   7.413  18.205  0.00  0.00    +0.000 A 
ATOM     25 CL   UNL     1       8.218   9.106  18.331  0.00  0.00    +0.000 Cl
ATOM     26  C   UNL     1       7.315   6.881  17.075  0.00  0.00    +0.000 A 
ATOM     27  F   UNL     1       6.942   7.693  16.073  0.00  0.00    +0.000 F 
ENDBRANCH  17  20
ENDBRANCH  15  17
ENDBRANCH   6  15
TORSDOF 5
ENDMDL
MODEL 6
REMARK VINA RESULT:      -7.5      4.380      5.555
REMARK  Name = 
REMARK  5 active torsions:
REMARK  status: ('A' for Active; 'I' for Inactive)
REMARK    1  A    between atoms: C_2  and  O_3
REMARK    2  A    between atoms: C_2  and  C_4
REMARK    3  A    between atoms: C_9  and  N_10
REMARK    4  A    between atoms: N_10  and  S_11
REMARK    5  A    between atoms: S_11  and  C_14
REMARK                            x       y       z     vdW  Elec       q    Type
REMARK                         _______ _______ _______ _____ _____    ______ ____
ROOT
ATOM      1  C   UNL     1      -0.156  10.734  19.551  0.00  0.00    +0.000 A 
ATOM      2  C   UNL     1      -0.634  10.669  20.851  0.00  0.00    +0.000 A 
ATOM      3  N   UNL     1      -0.084   9.572  21.461  0.00  0.00    +0.000 N 
ATOM      4  C   UNL     1       0.772   8.929  20.598  0.00  0.00    +0.000 A 
ATOM      5  C   UNL     1       1.545   7.774  20.786  0.00  0.00    +0.000 A 
ATOM      6  C   UNL     1       2.352   7.353  19.724  0.00  0.00    +0.000 A 
ATOM      7  C   UNL     1       2.367   8.045  18.517  0.00  0.00    +0.000 A 
ATOM      8  C   UNL     1       1.559   9.175  18.334  0.00  0.00    +0.000 A 
ATOM      9  C   UNL     1       0.751   9.635  19.394  0.00  0.00    +0.000 A 
ATOM     10  H   UNL     1      -0.283   9.266  22.405  0.00  0.00    +0.000 HD
ENDROOT
BRANCH   1  12
ATOM     11  O   UNL     1      -0.189  12.886  18.566  0.00  0.00    +0.000 OA
ATOM     12  C   UNL     1      -0.524  11.710  18.534  0.00  0.00    +0.000 C 
BRANCH  12  13
ATOM     13  O   UNL     1      -1.300  11.216  17.535  0.00  0.00    +0.000 OA
ATOM     14  H   UNL     1      -0.808  11.156  16.697  0.00  0.00    +0.000 HD
ENDBRANCH  12  13
ENDBRANCH   1  12
BRANCH   6  15
ATOM     15  N   UNL     1       3.151   6.185  19.849  0.00  0.00    +0.000 N 
ATOM     16  H   UNL     1       4.067   6.273  20.289  0.00  0.00    +0.000 HD
BRANCH  15  17
ATOM     17  S   UNL     1       3.087   4.985  18.667  0.00  0.00    +0.000 S 
ATOM     18  O   UNL     1       3.256   3.713  19.335  0.00  0.00    +0.000 OA
ATOM     19  O   UNL     1       1.942   5.234  17.820  0.00  0.00    +0.000 OA
BRANCH  17  20
ATOM     20  C   UNL     1       4.536   5.249  17.697  0.00  0.00    +0.000 A 
ATOM     21  C   UNL     1       5.502   6.178  18.096  0.00  0.00    +0.000 A 
ATOM     22  C   UNL     1       6.662   6.333  17.335  0.00  0.00    +0.000 A 
ATOM     23  C   UNL     1       6.852   5.563  16.185  0.00  0.00    +0.000 A 
ATOM     24  C   UNL     1       5.872   4.652  15.786  0.00  0.00    +0.000 A 
ATOM     25 CL   UNL     1       6.142   3.682  14.391  0.00  0.00    +0.000 Cl
ATOM     26  C   UNL     1       4.706   4.504  16.537  0.00  0.00    +0.000 A 
ATOM     27  F   UNL     1       3.789   3.594  16.173  0.00  0.00    +0.000 F 
ENDBRANCH  17  20
ENDBRANCH  15  17
ENDBRANCH   6  15
TORSDOF 5
ENDMDL
MODEL 7
REMARK VINA RESULT:      -7.5      1.358      1.721
REMARK  Name = 
REMARK  5 active torsions:
REMARK  status: ('A' for Active; 'I' for Inactive)
REMARK    1  A    between atoms: C_2  and  O_3
REMARK    2  A    between atoms: C_2  and  C_4
REMARK    3  A    between atoms: C_9  and  N_10
REMARK    4  A    between atoms: N_10  and  S_11
REMARK    5  A    between atoms: S_11  and  C_14
REMARK                            x       y       z     vdW  Elec       q    Type
REMARK                         _______ _______ _______ _____ _____    ______ ____
ROOT
ATOM      1  C   UNL     1       2.748   2.943  20.446  0.00  0.00    +0.000 A 
ATOM      2  C   UNL     1       3.810   2.116  20.777  0.00  0.00    +0.000 A 
ATOM      3  N   UNL     1       4.860   2.407  19.946  0.00  0.00    +0.000 N 
ATOM      4  C   UNL     1       4.523   3.432  19.094  0.00  0.00    +0.000 A 
ATOM      5  C   UNL     1       5.272   4.050  18.084  0.00  0.00    +0.000 A 
ATOM      6  C   UNL     1       4.671   5.098  17.378  0.00  0.00    +0.000 A 
ATOM      7  C   UNL     1       3.366   5.494  17.657  0.00  0.00    +0.000 A 
ATOM      8  C   UNL     1       2.618   4.838  18.644  0.00  0.00    +0.000 A 
ATOM      9  C   UNL     1       3.206   3.792  19.385  0.00  0.00    +0.000 A 
ATOM     10  H   UNL     1       5.754   1.932  19.945  0.00  0.00    +0.000 HD
ENDROOT
BRANCH   1  12
ATOM     11  O   UNL     1       0.401   3.249  20.439  0.00  0.00    +0.000 OA
ATOM     12  C   UNL     1       1.418   2.936  21.041  0.00  0.00    +0.000 C 
BRANCH  12  13
ATOM     13  O   UNL     1       1.388   2.566  22.348  0.00  0.00    +0.000 OA
ATOM     14  H   UNL     1       0.556   2.834  22.775  0.00  0.00    +0.000 HD
ENDBRANCH  12  13
ENDBRANCH   1  12
BRANCH   6  15
ATOM     15  N   UNL     1       5.375   5.759  16.337  0.00  0.00    +0.000 N 
ATOM     16  H   UNL     1       4.864   6.003  15.489  0.00  0.00    +0.000 HD
BRANCH  15  17
ATOM     17  S   UNL     1       7.002   5.415  16.063  0.00  0.00    +0.000 S 
ATOM     18  O   UNL     1       7.742   6.642  16.260  0.00  0.00    +0.000 OA
ATOM     19  O   UNL     1       7.346   4.213  16.789  0.00  0.00    +0.000 OA
BRANCH  17  20
ATOM     20  C   UNL     1       7.086   5.040  14.341  0.00  0.00    +0.000 A 
ATOM     21  C   UNL     1       7.956   5.742  13.500  0.00  0.00    +0.000 A 
ATOM     22  C   UNL     1       8.037   5.393  12.151  0.00  0.00    +0.000 A 
ATOM     23  C   UNL     1       7.253   4.352  11.649  0.00  0.00    +0.000 A 
ATOM     24  C   UNL     1       6.373   3.672  12.494  0.00  0.00    +0.000 A 
ATOM     25 CL   UNL     1       5.445   2.364  11.868  0.00  0.00    +0.000 Cl
ATOM     26  C   UNL     1       6.280   4.025  13.840  0.00  0.00    +0.000 A 
ATOM     27  F   UNL     1       5.466   3.338  14.656  0.00  0.00    +0.000 F 
ENDBRANCH  17  20
ENDBRANCH  15  17
ENDBRANCH   6  15
TORSDOF 5
ENDMDL
MODEL 8
REMARK VINA RESULT:      -7.5      3.468      7.466
REMARK  Name = 
REMARK  5 active torsions:
REMARK  status: ('A' for Active; 'I' for Inactive)
REMARK    1  A    between atoms: C_2  and  O_3
REMARK    2  A    between atoms: C_2  and  C_4
REMARK    3  A    between atoms: C_9  and  N_10
REMARK    4  A    between atoms: N_10  and  S_11
REMARK    5  A    between atoms: S_11  and  C_14
REMARK                            x       y       z     vdW  Elec       q    Type
REMARK                         _______ _______ _______ _____ _____    ______ ____
ROOT
ATOM      1  C   UNL     1       6.269   3.638  12.497  0.00  0.00    +0.000 A 
ATOM      2  C   UNL     1       7.384   4.369  12.116  0.00  0.00    +0.000 A 
ATOM      3  N   UNL     1       7.733   5.196  13.151  0.00  0.00    +0.000 N 
ATOM      4  C   UNL     1       6.890   5.004  14.219  0.00  0.00    +0.000 A 
ATOM      5  C   UNL     1       6.866   5.625  15.475  0.00  0.00    +0.000 A 
ATOM      6  C   UNL     1       5.892   5.209  16.388  0.00  0.00    +0.000 A 
ATOM      7  C   UNL     1       4.965   4.228  16.049  0.00  0.00    +0.000 A 
ATOM      8  C   UNL     1       4.979   3.646  14.775  0.00  0.00    +0.000 A 
ATOM      9  C   UNL     1       5.963   4.031  13.841  0.00  0.00    +0.000 A 
ATOM     10  H   UNL     1       8.494   5.864  13.134  0.00  0.00    +0.000 HD
ENDROOT
BRANCH   1  12
ATOM     11  O   UNL     1       6.002   1.619  11.291  0.00  0.00    +0.000 OA
ATOM     12  C   UNL     1       5.534   2.678  11.683  0.00  0.00    +0.000 C 
BRANCH  12  13
ATOM     13  O   UNL     1       4.271   3.062  11.365  0.00  0.00    +0.000 OA
ATOM     14  H   UNL     1       4.164   3.178  10.405  0.00  0.00    +0.000 HD
ENDBRANCH  12  13
ENDBRANCH   1  12
BRANCH   6  15
ATOM     15  N   UNL     1       5.811   5.806  17.675  0.00  0.00    +0.000 N 
ATOM     16  H   UNL     1       6.289   6.694  17.824  0.00  0.00    +0.000 HD
BRANCH  15  17
ATOM     17  S   UNL     1       5.744   4.839  19.054  0.00  0.00    +0.000 S 
ATOM     18  O   UNL     1       5.879   3.465  18.623  0.00  0.00    +0.000 OA
ATOM     19  O   UNL     1       6.629   5.397  20.051  0.00  0.00    +0.000 OA
BRANCH  17  20
ATOM     20  C   UNL     1       4.091   5.029  19.641  0.00  0.00    +0.000 A 
ATOM     21  C   UNL     1       3.392   6.222  19.430  0.00  0.00    +0.000 A 
ATOM     22  C   UNL     1       2.069   6.329  19.864  0.00  0.00    +0.000 A 
ATOM     23  C   UNL     1       1.453   5.251  20.502  0.00  0.00    +0.000 A 
ATOM     24  C   UNL     1       2.168   4.071  20.724  0.00  0.00    +0.000 A 
ATOM     25 CL   UNL     1       1.380   2.738  21.475  0.00  0.00    +0.000 Cl
ATOM     26  C   UNL     1       3.493   3.965  20.304  0.00  0.00    +0.000 A 
ATOM     27  F   UNL     1       4.160   2.813  20.480  0.00  0.00    +0.000 F 
ENDBRANCH  17  20
ENDBRANCH  15  17
ENDBRANCH   6  15
TORSDOF 5
ENDMDL
MODEL 9
REMARK VINA RESULT:      -7.4      4.032      5.162
REMARK  Name = 
REMARK  5 active torsions:
REMARK  status: ('A' for Active; 'I' for Inactive)
REMARK    1  A    between atoms: C_2  and  O_3
REMARK    2  A    between atoms: C_2  and  C_4
REMARK    3  A    between atoms: C_9  and  N_10
REMARK    4  A    between atoms: N_10  and  S_11
REMARK    5  A    between atoms: S_11  and  C_14
REMARK                            x       y       z     vdW  Elec       q    Type
REMARK                         _______ _______ _______ _____ _____    ______ ____
ROOT
ATOM      1  C   UNL     1       1.299   9.396  19.467  0.00  0.00    +0.000 A 
ATOM      2  C   UNL     1       1.728   9.704  18.185  0.00  0.00    +0.000 A 
ATOM      3  N   UNL     1       2.314   8.589  17.645  0.00  0.00    +0.000 N 
ATOM      4  C   UNL     1       2.252   7.542  18.534  0.00  0.00    +0.000 A 
ATOM      5  C   UNL     1       2.721   6.227  18.414  0.00  0.00    +0.000 A 
ATOM      6  C   UNL     1       2.498   5.357  19.486  0.00  0.00    +0.000 A 
ATOM      7  C   UNL     1       1.853   5.793  20.640  0.00  0.00    +0.000 A 
ATOM      8  C   UNL     1       1.427   7.122  20.758  0.00  0.00    +0.000 A 
ATOM      9  C   UNL     1       1.619   8.016  19.684  0.00  0.00    +0.000 A 
ATOM     10  H   UNL     1       2.742   8.539  16.729  0.00  0.00    +0.000 HD
ENDROOT
BRANCH   1  12
ATOM     11  O   UNL     1       1.187  10.647  21.474  0.00  0.00    +0.000 OA
ATOM     12  C   UNL     1       0.672  10.304  20.419  0.00  0.00    +0.000 C 
BRANCH  12  13
ATOM     13  O   UNL     1      -0.563  10.736  20.053  0.00  0.00    +0.000 OA
ATOM     14  H   UNL     1      -0.513  11.551  19.524  0.00  0.00    +0.000 HD
ENDBRANCH  12  13
ENDBRANCH   1  12
BRANCH   6  15
ATOM     15  N   UNL     1       2.957   4.014  19.429  0.00  0.00    +0.000 N 
ATOM     16  H   UNL     1       3.581   3.686  20.166  0.00  0.00    +0.000 HD
BRANCH  15  17
ATOM     17  S   UNL     1       3.233   3.276  17.939  0.00  0.00    +0.000 S 
ATOM     18  O   UNL     1       3.569   1.893  18.198  0.00  0.00    +0.000 OA
ATOM     19  O   UNL     1       2.151   3.624  17.046  0.00  0.00    +0.000 OA
BRANCH  17  20
ATOM     20  C   UNL     1       4.697   4.051  17.332  0.00  0.00    +0.000 A 
ATOM     21  C   UNL     1       4.838   4.343  15.971  0.00  0.00    +0.000 A 
ATOM     22  C   UNL     1       5.987   5.000  15.526  0.00  0.00    +0.000 A 
ATOM     23  C   UNL     1       6.984   5.360  16.434  0.00  0.00    +0.000 A 
ATOM     24  C   UNL     1       6.840   5.046  17.787  0.00  0.00    +0.000 A 
ATOM     25 CL   UNL     1       8.060   5.535  18.899  0.00  0.00    +0.000 Cl
ATOM     26  C   UNL     1       5.701   4.379  18.235  0.00  0.00    +0.000 A 
ATOM     27  F   UNL     1       5.548   4.121  19.543  0.00  0.00    +0.000 F 
ENDBRANCH  17  20
ENDBRANCH  15  17
ENDBRANCH   6  15
TORSDOF 5
ENDMDL
