MODEL 1
REMARK VINA RESULT:      -7.6      0.000      0.000
REMARK  Name = 
REMARK  1 active torsions:
REMARK  status: ('A' for Active; 'I' for Inactive)
REMARK    1  A    between atoms: C_2  and  C_13
REMARK                            x       y       z     vdW  Elec       q    Type
REMARK                         _______ _______ _______ _____ _____    ______ ____
ROOT
ATOM      1  O   UNL     1       3.400   3.638  17.190  0.00  0.00    +0.000 OA
ATOM      2  C   UNL     1       4.324   3.866  17.964  0.00  0.00    +0.000 C 
ATOM      3  N   UNL     1       5.633   4.042  17.567  0.00  0.00    +0.000 N 
ATOM      4  C   UNL     1       5.995   4.201  16.257  0.00  0.00    +0.000 A 
ATOM      5  N   UNL     1       6.988   4.978  15.900  0.00  0.00    +0.000 NA
ATOM      6  C   UNL     1       7.063   4.862  14.538  0.00  0.00    +0.000 A 
ATOM      7  C   UNL     1       7.899   5.531  13.637  0.00  0.00    +0.000 A 
ATOM      8  C   UNL     1       7.866   5.156  12.291  0.00  0.00    +0.000 A 
ATOM      9  C   UNL     1       7.014   4.138  11.856  0.00  0.00    +0.000 A 
ATOM     10  C   UNL     1       6.127   3.499  12.735  0.00  0.00    +0.000 A 
ATOM     11  C   UNL     1       6.162   3.909  14.070  0.00  0.00    +0.000 A 
ATOM     12  N   UNL     1       5.431   3.564  15.183  0.00  0.00    +0.000 N 
ATOM     13  H   UNL     1       6.302   4.459  18.191  0.00  0.00    +0.000 HD
ATOM     14  H   UNL     1       4.658   2.916  15.233  0.00  0.00    +0.000 HD
ENDROOT
BRANCH   2  15
ATOM     15  C   UNL     1       4.146   3.901  19.500  0.00  0.00    +0.000 C 
ATOM     16  C   UNL     1       3.271   5.052  20.028  0.00  0.00    +0.000 C 
ATOM     17  C   UNL     1       1.815   4.887  19.605  0.00  0.00    +0.000 C 
ATOM     18  C   UNL     1       1.244   3.579  20.137  0.00  0.00    +0.000 C 
ATOM     19  C   UNL     1       2.106   2.371  19.776  0.00  0.00    +0.000 C 
ATOM     20  C   UNL     1       3.598   2.577  20.059  0.00  0.00    +0.000 C 
ENDBRANCH   2  15
TORSDOF 1
ENDMDL
MODEL 2
REMARK VINA RESULT:      -7.5      5.489      9.016
REMARK  Name = 
REMARK  1 active torsions:
REMARK  status: ('A' for Active; 'I' for Inactive)
REMARK    1  A    between atoms: C_2  and  C_13
REMARK                            x       y       z     vdW  Elec       q    Type
REMARK                         _______ _______ _______ _____ _____    ______ ____
ROOT
ATOM      1  O   UNL     1       1.933   7.718  18.633  0.00  0.00    +0.000 OA
ATOM      2  C   UNL     1       2.262   7.100  19.641  0.00  0.00    +0.000 C 
ATOM      3  N   UNL     1       2.052   7.558  20.925  0.00  0.00    +0.000 N 
ATOM      4  C   UNL     1       1.263   8.638  21.207  0.00  0.00    +0.000 A 
ATOM      5  N   UNL     1       0.535   8.702  22.294  0.00  0.00    +0.000 NA
ATOM      6  C   UNL     1      -0.086   9.921  22.241  0.00  0.00    +0.000 A 
ATOM      7  C   UNL     1      -1.032  10.473  23.113  0.00  0.00    +0.000 A 
ATOM      8  C   UNL     1      -1.439  11.794  22.907  0.00  0.00    +0.000 A 
ATOM      9  C   UNL     1      -0.916  12.544  21.851  0.00  0.00    +0.000 A 
ATOM     10  C   UNL     1      -0.013  11.987  20.933  0.00  0.00    +0.000 A 
ATOM     11  C   UNL     1       0.360  10.658  21.147  0.00  0.00    +0.000 A 
ATOM     12  N   UNL     1       1.158   9.779  20.454  0.00  0.00    +0.000 N 
ATOM     13  H   UNL     1       2.113   6.927  21.706  0.00  0.00    +0.000 HD
ATOM     14  H   UNL     1       1.639   9.943  19.580  0.00  0.00    +0.000 HD
ENDROOT
BRANCH   2  15
ATOM     15  C   UNL     1       3.031   5.759  19.592  0.00  0.00    +0.000 C 
ATOM     16  C   UNL     1       2.552   4.698  20.598  0.00  0.00    +0.000 C 
ATOM     17  C   UNL     1       1.150   4.201  20.263  0.00  0.00    +0.000 C 
ATOM     18  C   UNL     1       1.117   3.581  18.872  0.00  0.00    +0.000 C 
ATOM     19  C   UNL     1       1.689   4.508  17.801  0.00  0.00    +0.000 C 
ATOM     20  C   UNL     1       3.033   5.133  18.188  0.00  0.00    +0.000 C 
ENDBRANCH   2  15
TORSDOF 1
ENDMDL
MODEL 3
REMARK VINA RESULT:      -7.2      4.766      7.579
REMARK  Name = 
REMARK  1 active torsions:
REMARK  status: ('A' for Active; 'I' for Inactive)
REMARK    1  A    between atoms: C_2  and  C_13
REMARK                            x       y       z     vdW  Elec       q    Type
REMARK                         _______ _______ _______ _____ _____    ______ ____
ROOT
ATOM      1  O   UNL     1       2.425   5.980  18.108  0.00  0.00    +0.000 OA
ATOM      2  C   UNL     1       2.624   5.687  19.282  0.00  0.00    +0.000 C 
ATOM      3  N   UNL     1       2.415   6.552  20.336  0.00  0.00    +0.000 N 
ATOM      4  C   UNL     1       1.760   7.744  20.198  0.00  0.00    +0.000 A 
ATOM      5  N   UNL     1       0.996   8.231  21.145  0.00  0.00    +0.000 NA
ATOM      6  C   UNL     1       0.541   9.428  20.660  0.00  0.00    +0.000 A 
ATOM      7  C   UNL     1      -0.365  10.329  21.232  0.00  0.00    +0.000 A 
ATOM      8  C   UNL     1      -0.589  11.550  20.589  0.00  0.00    +0.000 A 
ATOM      9  C   UNL     1       0.075  11.861  19.400  0.00  0.00    +0.000 A 
ATOM     10  C   UNL     1       0.941  10.944  18.782  0.00  0.00    +0.000 A 
ATOM     11  C   UNL     1       1.129   9.723  19.432  0.00  0.00    +0.000 A 
ATOM     12  N   UNL     1       1.838   8.587  19.120  0.00  0.00    +0.000 N 
ATOM     13  H   UNL     1       2.358   6.202  21.278  0.00  0.00    +0.000 HD
ATOM     14  H   UNL     1       2.377   8.410  18.283  0.00  0.00    +0.000 HD
ENDROOT
BRANCH   2  15
ATOM     15  C   UNL     1       3.215   4.327  19.722  0.00  0.00    +0.000 C 
ATOM     16  C   UNL     1       2.406   3.583  20.799  0.00  0.00    +0.000 C 
ATOM     17  C   UNL     1       1.058   3.115  20.263  0.00  0.00    +0.000 C 
ATOM     18  C   UNL     1       1.246   2.173  19.080  0.00  0.00    +0.000 C 
ATOM     19  C   UNL     1       2.142   2.764  17.994  0.00  0.00    +0.000 C 
ATOM     20  C   UNL     1       3.440   3.373  18.536  0.00  0.00    +0.000 C 
ENDBRANCH   2  15
TORSDOF 1
ENDMDL
MODEL 4
REMARK VINA RESULT:      -7.2      6.854      8.813
REMARK  Name = 
REMARK  1 active torsions:
REMARK  status: ('A' for Active; 'I' for Inactive)
REMARK    1  A    between atoms: C_2  and  C_13
REMARK                            x       y       z     vdW  Elec       q    Type
REMARK                         _______ _______ _______ _____ _____    ______ ____
ROOT
ATOM      1  O   UNL     1       9.050  10.471  20.352  0.00  0.00    +0.000 OA
ATOM      2  C   UNL     1       9.020  10.983  19.238  0.00  0.00    +0.000 C 
ATOM      3  N   UNL     1       8.751  10.284  18.079  0.00  0.00    +0.000 N 
ATOM      4  C   UNL     1       8.277   9.002  18.080  0.00  0.00    +0.000 A 
ATOM      5  N   UNL     1       7.436   8.571  17.172  0.00  0.00    +0.000 NA
ATOM      6  C   UNL     1       7.215   7.256  17.481  0.00  0.00    +0.000 A 
ATOM      7  C   UNL     1       6.345   6.339  16.880  0.00  0.00    +0.000 A 
ATOM      8  C   UNL     1       6.379   5.008  17.308  0.00  0.00    +0.000 A 
ATOM      9  C   UNL     1       7.259   4.605  18.315  0.00  0.00    +0.000 A 
ATOM     10  C   UNL     1       8.094   5.524  18.969  0.00  0.00    +0.000 A 
ATOM     11  C   UNL     1       8.024   6.852  18.540  0.00  0.00    +0.000 A 
ATOM     12  N   UNL     1       8.631   8.012  18.960  0.00  0.00    +0.000 N 
ATOM     13  H   UNL     1       8.500  10.774  17.237  0.00  0.00    +0.000 HD
ATOM     14  H   UNL     1       9.272   8.125  19.733  0.00  0.00    +0.000 HD
ENDROOT
BRANCH   2  15
ATOM     15  C   UNL     1       9.362  12.470  18.985  0.00  0.00    +0.000 C 
ATOM     16  C   UNL     1      10.175  13.150  20.100  0.00  0.00    +0.000 C 
ATOM     17  C   UNL     1      11.584  12.575  20.195  0.00  0.00    +0.000 C 
ATOM     18  C   UNL     1      12.333  12.766  18.882  0.00  0.00    +0.000 C 
ATOM     19  C   UNL     1      11.556  12.235  17.679  0.00  0.00    +0.000 C 
ATOM     20  C   UNL     1      10.092  12.686  17.648  0.00  0.00    +0.000 C 
ENDBRANCH   2  15
TORSDOF 1
ENDMDL
MODEL 5
REMARK VINA RESULT:      -7.1      6.046      7.314
REMARK  Name = 
REMARK  1 active torsions:
REMARK  status: ('A' for Active; 'I' for Inactive)
REMARK    1  A    between atoms: C_2  and  C_13
REMARK                            x       y       z     vdW  Elec       q    Type
REMARK                         _______ _______ _______ _____ _____    ______ ____
ROOT
ATOM      1  O   UNL     1       8.225   6.590  18.907  0.00  0.00    +0.000 OA
ATOM      2  C   UNL     1       7.668   6.991  17.890  0.00  0.00    +0.000 C 
ATOM      3  N   UNL     1       7.640   8.313  17.500  0.00  0.00    +0.000 N 
ATOM      4  C   UNL     1       8.415   9.275  18.086  0.00  0.00    +0.000 A 
ATOM      5  N   UNL     1       8.912  10.278  17.405  0.00  0.00    +0.000 NA
ATOM      6  C   UNL     1       9.596  11.031  18.320  0.00  0.00    +0.000 A 
ATOM      7  C   UNL     1      10.377  12.176  18.120  0.00  0.00    +0.000 A 
ATOM      8  C   UNL     1      10.889  12.839  19.239  0.00  0.00    +0.000 A 
ATOM      9  C   UNL     1      10.631  12.365  20.528  0.00  0.00    +0.000 A 
ATOM     10  C   UNL     1       9.901  11.186  20.743  0.00  0.00    +0.000 A 
ATOM     11  C   UNL     1       9.421  10.529  19.607  0.00  0.00    +0.000 A 
ATOM     12  N   UNL     1       8.731   9.355  19.417  0.00  0.00    +0.000 N 
ATOM     13  H   UNL     1       7.389   8.560  16.557  0.00  0.00    +0.000 HD
ATOM     14  H   UNL     1       8.444   8.690  20.122  0.00  0.00    +0.000 HD
ENDROOT
BRANCH   2  15
ATOM     15  C   UNL     1       6.851   6.065  16.958  0.00  0.00    +0.000 C 
ATOM     16  C   UNL     1       6.533   4.675  17.536  0.00  0.00    +0.000 C 
ATOM     17  C   UNL     1       5.570   4.766  18.714  0.00  0.00    +0.000 C 
ATOM     18  C   UNL     1       4.257   5.411  18.288  0.00  0.00    +0.000 C 
ATOM     19  C   UNL     1       4.461   6.751  17.585  0.00  0.00    +0.000 C 
ATOM     20  C   UNL     1       5.535   6.712  16.493  0.00  0.00    +0.000 C 
ENDBRANCH   2  15
TORSDOF 1
ENDMDL
MODEL 6
REMARK VINA RESULT:      -7.1      6.403      8.304
REMARK  Name = 
REMARK  1 active torsions:
REMARK  status: ('A' for Active; 'I' for Inactive)
REMARK    1  A    between atoms: C_2  and  C_13
REMARK                            x       y       z     vdW  Elec       q    Type
REMARK                         _______ _______ _______ _____ _____    ______ ____
ROOT
ATOM      1  O   UNL     1       9.245   9.695  19.738  0.00  0.00    +0.000 OA
ATOM      2  C   UNL     1       8.992  10.308  18.707  0.00  0.00    +0.000 C 
ATOM      3  N   UNL     1       8.362   9.750  17.615  0.00  0.00    +0.000 N 
ATOM      4  C   UNL     1       7.761   8.522  17.654  0.00  0.00    +0.000 A 
ATOM      5  N   UNL     1       6.675   8.258  16.971  0.00  0.00    +0.000 NA
ATOM      6  C   UNL     1       6.390   6.947  17.239  0.00  0.00    +0.000 A 
ATOM      7  C   UNL     1       5.298   6.174  16.826  0.00  0.00    +0.000 A 
ATOM      8  C   UNL     1       5.287   4.812  17.141  0.00  0.00    +0.000 A 
ATOM      9  C   UNL     1       6.341   4.237  17.855  0.00  0.00    +0.000 A 
ATOM     10  C   UNL     1       7.413   5.009  18.328  0.00  0.00    +0.000 A 
ATOM     11  C   UNL     1       7.389   6.371  18.021  0.00  0.00    +0.000 A 
ATOM     12  N   UNL     1       8.210   7.426  18.344  0.00  0.00    +0.000 N 
ATOM     13  H   UNL     1       7.965  10.337  16.901  0.00  0.00    +0.000 HD
ATOM     14  H   UNL     1       9.034   7.406  18.929  0.00  0.00    +0.000 HD
ENDROOT
BRANCH   2  15
ATOM     15  C   UNL     1       9.427  11.775  18.472  0.00  0.00    +0.000 C 
ATOM     16  C   UNL     1       9.520  12.637  19.743  0.00  0.00    +0.000 C 
ATOM     17  C   UNL     1      10.655  12.175  20.650  0.00  0.00    +0.000 C 
ATOM     18  C   UNL     1      11.993  12.259  19.925  0.00  0.00    +0.000 C 
ATOM     19  C   UNL     1      11.978  11.536  18.580  0.00  0.00    +0.000 C 
ATOM     20  C   UNL     1      10.761  11.878  17.714  0.00  0.00    +0.000 C 
ENDBRANCH   2  15
TORSDOF 1
ENDMDL
MODEL 7
REMARK VINA RESULT:      -6.9      3.256      3.911
REMARK  Name = 
REMARK  1 active torsions:
REMARK  status: ('A' for Active; 'I' for Inactive)
REMARK    1  A    between atoms: C_2  and  C_13
REMARK                            x       y       z     vdW  Elec       q    Type
REMARK                         _______ _______ _______ _____ _____    ______ ____
ROOT
ATOM      1  O   UNL     1       2.499   4.719  17.800  0.00  0.00    +0.000 OA
ATOM      2  C   UNL     1       3.047   3.721  18.257  0.00  0.00    +0.000 C 
ATOM      3  N   UNL     1       4.409   3.610  18.445  0.00  0.00    +0.000 N 
ATOM      4  C   UNL     1       5.260   4.675  18.346  0.00  0.00    +0.000 A 
ATOM      5  N   UNL     1       6.324   4.787  19.102  0.00  0.00    +0.000 NA
ATOM      6  C   UNL     1       6.929   5.949  18.704  0.00  0.00    +0.000 A 
ATOM      7  C   UNL     1       8.062   6.583  19.227  0.00  0.00    +0.000 A 
ATOM      8  C   UNL     1       8.557   7.713  18.571  0.00  0.00    +0.000 A 
ATOM      9  C   UNL     1       7.930   8.201  17.421  0.00  0.00    +0.000 A 
ATOM     10  C   UNL     1       6.759   7.614  16.919  0.00  0.00    +0.000 A 
ATOM     11  C   UNL     1       6.272   6.500  17.606  0.00  0.00    +0.000 A 
ATOM     12  N   UNL     1       5.156   5.710  17.453  0.00  0.00    +0.000 N 
ATOM     13  H   UNL     1       4.784   2.887  19.035  0.00  0.00    +0.000 HD
ATOM     14  H   UNL     1       4.416   5.817  16.773  0.00  0.00    +0.000 HD
ENDROOT
BRANCH   2  15
ATOM     15  C   UNL     1       2.278   2.425  18.607  0.00  0.00    +0.000 C 
ATOM     16  C   UNL     1       2.868   1.613  19.774  0.00  0.00    +0.000 C 
ATOM     17  C   UNL     1       2.731   2.357  21.098  0.00  0.00    +0.000 C 
ATOM     18  C   UNL     1       1.267   2.636  21.411  0.00  0.00    +0.000 C 
ATOM     19  C   UNL     1       0.543   3.335  20.262  0.00  0.00    +0.000 C 
ATOM     20  C   UNL     1       0.790   2.684  18.897  0.00  0.00    +0.000 C 
ENDBRANCH   2  15
TORSDOF 1
ENDMDL
MODEL 8
REMARK VINA RESULT:      -6.9      4.245      8.023
REMARK  Name = 
REMARK  1 active torsions:
REMARK  status: ('A' for Active; 'I' for Inactive)
REMARK    1  A    between atoms: C_2  and  C_13
REMARK                            x       y       z     vdW  Elec       q    Type
REMARK                         _______ _______ _______ _____ _____    ______ ____
ROOT
ATOM      1  O   UNL     1       3.982   5.777  19.745  0.00  0.00    +0.000 OA
ATOM      2  C   UNL     1       3.663   6.047  18.592  0.00  0.00    +0.000 C 
ATOM      3  N   UNL     1       2.659   6.932  18.260  0.00  0.00    +0.000 N 
ATOM      4  C   UNL     1       2.070   7.761  19.174  0.00  0.00    +0.000 A 
ATOM      5  N   UNL     1       1.665   8.967  18.859  0.00  0.00    +0.000 NA
ATOM      6  C   UNL     1       1.115   9.473  20.005  0.00  0.00    +0.000 A 
ATOM      7  C   UNL     1       0.595  10.749  20.251  0.00  0.00    +0.000 A 
ATOM      8  C   UNL     1      -0.019  10.995  21.482  0.00  0.00    +0.000 A 
ATOM      9  C   UNL     1      -0.107   9.989  22.447  0.00  0.00    +0.000 A 
ATOM     10  C   UNL     1       0.462   8.723  22.241  0.00  0.00    +0.000 A 
ATOM     11  C   UNL     1       1.091   8.510  21.012  0.00  0.00    +0.000 A 
ATOM     12  N   UNL     1       1.786   7.451  20.478  0.00  0.00    +0.000 N 
ATOM     13  H   UNL     1       2.593   7.301  17.326  0.00  0.00    +0.000 HD
ATOM     14  H   UNL     1       2.006   6.572  20.926  0.00  0.00    +0.000 HD
ENDROOT
BRANCH   2  15
ATOM     15  C   UNL     1       4.297   5.359  17.359  0.00  0.00    +0.000 C 
ATOM     16  C   UNL     1       4.974   6.312  16.359  0.00  0.00    +0.000 C 
ATOM     17  C   UNL     1       6.216   6.961  16.957  0.00  0.00    +0.000 C 
ATOM     18  C   UNL     1       7.235   5.904  17.363  0.00  0.00    +0.000 C 
ATOM     19  C   UNL     1       6.636   4.827  18.266  0.00  0.00    +0.000 C 
ATOM     20  C   UNL     1       5.307   4.266  17.751  0.00  0.00    +0.000 C 
ENDBRANCH   2  15
TORSDOF 1
ENDMDL
MODEL 9
REMARK VINA RESULT:      -6.9      1.492      2.468
REMARK  Name = 
REMARK  1 active torsions:
REMARK  status: ('A' for Active; 'I' for Inactive)
REMARK    1  A    between atoms: C_2  and  C_13
REMARK                            x       y       z     vdW  Elec       q    Type
REMARK                         _______ _______ _______ _____ _____    ______ ____
ROOT
ATOM      1  O   UNL     1       5.204   2.584  19.953  0.00  0.00    +0.000 OA
ATOM      2  C   UNL     1       4.037   2.711  19.594  0.00  0.00    +0.000 C 
ATOM      3  N   UNL     1       3.657   3.329  18.422  0.00  0.00    +0.000 N 
ATOM      4  C   UNL     1       4.546   3.664  17.438  0.00  0.00    +0.000 A 
ATOM      5  N   UNL     1       4.229   3.612  16.168  0.00  0.00    +0.000 NA
ATOM      6  C   UNL     1       5.346   4.036  15.501  0.00  0.00    +0.000 A 
ATOM      7  C   UNL     1       5.582   4.108  14.123  0.00  0.00    +0.000 A 
ATOM      8  C   UNL     1       6.774   4.687  13.678  0.00  0.00    +0.000 A 
ATOM      9  C   UNL     1       7.710   5.180  14.591  0.00  0.00    +0.000 A 
ATOM     10  C   UNL     1       7.516   5.062  15.976  0.00  0.00    +0.000 A 
ATOM     11  C   UNL     1       6.328   4.458  16.394  0.00  0.00    +0.000 A 
ATOM     12  N   UNL     1       5.821   4.127  17.629  0.00  0.00    +0.000 N 
ATOM     13  H   UNL     1       2.728   3.198  18.056  0.00  0.00    +0.000 HD
ATOM     14  H   UNL     1       6.265   4.252  18.528  0.00  0.00    +0.000 HD
ENDROOT
BRANCH   2  15
ATOM     15  C   UNL     1       2.837   2.263  20.462  0.00  0.00    +0.000 C 
ATOM     16  C   UNL     1       2.538   3.163  21.674  0.00  0.00    +0.000 C 
ATOM     17  C   UNL     1       2.042   4.538  21.240  0.00  0.00    +0.000 C 
ATOM     18  C   UNL     1       0.765   4.416  20.418  0.00  0.00    +0.000 C 
ATOM     19  C   UNL     1       0.910   3.444  19.249  0.00  0.00    +0.000 C 
ATOM     20  C   UNL     1       1.545   2.106  19.641  0.00  0.00    +0.000 C 
ENDBRANCH   2  15
TORSDOF 1
ENDMDL
