MODEL 1
REMARK VINA RESULT:      -6.9      0.000      0.000
REMARK  Name = 
REMARK  2 active torsions:
REMARK  status: ('A' for Active; 'I' for Inactive)
REMARK    1  A    between atoms: C_4  and  N_5
REMARK    2  A    between atoms: N_8  and  C_9
REMARK                            x       y       z     vdW  Elec       q    Type
REMARK                         _______ _______ _______ _____ _____    ______ ____
ROOT
ATOM      1  N   UNL     1       1.328   9.880  18.928  0.00  0.00    +0.000 N 
ATOM      2  C   UNL     1       1.710   8.996  17.792  0.00  0.00    +0.000 C 
ATOM      3  C   UNL     1       2.677   7.878  18.241  0.00  0.00    +0.000 C 
ATOM      4  N   UNL     1       2.137   7.121  19.397  0.00  0.00    +0.000 N 
ATOM      5  C   UNL     1       1.788   8.017  20.521  0.00  0.00    +0.000 C 
ATOM      6  C   UNL     1       0.779   9.089  20.062  0.00  0.00    +0.000 C 
ENDROOT
BRANCH   1  10
ATOM      7  O   UNL     1       2.953  14.272  18.024  0.00  0.00    +0.000 OA
ATOM      8  C   UNL     1       1.995  13.571  18.343  0.00  0.00    +0.000 C 
ATOM      9  C   UNL     1       2.173  12.104  18.462  0.00  0.00    +0.000 C 
ATOM     10  C   UNL     1       1.176  11.272  18.814  0.00  0.00    +0.000 C 
ATOM     11  C   UNL     1      -0.219  11.836  19.052  0.00  0.00    +0.000 C 
ATOM     12  C   UNL     1      -0.456  13.180  18.369  0.00  0.00    +0.000 C 
ATOM     13  C   UNL     1       0.654  14.162  18.692  0.00  0.00    +0.000 C 
ENDBRANCH   1  10
BRANCH   4  14
ATOM     14  C   UNL     1       2.029   5.727  19.451  0.00  0.00    +0.000 C 
ATOM     15  C   UNL     1       1.780   5.052  20.590  0.00  0.00    +0.000 C 
ATOM     16  C   UNL     1       1.672   3.576  20.634  0.00  0.00    +0.000 C 
ATOM     17  O   UNL     1       1.451   3.020  21.710  0.00  0.00    +0.000 OA
ATOM     18  C   UNL     1       1.913   2.799  19.367  0.00  0.00    +0.000 C 
ATOM     19  C   UNL     1       1.478   3.606  18.158  0.00  0.00    +0.000 C 
ATOM     20  C   UNL     1       2.155   4.973  18.136  0.00  0.00    +0.000 C 
ENDBRANCH   4  14
TORSDOF 2
ENDMDL
MODEL 2
REMARK VINA RESULT:      -6.8      1.043      1.523
REMARK  Name = 
REMARK  2 active torsions:
REMARK  status: ('A' for Active; 'I' for Inactive)
REMARK    1  A    between atoms: C_4  and  N_5
REMARK    2  A    between atoms: N_8  and  C_9
REMARK                            x       y       z     vdW  Elec       q    Type
REMARK                         _______ _______ _______ _____ _____    ______ ____
ROOT
ATOM      1  N   UNL     1       1.363   9.948  18.880  0.00  0.00    +0.000 N 
ATOM      2  C   UNL     1       1.752   9.089  17.728  0.00  0.00    +0.000 C 
ATOM      3  C   UNL     1       2.703   7.951  18.161  0.00  0.00    +0.000 C 
ATOM      4  N   UNL     1       2.142   7.172  19.291  0.00  0.00    +0.000 N 
ATOM      5  C   UNL     1       1.786   8.042  20.433  0.00  0.00    +0.000 C 
ATOM      6  C   UNL     1       0.793   9.134  19.987  0.00  0.00    +0.000 C 
ENDROOT
BRANCH   1  10
ATOM      7  O   UNL     1       3.015  14.340  18.027  0.00  0.00    +0.000 OA
ATOM      8  C   UNL     1       2.057  13.643  18.356  0.00  0.00    +0.000 C 
ATOM      9  C   UNL     1       2.221  12.172  18.439  0.00  0.00    +0.000 C 
ATOM     10  C   UNL     1       1.224  11.344  18.799  0.00  0.00    +0.000 C 
ATOM     11  C   UNL     1      -0.159  11.918  19.082  0.00  0.00    +0.000 C 
ATOM     12  C   UNL     1      -0.396  13.279  18.434  0.00  0.00    +0.000 C 
ATOM     13  C   UNL     1       0.732  14.241  18.749  0.00  0.00    +0.000 C 
ENDBRANCH   1  10
BRANCH   4  14
ATOM     14  C   UNL     1       2.022   5.778  19.310  0.00  0.00    +0.000 C 
ATOM     15  C   UNL     1       2.168   5.011  18.211  0.00  0.00    +0.000 C 
ATOM     16  C   UNL     1       2.035   3.537  18.244  0.00  0.00    +0.000 C 
ATOM     17  O   UNL     1       2.171   2.897  17.203  0.00  0.00    +0.000 OA
ATOM     18  C   UNL     1       1.659   2.878  19.546  0.00  0.00    +0.000 C 
ATOM     19  C   UNL     1       2.209   3.667  20.719  0.00  0.00    +0.000 C 
ATOM     20  C   UNL     1       1.763   5.125  20.659  0.00  0.00    +0.000 C 
ENDBRANCH   4  14
TORSDOF 2
ENDMDL
MODEL 3
REMARK VINA RESULT:      -6.7      1.088      1.518
REMARK  Name = 
REMARK  2 active torsions:
REMARK  status: ('A' for Active; 'I' for Inactive)
REMARK    1  A    between atoms: C_4  and  N_5
REMARK    2  A    between atoms: N_8  and  C_9
REMARK                            x       y       z     vdW  Elec       q    Type
REMARK                         _______ _______ _______ _____ _____    ______ ____
ROOT
ATOM      1  N   UNL     1       1.383   9.545  19.102  0.00  0.00    +0.000 N 
ATOM      2  C   UNL     1       1.734   8.629  17.982  0.00  0.00    +0.000 C 
ATOM      3  C   UNL     1       2.693   7.508  18.442  0.00  0.00    +0.000 C 
ATOM      4  N   UNL     1       2.163   6.788  19.625  0.00  0.00    +0.000 N 
ATOM      5  C   UNL     1       1.846   7.716  20.733  0.00  0.00    +0.000 C 
ATOM      6  C   UNL     1       0.844   8.790  20.264  0.00  0.00    +0.000 C 
ENDROOT
BRANCH   1  10
ATOM      7  O   UNL     1      -0.716  13.729  20.016  0.00  0.00    +0.000 OA
ATOM      8  C   UNL     1       0.176  13.131  19.419  0.00  0.00    +0.000 C 
ATOM      9  C   UNL     1       0.303  11.663  19.582  0.00  0.00    +0.000 C 
ATOM     10  C   UNL     1       1.247  10.936  18.956  0.00  0.00    +0.000 C 
ATOM     11  C   UNL     1       2.276  11.642  18.081  0.00  0.00    +0.000 C 
ATOM     12  C   UNL     1       2.446  13.121  18.416  0.00  0.00    +0.000 C 
ATOM     13  C   UNL     1       1.106  13.830  18.463  0.00  0.00    +0.000 C 
ENDBRANCH   1  10
BRANCH   4  14
ATOM     14  C   UNL     1       2.038   5.398  19.717  0.00  0.00    +0.000 C 
ATOM     15  C   UNL     1       1.938   4.743  20.890  0.00  0.00    +0.000 C 
ATOM     16  C   UNL     1       1.809   3.270  20.972  0.00  0.00    +0.000 C 
ATOM     17  O   UNL     1       1.731   2.733  22.076  0.00  0.00    +0.000 OA
ATOM     18  C   UNL     1       1.857   2.472  19.696  0.00  0.00    +0.000 C 
ATOM     19  C   UNL     1       1.273   3.272  18.547  0.00  0.00    +0.000 C 
ATOM     20  C   UNL     1       1.965   4.623  18.409  0.00  0.00    +0.000 C 
ENDBRANCH   4  14
TORSDOF 2
ENDMDL
MODEL 4
REMARK VINA RESULT:      -6.7      5.754      8.615
REMARK  Name = 
REMARK  2 active torsions:
REMARK  status: ('A' for Active; 'I' for Inactive)
REMARK    1  A    between atoms: C_4  and  N_5
REMARK    2  A    between atoms: N_8  and  C_9
REMARK                            x       y       z     vdW  Elec       q    Type
REMARK                         _______ _______ _______ _____ _____    ______ ____
ROOT
ATOM      1  N   UNL     1       3.817   3.963  17.889  0.00  0.00    +0.000 N 
ATOM      2  C   UNL     1       4.402   5.281  17.518  0.00  0.00    +0.000 C 
ATOM      3  C   UNL     1       5.827   5.129  16.939  0.00  0.00    +0.000 C 
ATOM      4  N   UNL     1       5.860   4.154  15.822  0.00  0.00    +0.000 N 
ATOM      5  C   UNL     1       5.297   2.845  16.221  0.00  0.00    +0.000 C 
ATOM      6  C   UNL     1       3.856   3.017  16.742  0.00  0.00    +0.000 C 
ENDROOT
BRANCH   1  10
ATOM      7  O   UNL     1       2.992   2.106  22.204  0.00  0.00    +0.000 OA
ATOM      8  C   UNL     1       2.574   2.806  21.285  0.00  0.00    +0.000 C 
ATOM      9  C   UNL     1       3.418   3.012  20.084  0.00  0.00    +0.000 C 
ATOM     10  C   UNL     1       3.028   3.756  19.033  0.00  0.00    +0.000 C 
ATOM     11  C   UNL     1       1.685   4.475  19.084  0.00  0.00    +0.000 C 
ATOM     12  C   UNL     1       1.168   4.696  20.503  0.00  0.00    +0.000 C 
ATOM     13  C   UNL     1       1.193   3.408  21.303  0.00  0.00    +0.000 C 
ENDBRANCH   1  10
BRANCH   4  14
ATOM     14  C   UNL     1       6.414   4.409  14.563  0.00  0.00    +0.000 C 
ATOM     15  C   UNL     1       7.513   5.168  14.382  0.00  0.00    +0.000 C 
ATOM     16  C   UNL     1       8.087   5.433  13.043  0.00  0.00    +0.000 C 
ATOM     17  O   UNL     1       9.087   6.143  12.948  0.00  0.00    +0.000 OA
ATOM     18  C   UNL     1       7.376   4.885  11.834  0.00  0.00    +0.000 C 
ATOM     19  C   UNL     1       6.684   3.578  12.173  0.00  0.00    +0.000 C 
ATOM     20  C   UNL     1       5.750   3.743  13.367  0.00  0.00    +0.000 C 
ENDBRANCH   4  14
TORSDOF 2
ENDMDL
MODEL 5
REMARK VINA RESULT:      -6.7      0.478      7.926
REMARK  Name = 
REMARK  2 active torsions:
REMARK  status: ('A' for Active; 'I' for Inactive)
REMARK    1  A    between atoms: C_4  and  N_5
REMARK    2  A    between atoms: N_8  and  C_9
REMARK                            x       y       z     vdW  Elec       q    Type
REMARK                         _______ _______ _______ _____ _____    ______ ____
ROOT
ATOM      1  N   UNL     1       2.011   7.337  19.409  0.00  0.00    +0.000 N 
ATOM      2  C   UNL     1       2.535   8.085  18.232  0.00  0.00    +0.000 C 
ATOM      3  C   UNL     1       1.542   9.170  17.759  0.00  0.00    +0.000 C 
ATOM      4  N   UNL     1       1.140  10.064  18.872  0.00  0.00    +0.000 N 
ATOM      5  C   UNL     1       0.600   9.301  20.019  0.00  0.00    +0.000 C 
ATOM      6  C   UNL     1       1.632   8.264  20.508  0.00  0.00    +0.000 C 
ENDROOT
BRANCH   1  10
ATOM      7  O   UNL     1       2.157   3.389  22.080  0.00  0.00    +0.000 OA
ATOM      8  C   UNL     1       2.258   3.880  20.957  0.00  0.00    +0.000 C 
ATOM      9  C   UNL     1       2.078   5.341  20.784  0.00  0.00    +0.000 C 
ATOM     10  C   UNL     1       2.182   5.954  19.590  0.00  0.00    +0.000 C 
ATOM     11  C   UNL     1       2.438   5.120  18.341  0.00  0.00    +0.000 C 
ATOM     12  C   UNL     1       2.038   3.655  18.496  0.00  0.00    +0.000 C 
ATOM     13  C   UNL     1       2.633   3.055  19.755  0.00  0.00    +0.000 C 
ENDBRANCH   1  10
BRANCH   4  14
ATOM     14  C   UNL     1       1.199  11.462  18.827  0.00  0.00    +0.000 C 
ATOM     15  C   UNL     1       2.293  12.140  18.432  0.00  0.00    +0.000 C 
ATOM     16  C   UNL     1       2.342  13.620  18.392  0.00  0.00    +0.000 C 
ATOM     17  O   UNL     1       3.377  14.178  18.030  0.00  0.00    +0.000 OA
ATOM     18  C   UNL     1       1.142  14.392  18.873  0.00  0.00    +0.000 C 
ATOM     19  C   UNL     1      -0.133  13.618  18.598  0.00  0.00    +0.000 C 
ATOM     20  C   UNL     1      -0.067  12.218  19.201  0.00  0.00    +0.000 C 
ENDBRANCH   4  14
TORSDOF 2
ENDMDL
MODEL 6
REMARK VINA RESULT:      -6.7      1.259      7.830
REMARK  Name = 
REMARK  2 active torsions:
REMARK  status: ('A' for Active; 'I' for Inactive)
REMARK    1  A    between atoms: C_4  and  N_5
REMARK    2  A    between atoms: N_8  and  C_9
REMARK                            x       y       z     vdW  Elec       q    Type
REMARK                         _______ _______ _______ _____ _____    ______ ____
ROOT
ATOM      1  N   UNL     1       2.201   7.263  19.530  0.00  0.00    +0.000 N 
ATOM      2  C   UNL     1       2.624   7.995  18.304  0.00  0.00    +0.000 C 
ATOM      3  C   UNL     1       1.535   8.980  17.823  0.00  0.00    +0.000 C 
ATOM      4  N   UNL     1       1.104   9.890  18.912  0.00  0.00    +0.000 N 
ATOM      5  C   UNL     1       0.664   9.140  20.109  0.00  0.00    +0.000 C 
ATOM      6  C   UNL     1       1.788   8.208  20.602  0.00  0.00    +0.000 C 
ENDROOT
BRANCH   1  10
ATOM      7  O   UNL     1       5.036   3.431  19.402  0.00  0.00    +0.000 OA
ATOM      8  C   UNL     1       3.942   3.895  19.714  0.00  0.00    +0.000 C 
ATOM      9  C   UNL     1       3.659   5.327  19.459  0.00  0.00    +0.000 C 
ATOM     10  C   UNL     1       2.483   5.907  19.763  0.00  0.00    +0.000 C 
ATOM     11  C   UNL     1       1.402   5.085  20.454  0.00  0.00    +0.000 C 
ATOM     12  C   UNL     1       1.943   3.860  21.186  0.00  0.00    +0.000 C 
ATOM     13  C   UNL     1       2.843   3.037  20.284  0.00  0.00    +0.000 C 
ENDBRANCH   1  10
BRANCH   4  14
ATOM     14  C   UNL     1       1.052  11.284  18.806  0.00  0.00    +0.000 C 
ATOM     15  C   UNL     1       2.117  12.036  18.465  0.00  0.00    +0.000 C 
ATOM     16  C   UNL     1       2.050  13.512  18.360  0.00  0.00    +0.000 C 
ATOM     17  O   UNL     1       3.062  14.140  18.053  0.00  0.00    +0.000 OA
ATOM     18  C   UNL     1       0.756  14.199  18.709  0.00  0.00    +0.000 C 
ATOM     19  C   UNL     1      -0.426  13.309  18.373  0.00  0.00    +0.000 C 
ATOM     20  C   UNL     1      -0.297  11.946  19.044  0.00  0.00    +0.000 C 
ENDBRANCH   4  14
TORSDOF 2
ENDMDL
MODEL 7
REMARK VINA RESULT:      -6.7      5.096      6.959
REMARK  Name = 
REMARK  2 active torsions:
REMARK  status: ('A' for Active; 'I' for Inactive)
REMARK    1  A    between atoms: C_4  and  N_5
REMARK    2  A    between atoms: N_8  and  C_9
REMARK                            x       y       z     vdW  Elec       q    Type
REMARK                         _______ _______ _______ _____ _____    ______ ____
ROOT
ATOM      1  N   UNL     1       3.695   5.926  17.612  0.00  0.00    +0.000 N 
ATOM      2  C   UNL     1       4.398   6.846  16.676  0.00  0.00    +0.000 C 
ATOM      3  C   UNL     1       5.746   6.257  16.204  0.00  0.00    +0.000 C 
ATOM      4  N   UNL     1       5.581   4.892  15.648  0.00  0.00    +0.000 N 
ATOM      5  C   UNL     1       4.902   3.990  16.605  0.00  0.00    +0.000 C 
ATOM      6  C   UNL     1       3.536   4.573  17.016  0.00  0.00    +0.000 C 
ENDROOT
BRANCH   1  10
ATOM      7  O   UNL     1       1.164   9.149  20.052  0.00  0.00    +0.000 OA
ATOM      8  C   UNL     1       1.651   8.021  20.030  0.00  0.00    +0.000 C 
ATOM      9  C   UNL     1       2.407   7.578  18.835  0.00  0.00    +0.000 C 
ATOM     10  C   UNL     1       2.977   6.362  18.739  0.00  0.00    +0.000 C 
ATOM     11  C   UNL     1       2.801   5.362  19.875  0.00  0.00    +0.000 C 
ATOM     12  C   UNL     1       1.585   5.647  20.752  0.00  0.00    +0.000 C 
ATOM     13  C   UNL     1       1.568   7.092  21.213  0.00  0.00    +0.000 C 
ENDBRANCH   1  10
BRANCH   4  14
ATOM     14  C   UNL     1       6.062   4.480  14.401  0.00  0.00    +0.000 C 
ATOM     15  C   UNL     1       5.372   3.667  13.577  0.00  0.00    +0.000 C 
ATOM     16  C   UNL     1       5.895   3.237  12.260  0.00  0.00    +0.000 C 
ATOM     17  O   UNL     1       5.218   2.486  11.560  0.00  0.00    +0.000 OA
ATOM     18  C   UNL     1       7.279   3.675  11.858  0.00  0.00    +0.000 C 
ATOM     19  C   UNL     1       7.598   5.035  12.450  0.00  0.00    +0.000 C 
ATOM     20  C   UNL     1       7.409   5.035  13.963  0.00  0.00    +0.000 C 
ENDBRANCH   4  14
TORSDOF 2
ENDMDL
MODEL 8
REMARK VINA RESULT:      -6.6      3.566      4.644
REMARK  Name = 
REMARK  2 active torsions:
REMARK  status: ('A' for Active; 'I' for Inactive)
REMARK    1  A    between atoms: C_4  and  N_5
REMARK    2  A    between atoms: N_8  and  C_9
REMARK                            x       y       z     vdW  Elec       q    Type
REMARK                         _______ _______ _______ _____ _____    ______ ____
ROOT
ATOM      1  N   UNL     1       1.819   8.103  19.538  0.00  0.00    +0.000 N 
ATOM      2  C   UNL     1       2.031   8.443  18.104  0.00  0.00    +0.000 C 
ATOM      3  C   UNL     1       3.478   8.141  17.654  0.00  0.00    +0.000 C 
ATOM      4  N   UNL     1       3.869   6.747  17.974  0.00  0.00    +0.000 N 
ATOM      5  C   UNL     1       3.674   6.440  19.408  0.00  0.00    +0.000 C 
ATOM      6  C   UNL     1       2.209   6.695  19.818  0.00  0.00    +0.000 C 
ENDROOT
BRANCH   1  10
ATOM      7  O   UNL     1       0.479   9.548  23.881  0.00  0.00    +0.000 OA
ATOM      8  C   UNL     1       0.326   9.652  22.666  0.00  0.00    +0.000 C 
ATOM      9  C   UNL     1       1.154   8.827  21.755  0.00  0.00    +0.000 C 
ATOM     10  C   UNL     1       1.040   8.876  20.415  0.00  0.00    +0.000 C 
ATOM     11  C   UNL     1       0.061   9.859  19.784  0.00  0.00    +0.000 C 
ATOM     12  C   UNL     1      -0.300  11.028  20.697  0.00  0.00    +0.000 C 
ATOM     13  C   UNL     1      -0.732  10.540  22.067  0.00  0.00    +0.000 C 
ENDBRANCH   1  10
BRANCH   4  14
ATOM     14  C   UNL     1       4.418   5.847  17.055  0.00  0.00    +0.000 C 
ATOM     15  C   UNL     1       5.374   6.190  16.170  0.00  0.00    +0.000 C 
ATOM     16  C   UNL     1       5.945   5.227  15.200  0.00  0.00    +0.000 C 
ATOM     17  O   UNL     1       6.810   5.608  14.412  0.00  0.00    +0.000 OA
ATOM     18  C   UNL     1       5.386   3.829  15.161  0.00  0.00    +0.000 C 
ATOM     19  C   UNL     1       4.918   3.406  16.540  0.00  0.00    +0.000 C 
ATOM     20  C   UNL     1       3.925   4.409  17.117  0.00  0.00    +0.000 C 
ENDBRANCH   4  14
TORSDOF 2
ENDMDL
MODEL 9
REMARK VINA RESULT:      -6.6      1.090      7.859
REMARK  Name = 
REMARK  2 active torsions:
REMARK  status: ('A' for Active; 'I' for Inactive)
REMARK    1  A    between atoms: C_4  and  N_5
REMARK    2  A    between atoms: N_8  and  C_9
REMARK                            x       y       z     vdW  Elec       q    Type
REMARK                         _______ _______ _______ _____ _____    ______ ____
ROOT
ATOM      1  N   UNL     1       2.003   7.255  19.469  0.00  0.00    +0.000 N 
ATOM      2  C   UNL     1       2.553   7.996  18.301  0.00  0.00    +0.000 C 
ATOM      3  C   UNL     1       1.607   9.132  17.850  0.00  0.00    +0.000 C 
ATOM      4  N   UNL     1       1.252  10.026  18.979  0.00  0.00    +0.000 N 
ATOM      5  C   UNL     1       0.684   9.270  20.117  0.00  0.00    +0.000 C 
ATOM      6  C   UNL     1       1.671   8.181  20.584  0.00  0.00    +0.000 C 
ENDROOT
BRANCH   1  10
ATOM      7  O   UNL     1       2.166   3.280  22.101  0.00  0.00    +0.000 OA
ATOM      8  C   UNL     1       2.194   3.775  20.976  0.00  0.00    +0.000 C 
ATOM      9  C   UNL     1       2.081   5.245  20.825  0.00  0.00    +0.000 C 
ATOM     10  C   UNL     1       2.112   5.863  19.630  0.00  0.00    +0.000 C 
ATOM     11  C   UNL     1       2.210   5.027  18.359  0.00  0.00    +0.000 C 
ATOM     12  C   UNL     1       1.744   3.585  18.543  0.00  0.00    +0.000 C 
ATOM     13  C   UNL     1       2.414   2.942  19.741  0.00  0.00    +0.000 C 
ENDBRANCH   1  10
BRANCH   4  14
ATOM     14  C   UNL     1       1.373  11.420  18.954  0.00  0.00    +0.000 C 
ATOM     15  C   UNL     1       0.660  12.235  19.756  0.00  0.00    +0.000 C 
ATOM     16  C   UNL     1       0.795  13.709  19.717  0.00  0.00    +0.000 C 
ATOM     17  O   UNL     1       0.107  14.396  20.470  0.00  0.00    +0.000 OA
ATOM     18  C   UNL     1       1.719  14.319  18.696  0.00  0.00    +0.000 C 
ATOM     19  C   UNL     1       2.887  13.392  18.415  0.00  0.00    +0.000 C 
ATOM     20  C   UNL     1       2.402  12.007  18.000  0.00  0.00    +0.000 C 
ENDBRANCH   4  14
TORSDOF 2
ENDMDL
