MODEL 1
REMARK VINA RESULT:      -8.8      0.000      0.000
REMARK  Name = 
REMARK  5 active torsions:
REMARK  status: ('A' for Active; 'I' for Inactive)
REMARK    1  A    between atoms: C_2  and  C_10
REMARK    2  A    between atoms: N_3  and  C_4
REMARK    3  A    between atoms: C_13  and  O_14
REMARK    4  A    between atoms: O_14  and  C_15
REMARK    5  A    between atoms: C_15  and  C_17
REMARK                            x       y       z     vdW  Elec       q    Type
REMARK                         _______ _______ _______ _____ _____    ______ ____
ROOT
ATOM      1  C   UNL     1       7.984   8.093  18.058  0.00  0.00    +0.000 A 
ATOM      2  C   UNL     1       7.213   7.764  16.930  0.00  0.00    +0.000 A 
ATOM      3  C   UNL     1       6.830   6.430  16.685  0.00  0.00    +0.000 A 
ATOM      4  C   UNL     1       7.199   5.424  17.579  0.00  0.00    +0.000 A 
ATOM      5  C   UNL     1       7.881   5.770  18.753  0.00  0.00    +0.000 A 
ATOM      6  C   UNL     1       8.294   7.090  18.980  0.00  0.00    +0.000 A 
ENDROOT
BRANCH   1   8
ATOM      7  O   UNL     1       8.101  10.347  17.439  0.00  0.00    +0.000 OA
ATOM      8  C   UNL     1       8.424   9.509  18.275  0.00  0.00    +0.000 C 
ATOM      9  N   UNL     1       9.226   9.722  19.390  0.00  0.00    +0.000 N 
ATOM     10  H   UNL     1       9.564   8.902  19.875  0.00  0.00    +0.000 HD
BRANCH   9  11
ATOM     11  C   UNL     1       9.782  10.955  19.814  0.00  0.00    +0.000 A 
ATOM     12  C   UNL     1      10.800  11.620  19.130  0.00  0.00    +0.000 A 
ATOM     13  C   UNL     1      11.335  12.814  19.631  0.00  0.00    +0.000 A 
ATOM     14  C   UNL     1      10.855  13.356  20.820  0.00  0.00    +0.000 A 
ATOM     15  C   UNL     1       9.819  12.719  21.496  0.00  0.00    +0.000 A 
ATOM     16  C   UNL     1       9.278  11.532  20.989  0.00  0.00    +0.000 A 
ENDBRANCH   9  11
ENDBRANCH   1   8
BRANCH   4  17
ATOM     17  O   UNL     1       6.845   4.077  17.276  0.00  0.00    +0.000 OA
BRANCH  17  18
ATOM     18  C   UNL     1       5.608   3.900  16.639  0.00  0.00    +0.000 C 
ATOM     19  O   UNL     1       5.466   3.811  15.421  0.00  0.00    +0.000 OA
BRANCH  18  20
ATOM     20  C   UNL     1       4.461   3.826  17.529  0.00  0.00    +0.000 A 
ATOM     21  C   UNL     1       3.852   4.908  18.140  0.00  0.00    +0.000 A 
ATOM     22  C   UNL     1       2.816   4.429  18.959  0.00  0.00    +0.000 A 
ATOM     23  C   UNL     1       1.886   5.027  19.832  0.00  0.00    +0.000 A 
ATOM     24  C   UNL     1       0.992   4.213  20.527  0.00  0.00    +0.000 A 
ATOM     25  C   UNL     1       1.011   2.828  20.350  0.00  0.00    +0.000 A 
ATOM     26  C   UNL     1       1.922   2.209  19.473  0.00  0.00    +0.000 A 
ATOM     27  C   UNL     1       2.820   3.046  18.798  0.00  0.00    +0.000 A 
ATOM     28  O   UNL     1       3.816   2.672  17.915  0.00  0.00    +0.000 OA
ENDBRANCH  18  20
ENDBRANCH  17  18
ENDBRANCH   4  17
TORSDOF 5
ENDMDL
MODEL 2
REMARK VINA RESULT:      -8.8      0.627      1.668
REMARK  Name = 
REMARK  5 active torsions:
REMARK  status: ('A' for Active; 'I' for Inactive)
REMARK    1  A    between atoms: C_2  and  C_10
REMARK    2  A    between atoms: N_3  and  C_4
REMARK    3  A    between atoms: C_13  and  O_14
REMARK    4  A    between atoms: O_14  and  C_15
REMARK    5  A    between atoms: C_15  and  C_17
REMARK                            x       y       z     vdW  Elec       q    Type
REMARK                         _______ _______ _______ _____ _____    ______ ____
ROOT
ATOM      1  C   UNL     1       8.053   8.108  18.092  0.00  0.00    +0.000 A 
ATOM      2  C   UNL     1       8.333   7.100  19.030  0.00  0.00    +0.000 A 
ATOM      3  C   UNL     1       7.941   5.767  18.792  0.00  0.00    +0.000 A 
ATOM      4  C   UNL     1       7.286   5.435  17.606  0.00  0.00    +0.000 A 
ATOM      5  C   UNL     1       7.097   6.424  16.631  0.00  0.00    +0.000 A 
ATOM      6  C   UNL     1       7.454   7.755  16.881  0.00  0.00    +0.000 A 
ENDROOT
BRANCH   1   8
ATOM      7  O   UNL     1       8.054  10.398  17.608  0.00  0.00    +0.000 OA
ATOM      8  C   UNL     1       8.433   9.528  18.386  0.00  0.00    +0.000 C 
ATOM      9  N   UNL     1       9.248   9.711  19.496  0.00  0.00    +0.000 N 
ATOM     10  H   UNL     1       9.635   8.881  19.923  0.00  0.00    +0.000 HD
BRANCH   9  11
ATOM     11  C   UNL     1       9.757  10.942  19.983  0.00  0.00    +0.000 A 
ATOM     12  C   UNL     1       9.207  11.632  21.065  0.00  0.00    +0.000 A 
ATOM     13  C   UNL     1       9.733  12.867  21.464  0.00  0.00    +0.000 A 
ATOM     14  C   UNL     1      10.816  13.424  20.788  0.00  0.00    +0.000 A 
ATOM     15  C   UNL     1      11.392  12.732  19.727  0.00  0.00    +0.000 A 
ATOM     16  C   UNL     1      10.873  11.492  19.336  0.00  0.00    +0.000 A 
ENDBRANCH   9  11
ENDBRANCH   1   8
BRANCH   4  17
ATOM     17  O   UNL     1       6.851   4.091  17.419  0.00  0.00    +0.000 OA
BRANCH  17  18
ATOM     18  C   UNL     1       5.615   3.934  16.773  0.00  0.00    +0.000 C 
ATOM     19  O   UNL     1       5.472   3.924  15.552  0.00  0.00    +0.000 OA
BRANCH  18  20
ATOM     20  C   UNL     1       4.472   3.780  17.658  0.00  0.00    +0.000 A 
ATOM     21  C   UNL     1       3.341   3.032  17.379  0.00  0.00    +0.000 A 
ATOM     22  C   UNL     1       2.444   3.170  18.451  0.00  0.00    +0.000 A 
ATOM     23  C   UNL     1       1.149   2.689  18.727  0.00  0.00    +0.000 A 
ATOM     24  C   UNL     1       0.529   3.065  19.919  0.00  0.00    +0.000 A 
ATOM     25  C   UNL     1       1.188   3.895  20.828  0.00  0.00    +0.000 A 
ATOM     26  C   UNL     1       2.486   4.377  20.580  0.00  0.00    +0.000 A 
ATOM     27  C   UNL     1       3.082   3.998  19.370  0.00  0.00    +0.000 A 
ATOM     28  O   UNL     1       4.328   4.365  18.896  0.00  0.00    +0.000 OA
ENDBRANCH  18  20
ENDBRANCH  17  18
ENDBRANCH   4  17
TORSDOF 5
ENDMDL
MODEL 3
REMARK VINA RESULT:      -8.8      4.978      7.503
REMARK  Name = 
REMARK  5 active torsions:
REMARK  status: ('A' for Active; 'I' for Inactive)
REMARK    1  A    between atoms: C_2  and  C_10
REMARK    2  A    between atoms: N_3  and  C_4
REMARK    3  A    between atoms: C_13  and  O_14
REMARK    4  A    between atoms: O_14  and  C_15
REMARK    5  A    between atoms: C_15  and  C_17
REMARK                            x       y       z     vdW  Elec       q    Type
REMARK                         _______ _______ _______ _____ _____    ______ ____
ROOT
ATOM      1  C   UNL     1       2.711   7.673  18.373  0.00  0.00    +0.000 A 
ATOM      2  C   UNL     1       3.769   7.583  17.451  0.00  0.00    +0.000 A 
ATOM      3  C   UNL     1       4.628   6.465  17.449  0.00  0.00    +0.000 A 
ATOM      4  C   UNL     1       4.419   5.424  18.356  0.00  0.00    +0.000 A 
ATOM      5  C   UNL     1       3.305   5.472  19.205  0.00  0.00    +0.000 A 
ATOM      6  C   UNL     1       2.472   6.598  19.233  0.00  0.00    +0.000 A 
ENDROOT
BRANCH   1   8
ATOM      7  O   UNL     1       1.908   9.663  17.441  0.00  0.00    +0.000 OA
ATOM      8  C   UNL     1       1.840   8.892  18.392  0.00  0.00    +0.000 C 
ATOM      9  N   UNL     1       1.076   9.062  19.540  0.00  0.00    +0.000 N 
ATOM     10  H   UNL     1       1.272   8.446  20.317  0.00  0.00    +0.000 HD
BRANCH   9  11
ATOM     11  C   UNL     1       0.182  10.127  19.816  0.00  0.00    +0.000 A 
ATOM     12  C   UNL     1      -0.922  10.437  19.021  0.00  0.00    +0.000 A 
ATOM     13  C   UNL     1      -1.738  11.533  19.327  0.00  0.00    +0.000 A 
ATOM     14  C   UNL     1      -1.460  12.330  20.434  0.00  0.00    +0.000 A 
ATOM     15  C   UNL     1      -0.379  12.015  21.253  0.00  0.00    +0.000 A 
ATOM     16  C   UNL     1       0.429  10.912  20.952  0.00  0.00    +0.000 A 
ENDBRANCH   9  11
ENDBRANCH   1   8
BRANCH   4  17
ATOM     17  O   UNL     1       5.337   4.335  18.368  0.00  0.00    +0.000 OA
BRANCH  17  18
ATOM     18  C   UNL     1       6.599   4.594  17.813  0.00  0.00    +0.000 C 
ATOM     19  O   UNL     1       7.603   4.851  18.474  0.00  0.00    +0.000 OA
BRANCH  18  20
ATOM     20  C   UNL     1       6.657   4.543  16.361  0.00  0.00    +0.000 A 
ATOM     21  C   UNL     1       5.899   3.706  15.560  0.00  0.00    +0.000 A 
ATOM     22  C   UNL     1       6.274   3.913  14.223  0.00  0.00    +0.000 A 
ATOM     23  C   UNL     1       5.894   3.352  12.988  0.00  0.00    +0.000 A 
ATOM     24  C   UNL     1       6.520   3.796  11.823  0.00  0.00    +0.000 A 
ATOM     25  C   UNL     1       7.498   4.790  11.880  0.00  0.00    +0.000 A 
ATOM     26  C   UNL     1       7.884   5.376  13.099  0.00  0.00    +0.000 A 
ATOM     27  C   UNL     1       7.254   4.903  14.257  0.00  0.00    +0.000 A 
ATOM     28  O   UNL     1       7.484   5.300  15.562  0.00  0.00    +0.000 OA
ENDBRANCH  18  20
ENDBRANCH  17  18
ENDBRANCH   4  17
TORSDOF 5
ENDMDL
MODEL 4
REMARK VINA RESULT:      -8.6      5.213      7.574
REMARK  Name = 
REMARK  5 active torsions:
REMARK  status: ('A' for Active; 'I' for Inactive)
REMARK    1  A    between atoms: C_2  and  C_10
REMARK    2  A    between atoms: N_3  and  C_4
REMARK    3  A    between atoms: C_13  and  O_14
REMARK    4  A    between atoms: O_14  and  C_15
REMARK    5  A    between atoms: C_15  and  C_17
REMARK                            x       y       z     vdW  Elec       q    Type
REMARK                         _______ _______ _______ _____ _____    ______ ____
ROOT
ATOM      1  C   UNL     1       2.166   7.900  19.189  0.00  0.00    +0.000 A 
ATOM      2  C   UNL     1       2.303   6.854  20.118  0.00  0.00    +0.000 A 
ATOM      3  C   UNL     1       3.054   5.704  19.801  0.00  0.00    +0.000 A 
ATOM      4  C   UNL     1       3.688   5.605  18.562  0.00  0.00    +0.000 A 
ATOM      5  C   UNL     1       3.632   6.692  17.678  0.00  0.00    +0.000 A 
ATOM      6  C   UNL     1       2.857   7.820  17.977  0.00  0.00    +0.000 A 
ENDROOT
BRANCH   1   8
ATOM      7  O   UNL     1       0.951   9.812  18.604  0.00  0.00    +0.000 OA
ATOM      8  C   UNL     1       1.323   9.092  19.525  0.00  0.00    +0.000 C 
ATOM      9  N   UNL     1       1.098   9.302  20.880  0.00  0.00    +0.000 N 
ATOM     10  H   UNL     1       1.630   8.735  21.527  0.00  0.00    +0.000 HD
BRANCH   9  11
ATOM     11  C   UNL     1       0.349  10.355  21.464  0.00  0.00    +0.000 A 
ATOM     12  C   UNL     1       0.495  11.697  21.109  0.00  0.00    +0.000 A 
ATOM     13  C   UNL     1      -0.245  12.692  21.760  0.00  0.00    +0.000 A 
ATOM     14  C   UNL     1      -1.142  12.354  22.770  0.00  0.00    +0.000 A 
ATOM     15  C   UNL     1      -1.319  11.017  23.113  0.00  0.00    +0.000 A 
ATOM     16  C   UNL     1      -0.587  10.023  22.454  0.00  0.00    +0.000 A 
ENDBRANCH   9  11
ENDBRANCH   1   8
BRANCH   4  17
ATOM     17  O   UNL     1       4.392   4.407  18.248  0.00  0.00    +0.000 OA
BRANCH  17  18
ATOM     18  C   UNL     1       5.752   4.563  17.937  0.00  0.00    +0.000 C 
ATOM     19  O   UNL     1       6.638   4.703  18.777  0.00  0.00    +0.000 OA
BRANCH  18  20
ATOM     20  C   UNL     1       6.066   4.549  16.518  0.00  0.00    +0.000 A 
ATOM     21  C   UNL     1       5.431   3.770  15.566  0.00  0.00    +0.000 A 
ATOM     22  C   UNL     1       6.048   3.997  14.325  0.00  0.00    +0.000 A 
ATOM     23  C   UNL     1       5.873   3.488  13.023  0.00  0.00    +0.000 A 
ATOM     24  C   UNL     1       6.713   3.936  12.004  0.00  0.00    +0.000 A 
ATOM     25  C   UNL     1       7.703   4.885  12.268  0.00  0.00    +0.000 A 
ATOM     26  C   UNL     1       7.888   5.418  13.557  0.00  0.00    +0.000 A 
ATOM     27  C   UNL     1       7.043   4.941  14.567  0.00  0.00    +0.000 A 
ATOM     28  O   UNL     1       7.051   5.291  15.905  0.00  0.00    +0.000 OA
ENDBRANCH  18  20
ENDBRANCH  17  18
ENDBRANCH   4  17
TORSDOF 5
ENDMDL
MODEL 5
REMARK VINA RESULT:      -8.4      1.600      1.846
REMARK  Name = 
REMARK  5 active torsions:
REMARK  status: ('A' for Active; 'I' for Inactive)
REMARK    1  A    between atoms: C_2  and  C_10
REMARK    2  A    between atoms: N_3  and  C_4
REMARK    3  A    between atoms: C_13  and  O_14
REMARK    4  A    between atoms: O_14  and  C_15
REMARK    5  A    between atoms: C_15  and  C_17
REMARK                            x       y       z     vdW  Elec       q    Type
REMARK                         _______ _______ _______ _____ _____    ______ ____
ROOT
ATOM      1  C   UNL     1       8.287   8.322  18.366  0.00  0.00    +0.000 A 
ATOM      2  C   UNL     1       7.523   8.160  17.198  0.00  0.00    +0.000 A 
ATOM      3  C   UNL     1       7.026   6.892  16.833  0.00  0.00    +0.000 A 
ATOM      4  C   UNL     1       7.274   5.786  17.648  0.00  0.00    +0.000 A 
ATOM      5  C   UNL     1       7.951   5.970  18.861  0.00  0.00    +0.000 A 
ATOM      6  C   UNL     1       8.476   7.222  19.207  0.00  0.00    +0.000 A 
ENDROOT
BRANCH   1   8
ATOM      7  O   UNL     1       9.248   9.849  19.857  0.00  0.00    +0.000 OA
ATOM      8  C   UNL     1       8.849   9.668  18.711  0.00  0.00    +0.000 C 
ATOM      9  N   UNL     1       8.799  10.614  17.694  0.00  0.00    +0.000 N 
ATOM     10  H   UNL     1       8.267  10.373  16.869  0.00  0.00    +0.000 HD
BRANCH   9  11
ATOM     11  C   UNL     1       9.250  11.956  17.760  0.00  0.00    +0.000 A 
ATOM     12  C   UNL     1      10.594  12.326  17.682  0.00  0.00    +0.000 A 
ATOM     13  C   UNL     1      10.973  13.668  17.801  0.00  0.00    +0.000 A 
ATOM     14  C   UNL     1      10.012  14.657  17.995  0.00  0.00    +0.000 A 
ATOM     15  C   UNL     1       8.666  14.306  18.045  0.00  0.00    +0.000 A 
ATOM     16  C   UNL     1       8.288  12.964  17.915  0.00  0.00    +0.000 A 
ENDBRANCH   9  11
ENDBRANCH   1   8
BRANCH   4  17
ATOM     17  O   UNL     1       6.808   4.508  17.225  0.00  0.00    +0.000 OA
BRANCH  17  18
ATOM     18  C   UNL     1       5.535   4.488  16.633  0.00  0.00    +0.000 C 
ATOM     19  O   UNL     1       5.327   4.699  15.440  0.00  0.00    +0.000 OA
BRANCH  18  20
ATOM     20  C   UNL     1       4.438   4.195  17.540  0.00  0.00    +0.000 A 
ATOM     21  C   UNL     1       3.291   3.496  17.206  0.00  0.00    +0.000 A 
ATOM     22  C   UNL     1       2.449   3.464  18.330  0.00  0.00    +0.000 A 
ATOM     23  C   UNL     1       1.167   2.943  18.594  0.00  0.00    +0.000 A 
ATOM     24  C   UNL     1       0.610   3.128  19.859  0.00  0.00    +0.000 A 
ATOM     25  C   UNL     1       1.318   3.809  20.852  0.00  0.00    +0.000 A 
ATOM     26  C   UNL     1       2.605   4.326  20.616  0.00  0.00    +0.000 A 
ATOM     27  C   UNL     1       3.137   4.142  19.334  0.00  0.00    +0.000 A 
ATOM     28  O   UNL     1       4.360   4.581  18.860  0.00  0.00    +0.000 OA
ENDBRANCH  18  20
ENDBRANCH  17  18
ENDBRANCH   4  17
TORSDOF 5
ENDMDL
MODEL 6
REMARK VINA RESULT:      -8.4      5.012      7.394
REMARK  Name = 
REMARK  5 active torsions:
REMARK  status: ('A' for Active; 'I' for Inactive)
REMARK    1  A    between atoms: C_2  and  C_10
REMARK    2  A    between atoms: N_3  and  C_4
REMARK    3  A    between atoms: C_13  and  O_14
REMARK    4  A    between atoms: O_14  and  C_15
REMARK    5  A    between atoms: C_15  and  C_17
REMARK                            x       y       z     vdW  Elec       q    Type
REMARK                         _______ _______ _______ _____ _____    ______ ____
ROOT
ATOM      1  C   UNL     1       2.170   7.676  19.228  0.00  0.00    +0.000 A 
ATOM      2  C   UNL     1       2.899   7.569  18.031  0.00  0.00    +0.000 A 
ATOM      3  C   UNL     1       3.668   6.420  17.757  0.00  0.00    +0.000 A 
ATOM      4  C   UNL     1       3.694   5.365  18.670  0.00  0.00    +0.000 A 
ATOM      5  C   UNL     1       2.888   5.434  19.815  0.00  0.00    +0.000 A 
ATOM      6  C   UNL     1       2.152   6.589  20.106  0.00  0.00    +0.000 A 
ENDROOT
BRANCH   1   8
ATOM      7  O   UNL     1       1.115   9.663  18.585  0.00  0.00    +0.000 OA
ATOM      8  C   UNL     1       1.398   8.927  19.524  0.00  0.00    +0.000 C 
ATOM      9  N   UNL     1       1.135   9.162  20.867  0.00  0.00    +0.000 N 
ATOM     10  H   UNL     1       1.599   8.565  21.538  0.00  0.00    +0.000 HD
BRANCH   9  11
ATOM     11  C   UNL     1       0.438  10.268  21.415  0.00  0.00    +0.000 A 
ATOM     12  C   UNL     1       0.667  11.592  21.035  0.00  0.00    +0.000 A 
ATOM     13  C   UNL     1      -0.026  12.642  21.651  0.00  0.00    +0.000 A 
ATOM     14  C   UNL     1      -0.958  12.378  22.652  0.00  0.00    +0.000 A 
ATOM     15  C   UNL     1      -1.218  11.061  23.019  0.00  0.00    +0.000 A 
ATOM     16  C   UNL     1      -0.532  10.012  22.395  0.00  0.00    +0.000 A 
ENDBRANCH   9  11
ENDBRANCH   1   8
BRANCH   4  17
ATOM     17  O   UNL     1       4.525   4.242  18.393  0.00  0.00    +0.000 OA
BRANCH  17  18
ATOM     18  C   UNL     1       5.859   4.534  18.070  0.00  0.00    +0.000 C 
ATOM     19  O   UNL     1       6.718   4.834  18.897  0.00  0.00    +0.000 OA
BRANCH  18  20
ATOM     20  C   UNL     1       6.181   4.463  16.655  0.00  0.00    +0.000 A 
ATOM     21  C   UNL     1       7.127   5.242  16.010  0.00  0.00    +0.000 A 
ATOM     22  C   UNL     1       7.111   4.918  14.644  0.00  0.00    +0.000 A 
ATOM     23  C   UNL     1       7.803   5.380  13.508  0.00  0.00    +0.000 A 
ATOM     24  C   UNL     1       7.500   4.830  12.262  0.00  0.00    +0.000 A 
ATOM     25  C   UNL     1       6.535   3.828  12.147  0.00  0.00    +0.000 A 
ATOM     26  C   UNL     1       5.841   3.340  13.269  0.00  0.00    +0.000 A 
ATOM     27  C   UNL     1       6.151   3.918  14.507  0.00  0.00    +0.000 A 
ATOM     28  O   UNL     1       5.587   3.628  15.735  0.00  0.00    +0.000 OA
ENDBRANCH  18  20
ENDBRANCH  17  18
ENDBRANCH   4  17
TORSDOF 5
ENDMDL
MODEL 7
REMARK VINA RESULT:      -8.4      1.473      1.639
REMARK  Name = 
REMARK  5 active torsions:
REMARK  status: ('A' for Active; 'I' for Inactive)
REMARK    1  A    between atoms: C_2  and  C_10
REMARK    2  A    between atoms: N_3  and  C_4
REMARK    3  A    between atoms: C_13  and  O_14
REMARK    4  A    between atoms: O_14  and  C_15
REMARK    5  A    between atoms: C_15  and  C_17
REMARK                            x       y       z     vdW  Elec       q    Type
REMARK                         _______ _______ _______ _____ _____    ______ ____
ROOT
ATOM      1  C   UNL     1       8.442   8.606  18.503  0.00  0.00    +0.000 A 
ATOM      2  C   UNL     1       7.624   8.604  17.360  0.00  0.00    +0.000 A 
ATOM      3  C   UNL     1       7.023   7.411  16.909  0.00  0.00    +0.000 A 
ATOM      4  C   UNL     1       7.221   6.222  17.611  0.00  0.00    +0.000 A 
ATOM      5  C   UNL     1       7.955   6.248  18.805  0.00  0.00    +0.000 A 
ATOM      6  C   UNL     1       8.583   7.425  19.235  0.00  0.00    +0.000 A 
ENDROOT
BRANCH   1   8
ATOM      7  O   UNL     1       9.058  10.176  20.126  0.00  0.00    +0.000 OA
ATOM      8  C   UNL     1       9.113   9.874  18.939  0.00  0.00    +0.000 C 
ATOM      9  N   UNL     1       9.684  10.628  17.921  0.00  0.00    +0.000 N 
ATOM     10  H   UNL     1       9.481  10.346  16.971  0.00  0.00    +0.000 HD
BRANCH   9  11
ATOM     11  C   UNL     1      10.365  11.864  18.058  0.00  0.00    +0.000 A 
ATOM     12  C   UNL     1      11.666  11.980  18.553  0.00  0.00    +0.000 A 
ATOM     13  C   UNL     1      12.261  13.238  18.705  0.00  0.00    +0.000 A 
ATOM     14  C   UNL     1      11.565  14.393  18.361  0.00  0.00    +0.000 A 
ATOM     15  C   UNL     1      10.279  14.290  17.839  0.00  0.00    +0.000 A 
ATOM     16  C   UNL     1       9.689  13.031  17.676  0.00  0.00    +0.000 A 
ENDBRANCH   9  11
ENDBRANCH   1   8
BRANCH   4  17
ATOM     17  O   UNL     1       6.648   5.022  17.099  0.00  0.00    +0.000 OA
BRANCH  17  18
ATOM     18  C   UNL     1       5.388   5.157  16.497  0.00  0.00    +0.000 C 
ATOM     19  O   UNL     1       5.213   5.557  15.347  0.00  0.00    +0.000 OA
BRANCH  18  20
ATOM     20  C   UNL     1       4.259   4.788  17.336  0.00  0.00    +0.000 A 
ATOM     21  C   UNL     1       3.806   5.507  18.428  0.00  0.00    +0.000 A 
ATOM     22  C   UNL     1       2.735   4.807  19.006  0.00  0.00    +0.000 A 
ATOM     23  C   UNL     1       1.907   5.011  20.127  0.00  0.00    +0.000 A 
ATOM     24  C   UNL     1       0.931   4.061  20.428  0.00  0.00    +0.000 A 
ATOM     25  C   UNL     1       0.770   2.932  19.623  0.00  0.00    +0.000 A 
ATOM     26  C   UNL     1       1.576   2.713  18.490  0.00  0.00    +0.000 A 
ATOM     27  C   UNL     1       2.559   3.673  18.217  0.00  0.00    +0.000 A 
ATOM     28  O   UNL     1       3.481   3.662  17.186  0.00  0.00    +0.000 OA
ENDBRANCH  18  20
ENDBRANCH  17  18
ENDBRANCH   4  17
TORSDOF 5
ENDMDL
MODEL 8
REMARK VINA RESULT:      -8.4      5.183      7.740
REMARK  Name = 
REMARK  5 active torsions:
REMARK  status: ('A' for Active; 'I' for Inactive)
REMARK    1  A    between atoms: C_2  and  C_10
REMARK    2  A    between atoms: N_3  and  C_4
REMARK    3  A    between atoms: C_13  and  O_14
REMARK    4  A    between atoms: O_14  and  C_15
REMARK    5  A    between atoms: C_15  and  C_17
REMARK                            x       y       z     vdW  Elec       q    Type
REMARK                         _______ _______ _______ _____ _____    ______ ____
ROOT
ATOM      1  C   UNL     1       2.326   8.134  18.703  0.00  0.00    +0.000 A 
ATOM      2  C   UNL     1       2.303   7.174  19.728  0.00  0.00    +0.000 A 
ATOM      3  C   UNL     1       3.039   5.978  19.610  0.00  0.00    +0.000 A 
ATOM      4  C   UNL     1       3.816   5.747  18.474  0.00  0.00    +0.000 A 
ATOM      5  C   UNL     1       3.915   6.749  17.500  0.00  0.00    +0.000 A 
ATOM      6  C   UNL     1       3.157   7.923  17.599  0.00  0.00    +0.000 A 
ENDROOT
BRANCH   1   8
ATOM      7  O   UNL     1       1.772  10.325  18.095  0.00  0.00    +0.000 OA
ATOM      8  C   UNL     1       1.498   9.378  18.825  0.00  0.00    +0.000 C 
ATOM      9  N   UNL     1       0.527   9.354  19.818  0.00  0.00    +0.000 N 
ATOM     10  H   UNL     1       0.550   8.576  20.464  0.00  0.00    +0.000 HD
BRANCH   9  11
ATOM     11  C   UNL     1      -0.377  10.395  20.148  0.00  0.00    +0.000 A 
ATOM     12  C   UNL     1      -1.321  10.911  19.259  0.00  0.00    +0.000 A 
ATOM     13  C   UNL     1      -2.153  11.972  19.637  0.00  0.00    +0.000 A 
ATOM     14  C   UNL     1      -2.051  12.527  20.910  0.00  0.00    +0.000 A 
ATOM     15  C   UNL     1      -1.135  12.003  21.817  0.00  0.00    +0.000 A 
ATOM     16  C   UNL     1      -0.312  10.934  21.441  0.00  0.00    +0.000 A 
ENDBRANCH   9  11
ENDBRANCH   1   8
BRANCH   4  17
ATOM     17  O   UNL     1       4.503   4.504  18.357  0.00  0.00    +0.000 OA
BRANCH  17  18
ATOM     18  C   UNL     1       5.861   4.588  18.013  0.00  0.00    +0.000 C 
ATOM     19  O   UNL     1       6.774   4.683  18.831  0.00  0.00    +0.000 OA
BRANCH  18  20
ATOM     20  C   UNL     1       6.140   4.557  16.587  0.00  0.00    +0.000 A 
ATOM     21  C   UNL     1       5.484   3.764  15.662  0.00  0.00    +0.000 A 
ATOM     22  C   UNL     1       6.068   3.977  14.402  0.00  0.00    +0.000 A 
ATOM     23  C   UNL     1       5.862   3.450  13.112  0.00  0.00    +0.000 A 
ATOM     24  C   UNL     1       6.676   3.887  12.067  0.00  0.00    +0.000 A 
ATOM     25  C   UNL     1       7.670   4.841  12.294  0.00  0.00    +0.000 A 
ATOM     26  C   UNL     1       7.885   5.391  13.571  0.00  0.00    +0.000 A 
ATOM     27  C   UNL     1       7.067   4.926  14.608  0.00  0.00    +0.000 A 
ATOM     28  O   UNL     1       7.108   5.293  15.941  0.00  0.00    +0.000 OA
ENDBRANCH  18  20
ENDBRANCH  17  18
ENDBRANCH   4  17
TORSDOF 5
ENDMDL
MODEL 9
REMARK VINA RESULT:      -8.3      1.589      2.149
REMARK  Name = 
REMARK  5 active torsions:
REMARK  status: ('A' for Active; 'I' for Inactive)
REMARK    1  A    between atoms: C_2  and  C_10
REMARK    2  A    between atoms: N_3  and  C_4
REMARK    3  A    between atoms: C_13  and  O_14
REMARK    4  A    between atoms: O_14  and  C_15
REMARK    5  A    between atoms: C_15  and  C_17
REMARK                            x       y       z     vdW  Elec       q    Type
REMARK                         _______ _______ _______ _____ _____    ______ ____
ROOT
ATOM      1  C   UNL     1       8.308   8.283  18.399  0.00  0.00    +0.000 A 
ATOM      2  C   UNL     1       8.513   7.178  19.243  0.00  0.00    +0.000 A 
ATOM      3  C   UNL     1       7.983   5.914  18.915  0.00  0.00    +0.000 A 
ATOM      4  C   UNL     1       7.265   5.746  17.730  0.00  0.00    +0.000 A 
ATOM      5  C   UNL     1       7.149   6.825  16.843  0.00  0.00    +0.000 A 
ATOM      6  C   UNL     1       7.644   8.090  17.185  0.00  0.00    +0.000 A 
ENDROOT
BRANCH   1   8
ATOM      7  O   UNL     1       8.920   9.890  19.986  0.00  0.00    +0.000 OA
ATOM      8  C   UNL     1       8.836   9.630  18.790  0.00  0.00    +0.000 C 
ATOM      9  N   UNL     1       9.121  10.489  17.736  0.00  0.00    +0.000 N 
ATOM     10  H   UNL     1       8.819  10.201  16.815  0.00  0.00    +0.000 HD
BRANCH   9  11
ATOM     11  C   UNL     1       9.618  11.813  17.829  0.00  0.00    +0.000 A 
ATOM     12  C   UNL     1       8.803  12.936  17.984  0.00  0.00    +0.000 A 
ATOM     13  C   UNL     1       9.358  14.221  18.024  0.00  0.00    +0.000 A 
ATOM     14  C   UNL     1      10.735  14.397  17.912  0.00  0.00    +0.000 A 
ATOM     15  C   UNL     1      11.561  13.285  17.787  0.00  0.00    +0.000 A 
ATOM     16  C   UNL     1      11.006  12.000  17.759  0.00  0.00    +0.000 A 
ENDBRANCH   9  11
ENDBRANCH   1   8
BRANCH   4  17
ATOM     17  O   UNL     1       6.694   4.470  17.452  0.00  0.00    +0.000 OA
BRANCH  17  18
ATOM     18  C   UNL     1       5.359   4.481  17.020  0.00  0.00    +0.000 C 
ATOM     19  O   UNL     1       5.008   4.759  15.875  0.00  0.00    +0.000 OA
BRANCH  18  20
ATOM     20  C   UNL     1       4.378   4.135  18.035  0.00  0.00    +0.000 A 
ATOM     21  C   UNL     1       4.663   3.541  19.252  0.00  0.00    +0.000 A 
ATOM     22  C   UNL     1       3.453   3.319  19.931  0.00  0.00    +0.000 A 
ATOM     23  C   UNL     1       3.101   2.736  21.163  0.00  0.00    +0.000 A 
ATOM     24  C   UNL     1       1.753   2.657  21.513  0.00  0.00    +0.000 A 
ATOM     25  C   UNL     1       0.770   3.162  20.659  0.00  0.00    +0.000 A 
ATOM     26  C   UNL     1       1.098   3.762  19.429  0.00  0.00    +0.000 A 
ATOM     27  C   UNL     1       2.457   3.815  19.093  0.00  0.00    +0.000 A 
ATOM     28  O   UNL     1       3.017   4.325  17.937  0.00  0.00    +0.000 OA
ENDBRANCH  18  20
ENDBRANCH  17  18
ENDBRANCH   4  17
TORSDOF 5
ENDMDL
