MODEL 1
REMARK VINA RESULT:      -6.7      0.000      0.000
REMARK  Name = 
REMARK  21 active torsions:
REMARK  status: ('A' for Active; 'I' for Inactive)
REMARK    1  A    between atoms: C_1  and  C_2
REMARK    2  A    between atoms: C_2  and  C_3
REMARK    3  A    between atoms: C_3  and  C_4
REMARK    4  A    between atoms: C_4  and  C_5
REMARK    5  A    between atoms: C_5  and  C_6
REMARK    6  A    between atoms: C_6  and  C_7
REMARK    7  A    between atoms: C_7  and  C_8
REMARK    8  A    between atoms: C_8  and  C_9
REMARK    9  A    between atoms: C_9  and  C_10
REMARK   10  A    between atoms: C_10  and  C_11
REMARK   11  A    between atoms: C_11  and  C_12
REMARK   12  A    between atoms: C_12  and  C_13
REMARK   13  A    between atoms: C_13  and  C_14
REMARK   14  A    between atoms: C_14  and  C_15
REMARK   15  A    between atoms: C_15  and  C_16
REMARK   16  A    between atoms: C_16  and  C_17
REMARK   17  A    between atoms: C_17  and  C_18
REMARK   18  A    between atoms: C_18  and  C_20
REMARK   19  A    between atoms: C_21  and  C_22
REMARK   20  A    between atoms: C_22  and  C_23
REMARK   21  A    between atoms: C_23  and  O_25
REMARK                            x       y       z     vdW  Elec       q    Type
REMARK                         _______ _______ _______ _____ _____    ______ ____
ROOT
ATOM      1  C   UNL     1       4.443   3.566  18.324  0.00  0.00    +0.000 C 
ENDROOT
BRANCH   1   2
ATOM      2  C   UNL     1       4.243   4.111  16.917  0.00  0.00    +0.000 C 
ATOM      3  O   UNL     1       3.125   4.171  16.403  0.00  0.00    +0.000 OA
BRANCH   2   4
ATOM      4  C   UNL     1       5.424   4.585  16.199  0.00  0.00    +0.000 A 
ATOM      5  C   UNL     1       6.331   5.499  16.718  0.00  0.00    +0.000 A 
ATOM      6  N   UNL     1       7.277   5.732  15.749  0.00  0.00    +0.000 N 
ATOM      7  C   UNL     1       6.991   5.039  14.599  0.00  0.00    +0.000 A 
ATOM      8  C   UNL     1       7.626   5.038  13.351  0.00  0.00    +0.000 A 
ATOM      9  C   UNL     1       7.070   4.252  12.333  0.00  0.00    +0.000 A 
ATOM     10  C   UNL     1       5.942   3.480  12.562  0.00  0.00    +0.000 A 
ATOM     11  C   UNL     1       5.333   3.488  13.815  0.00  0.00    +0.000 A 
ATOM     12  C   UNL     1       5.847   4.284  14.861  0.00  0.00    +0.000 A 
ATOM     13  H   UNL     1       8.041   6.386  15.898  0.00  0.00    +0.000 HD
BRANCH   5  14
ATOM     14  C   UNL     1       6.348   6.161  18.060  0.00  0.00    +0.000 C 
BRANCH  14  15
ATOM     15  C   UNL     1       7.655   5.942  18.804  0.00  0.00    +0.000 C 
ATOM     16  O   UNL     1       8.069   4.877  19.236  0.00  0.00    +0.000 OA
BRANCH  15  17
ATOM     17  O   UNL     1       8.369   7.074  18.973  0.00  0.00    +0.000 OA
ATOM     18  H   UNL     1       9.322   6.962  18.797  0.00  0.00    +0.000 HD
ENDBRANCH  15  17
ENDBRANCH  14  15
ENDBRANCH   5  14
ENDBRANCH   2   4
ENDBRANCH   1   2
BRANCH   1  19
ATOM     19  C   UNL     1       4.081   2.096  18.404  0.00  0.00    +0.000 C 
BRANCH  19  20
ATOM     20  C   UNL     1       2.984   1.865  19.432  0.00  0.00    +0.000 C 
BRANCH  20  21
ATOM     21  C   UNL     1       1.651   2.311  18.859  0.00  0.00    +0.000 C 
BRANCH  21  22
ATOM     22  C   UNL     1       0.869   3.092  19.899  0.00  0.00    +0.000 C 
BRANCH  22  23
ATOM     23  C   UNL     1       1.618   3.087  21.218  0.00  0.00    +0.000 C 
BRANCH  23  24
ATOM     24  C   UNL     1       2.203   4.461  21.485  0.00  0.00    +0.000 C 
BRANCH  24  25
ATOM     25  C   UNL     1       1.555   5.484  20.572  0.00  0.00    +0.000 C 
BRANCH  25  26
ATOM     26  C   UNL     1       2.624   6.288  19.857  0.00  0.00    +0.000 C 
BRANCH  26  27
ATOM     27  C   UNL     1       2.147   6.656  18.466  0.00  0.00    +0.000 C 
BRANCH  27  28
ATOM     28  C   UNL     1       2.950   7.832  17.940  0.00  0.00    +0.000 C 
BRANCH  28  29
ATOM     29  C   UNL     1       2.016   8.967  17.561  0.00  0.00    +0.000 C 
BRANCH  29  30
ATOM     30  C   UNL     1       1.386   9.558  18.810  0.00  0.00    +0.000 C 
BRANCH  30  31
ATOM     31  C   UNL     1       0.043  10.180  18.471  0.00  0.00    +0.000 C 
BRANCH  31  32
ATOM     32  C   UNL     1      -0.047  11.583  19.049  0.00  0.00    +0.000 C 
BRANCH  32  34
ATOM     33  C   UNL     1       1.707  12.813  20.335  0.00  0.00    +0.000 C 
ATOM     34  C   UNL     1       1.303  12.279  18.966  0.00  0.00    +0.000 C 
ENDBRANCH  32  34
ENDBRANCH  31  32
ENDBRANCH  30  31
ENDBRANCH  29  30
ENDBRANCH  28  29
ENDBRANCH  27  28
ENDBRANCH  26  27
ENDBRANCH  25  26
ENDBRANCH  24  25
ENDBRANCH  23  24
ENDBRANCH  22  23
ENDBRANCH  21  22
ENDBRANCH  20  21
ENDBRANCH  19  20
ENDBRANCH   1  19
TORSDOF 20
ENDMDL
MODEL 2
REMARK VINA RESULT:      -6.5      4.681     10.592
REMARK  Name = 
REMARK  21 active torsions:
REMARK  status: ('A' for Active; 'I' for Inactive)
REMARK    1  A    between atoms: C_1  and  C_2
REMARK    2  A    between atoms: C_2  and  C_3
REMARK    3  A    between atoms: C_3  and  C_4
REMARK    4  A    between atoms: C_4  and  C_5
REMARK    5  A    between atoms: C_5  and  C_6
REMARK    6  A    between atoms: C_6  and  C_7
REMARK    7  A    between atoms: C_7  and  C_8
REMARK    8  A    between atoms: C_8  and  C_9
REMARK    9  A    between atoms: C_9  and  C_10
REMARK   10  A    between atoms: C_10  and  C_11
REMARK   11  A    between atoms: C_11  and  C_12
REMARK   12  A    between atoms: C_12  and  C_13
REMARK   13  A    between atoms: C_13  and  C_14
REMARK   14  A    between atoms: C_14  and  C_15
REMARK   15  A    between atoms: C_15  and  C_16
REMARK   16  A    between atoms: C_16  and  C_17
REMARK   17  A    between atoms: C_17  and  C_18
REMARK   18  A    between atoms: C_18  and  C_20
REMARK   19  A    between atoms: C_21  and  C_22
REMARK   20  A    between atoms: C_22  and  C_23
REMARK   21  A    between atoms: C_23  and  O_25
REMARK                            x       y       z     vdW  Elec       q    Type
REMARK                         _______ _______ _______ _____ _____    ______ ____
ROOT
ATOM      1  C   UNL     1      -0.270  10.274  22.004  0.00  0.00    +0.000 C 
ENDROOT
BRANCH   1   2
ATOM      2  C   UNL     1      -0.449  11.735  21.614  0.00  0.00    +0.000 C 
ATOM      3  O   UNL     1       0.499  12.522  21.616  0.00  0.00    +0.000 OA
BRANCH   2   4
ATOM      4  C   UNL     1      -1.784  12.172  21.214  0.00  0.00    +0.000 A 
ATOM      5  C   UNL     1      -2.161  12.403  19.897  0.00  0.00    +0.000 A 
ATOM      6  N   UNL     1      -3.465  12.836  19.915  0.00  0.00    +0.000 N 
ATOM      7  C   UNL     1      -3.935  12.944  21.199  0.00  0.00    +0.000 A 
ATOM      8  C   UNL     1      -5.160  13.415  21.688  0.00  0.00    +0.000 A 
ATOM      9  C   UNL     1      -5.341  13.452  23.077  0.00  0.00    +0.000 A 
ATOM     10  C   UNL     1      -4.351  13.011  23.939  0.00  0.00    +0.000 A 
ATOM     11  C   UNL     1      -3.145  12.535  23.430  0.00  0.00    +0.000 A 
ATOM     12  C   UNL     1      -2.911  12.504  22.039  0.00  0.00    +0.000 A 
ATOM     13  H   UNL     1      -3.954  13.085  19.059  0.00  0.00    +0.000 HD
BRANCH   5  14
ATOM     14  C   UNL     1      -1.364  12.243  18.641  0.00  0.00    +0.000 C 
BRANCH  14  15
ATOM     15  C   UNL     1      -2.046  11.342  17.625  0.00  0.00    +0.000 C 
ATOM     16  O   UNL     1      -1.701  10.211  17.318  0.00  0.00    +0.000 OA
BRANCH  15  17
ATOM     17  O   UNL     1      -3.122  11.912  17.044  0.00  0.00    +0.000 OA
ATOM     18  H   UNL     1      -3.213  11.694  16.097  0.00  0.00    +0.000 HD
ENDBRANCH  15  17
ENDBRANCH  14  15
ENDBRANCH   5  14
ENDBRANCH   2   4
ENDBRANCH   1   2
BRANCH   1  19
ATOM     19  C   UNL     1      -0.346   9.366  20.793  0.00  0.00    +0.000 C 
BRANCH  19  20
ATOM     20  C   UNL     1       1.046   9.045  20.270  0.00  0.00    +0.000 C 
BRANCH  20  21
ATOM     21  C   UNL     1       1.304   9.835  19.000  0.00  0.00    +0.000 C 
BRANCH  21  22
ATOM     22  C   UNL     1       1.638   8.894  17.857  0.00  0.00    +0.000 C 
BRANCH  22  23
ATOM     23  C   UNL     1       2.230   7.609  18.404  0.00  0.00    +0.000 C 
BRANCH  23  24
ATOM     24  C   UNL     1       3.512   7.276  17.663  0.00  0.00    +0.000 C 
BRANCH  24  25
ATOM     25  C   UNL     1       4.124   6.011  18.235  0.00  0.00    +0.000 C 
BRANCH  25  26
ATOM     26  C   UNL     1       5.307   5.583  17.387  0.00  0.00    +0.000 C 
BRANCH  26  27
ATOM     27  C   UNL     1       5.059   4.199  16.818  0.00  0.00    +0.000 C 
BRANCH  27  28
ATOM     28  C   UNL     1       3.626   3.780  17.088  0.00  0.00    +0.000 C 
BRANCH  28  29
ATOM     29  C   UNL     1       3.599   2.378  17.669  0.00  0.00    +0.000 C 
BRANCH  29  30
ATOM     30  C   UNL     1       2.289   2.146  18.401  0.00  0.00    +0.000 C 
BRANCH  30  31
ATOM     31  C   UNL     1       1.461   3.419  18.402  0.00  0.00    +0.000 C 
BRANCH  31  32
ATOM     32  C   UNL     1       0.723   3.564  19.723  0.00  0.00    +0.000 C 
BRANCH  32  34
ATOM     33  C   UNL     1       2.428   4.085  21.474  0.00  0.00    +0.000 C 
ATOM     34  C   UNL     1       1.352   4.665  20.564  0.00  0.00    +0.000 C 
ENDBRANCH  32  34
ENDBRANCH  31  32
ENDBRANCH  30  31
ENDBRANCH  29  30
ENDBRANCH  28  29
ENDBRANCH  27  28
ENDBRANCH  26  27
ENDBRANCH  25  26
ENDBRANCH  24  25
ENDBRANCH  23  24
ENDBRANCH  22  23
ENDBRANCH  21  22
ENDBRANCH  20  21
ENDBRANCH  19  20
ENDBRANCH   1  19
TORSDOF 20
ENDMDL
MODEL 3
REMARK VINA RESULT:      -6.4      4.118      8.767
REMARK  Name = 
REMARK  21 active torsions:
REMARK  status: ('A' for Active; 'I' for Inactive)
REMARK    1  A    between atoms: C_1  and  C_2
REMARK    2  A    between atoms: C_2  and  C_3
REMARK    3  A    between atoms: C_3  and  C_4
REMARK    4  A    between atoms: C_4  and  C_5
REMARK    5  A    between atoms: C_5  and  C_6
REMARK    6  A    between atoms: C_6  and  C_7
REMARK    7  A    between atoms: C_7  and  C_8
REMARK    8  A    between atoms: C_8  and  C_9
REMARK    9  A    between atoms: C_9  and  C_10
REMARK   10  A    between atoms: C_10  and  C_11
REMARK   11  A    between atoms: C_11  and  C_12
REMARK   12  A    between atoms: C_12  and  C_13
REMARK   13  A    between atoms: C_13  and  C_14
REMARK   14  A    between atoms: C_14  and  C_15
REMARK   15  A    between atoms: C_15  and  C_16
REMARK   16  A    between atoms: C_16  and  C_17
REMARK   17  A    between atoms: C_17  and  C_18
REMARK   18  A    between atoms: C_18  and  C_20
REMARK   19  A    between atoms: C_21  and  C_22
REMARK   20  A    between atoms: C_22  and  C_23
REMARK   21  A    between atoms: C_23  and  O_25
REMARK                            x       y       z     vdW  Elec       q    Type
REMARK                         _______ _______ _______ _____ _____    ______ ____
ROOT
ATOM      1  C   UNL     1       0.236   8.339  20.722  0.00  0.00    +0.000 C 
ENDROOT
BRANCH   1   2
ATOM      2  C   UNL     1       0.514   9.587  19.897  0.00  0.00    +0.000 C 
ATOM      3  O   UNL     1       1.637   9.827  19.449  0.00  0.00    +0.000 OA
BRANCH   2   4
ATOM      4  C   UNL     1      -0.605  10.489  19.632  0.00  0.00    +0.000 A 
ATOM      5  C   UNL     1      -1.054  11.450  20.529  0.00  0.00    +0.000 A 
ATOM      6  N   UNL     1      -2.138  12.070  19.954  0.00  0.00    +0.000 N 
ATOM      7  C   UNL     1      -2.441  11.514  18.738  0.00  0.00    +0.000 A 
ATOM      8  C   UNL     1      -3.495  11.772  17.852  0.00  0.00    +0.000 A 
ATOM      9  C   UNL     1      -3.575  10.999  16.686  0.00  0.00    +0.000 A 
ATOM     10  C   UNL     1      -2.628  10.029  16.405  0.00  0.00    +0.000 A 
ATOM     11  C   UNL     1      -1.581   9.797  17.294  0.00  0.00    +0.000 A 
ATOM     12  C   UNL     1      -1.476  10.536  18.492  0.00  0.00    +0.000 A 
ATOM     13  H   UNL     1      -2.647  12.806  20.438  0.00  0.00    +0.000 HD
BRANCH   5  14
ATOM     14  C   UNL     1      -0.525  11.804  21.883  0.00  0.00    +0.000 C 
BRANCH  14  15
ATOM     15  C   UNL     1      -1.364  11.226  23.010  0.00  0.00    +0.000 C 
ATOM     16  O   UNL     1      -2.462  11.622  23.368  0.00  0.00    +0.000 OA
BRANCH  15  17
ATOM     17  O   UNL     1      -0.775  10.184  23.633  0.00  0.00    +0.000 OA
ATOM     18  H   UNL     1      -0.751  10.275  24.604  0.00  0.00    +0.000 HD
ENDBRANCH  15  17
ENDBRANCH  14  15
ENDBRANCH   5  14
ENDBRANCH   2   4
ENDBRANCH   1   2
BRANCH   1  19
ATOM     19  C   UNL     1       1.506   7.550  20.973  0.00  0.00    +0.000 C 
BRANCH  19  20
ATOM     20  C   UNL     1       1.351   6.112  20.500  0.00  0.00    +0.000 C 
BRANCH  20  21
ATOM     21  C   UNL     1       2.546   5.297  20.962  0.00  0.00    +0.000 C 
BRANCH  21  22
ATOM     22  C   UNL     1       2.093   3.928  21.436  0.00  0.00    +0.000 C 
BRANCH  22  23
ATOM     23  C   UNL     1       0.970   3.421  20.551  0.00  0.00    +0.000 C 
BRANCH  23  24
ATOM     24  C   UNL     1       1.535   2.538  19.455  0.00  0.00    +0.000 C 
BRANCH  24  25
ATOM     25  C   UNL     1       1.315   3.188  18.102  0.00  0.00    +0.000 C 
BRANCH  25  26
ATOM     26  C   UNL     1       2.610   3.187  17.313  0.00  0.00    +0.000 C 
BRANCH  26  27
ATOM     27  C   UNL     1       3.395   4.450  17.608  0.00  0.00    +0.000 C 
BRANCH  27  28
ATOM     28  C   UNL     1       4.693   4.097  18.311  0.00  0.00    +0.000 C 
BRANCH  28  29
ATOM     29  C   UNL     1       5.486   5.360  18.595  0.00  0.00    +0.000 C 
BRANCH  29  30
ATOM     30  C   UNL     1       5.611   6.189  17.329  0.00  0.00    +0.000 C 
BRANCH  30  31
ATOM     31  C   UNL     1       6.930   5.887  16.639  0.00  0.00    +0.000 C 
BRANCH  31  32
ATOM     32  C   UNL     1       6.826   4.590  15.853  0.00  0.00    +0.000 C 
BRANCH  32  34
ATOM     33  C   UNL     1       6.375   3.888  13.498  0.00  0.00    +0.000 C 
ATOM     34  C   UNL     1       5.910   4.768  14.652  0.00  0.00    +0.000 C 
ENDBRANCH  32  34
ENDBRANCH  31  32
ENDBRANCH  30  31
ENDBRANCH  29  30
ENDBRANCH  28  29
ENDBRANCH  27  28
ENDBRANCH  26  27
ENDBRANCH  25  26
ENDBRANCH  24  25
ENDBRANCH  23  24
ENDBRANCH  22  23
ENDBRANCH  21  22
ENDBRANCH  20  21
ENDBRANCH  19  20
ENDBRANCH   1  19
TORSDOF 20
ENDMDL
MODEL 4
REMARK VINA RESULT:      -6.4      3.594      9.063
REMARK  Name = 
REMARK  21 active torsions:
REMARK  status: ('A' for Active; 'I' for Inactive)
REMARK    1  A    between atoms: C_1  and  C_2
REMARK    2  A    between atoms: C_2  and  C_3
REMARK    3  A    between atoms: C_3  and  C_4
REMARK    4  A    between atoms: C_4  and  C_5
REMARK    5  A    between atoms: C_5  and  C_6
REMARK    6  A    between atoms: C_6  and  C_7
REMARK    7  A    between atoms: C_7  and  C_8
REMARK    8  A    between atoms: C_8  and  C_9
REMARK    9  A    between atoms: C_9  and  C_10
REMARK   10  A    between atoms: C_10  and  C_11
REMARK   11  A    between atoms: C_11  and  C_12
REMARK   12  A    between atoms: C_12  and  C_13
REMARK   13  A    between atoms: C_13  and  C_14
REMARK   14  A    between atoms: C_14  and  C_15
REMARK   15  A    between atoms: C_15  and  C_16
REMARK   16  A    between atoms: C_16  and  C_17
REMARK   17  A    between atoms: C_17  and  C_18
REMARK   18  A    between atoms: C_18  and  C_20
REMARK   19  A    between atoms: C_21  and  C_22
REMARK   20  A    between atoms: C_22  and  C_23
REMARK   21  A    between atoms: C_23  and  O_25
REMARK                            x       y       z     vdW  Elec       q    Type
REMARK                         _______ _______ _______ _____ _____    ______ ____
ROOT
ATOM      1  C   UNL     1       1.891   9.424  17.817  0.00  0.00    +0.000 C 
ENDROOT
BRANCH   1   2
ATOM      2  C   UNL     1       0.898   9.884  18.875  0.00  0.00    +0.000 C 
ATOM      3  O   UNL     1       0.698   9.228  19.898  0.00  0.00    +0.000 OA
BRANCH   2   4
ATOM      4  C   UNL     1       0.201  11.148  18.647  0.00  0.00    +0.000 A 
ATOM      5  C   UNL     1      -0.993  11.259  17.947  0.00  0.00    +0.000 A 
ATOM      6  N   UNL     1      -1.319  12.593  17.905  0.00  0.00    +0.000 N 
ATOM      7  C   UNL     1      -0.356  13.360  18.508  0.00  0.00    +0.000 A 
ATOM      8  C   UNL     1      -0.235  14.750  18.626  0.00  0.00    +0.000 A 
ATOM      9  C   UNL     1       0.904  15.257  19.267  0.00  0.00    +0.000 A 
ATOM     10  C   UNL     1       1.867  14.409  19.791  0.00  0.00    +0.000 A 
ATOM     11  C   UNL     1       1.720  13.029  19.673  0.00  0.00    +0.000 A 
ATOM     12  C   UNL     1       0.601  12.477  19.013  0.00  0.00    +0.000 A 
ATOM     13  H   UNL     1      -2.154  12.921  17.424  0.00  0.00    +0.000 HD
BRANCH   5  14
ATOM     14  C   UNL     1      -1.828  10.187  17.320  0.00  0.00    +0.000 C 
BRANCH  14  15
ATOM     15  C   UNL     1      -2.856  10.739  16.348  0.00  0.00    +0.000 C 
ATOM     16  O   UNL     1      -3.816  11.439  16.633  0.00  0.00    +0.000 OA
BRANCH  15  17
ATOM     17  O   UNL     1      -2.629  10.376  15.068  0.00  0.00    +0.000 OA
ATOM     18  H   UNL     1      -2.110  11.031  14.565  0.00  0.00    +0.000 HD
ENDBRANCH  15  17
ENDBRANCH  14  15
ENDBRANCH   5  14
ENDBRANCH   2   4
ENDBRANCH   1   2
BRANCH   1  19
ATOM     19  C   UNL     1       2.004   7.913  17.786  0.00  0.00    +0.000 C 
BRANCH  19  20
ATOM     20  C   UNL     1       3.429   7.471  18.083  0.00  0.00    +0.000 C 
BRANCH  20  21
ATOM     21  C   UNL     1       4.196   7.329  16.780  0.00  0.00    +0.000 C 
BRANCH  21  22
ATOM     22  C   UNL     1       5.637   6.944  17.061  0.00  0.00    +0.000 C 
BRANCH  22  23
ATOM     23  C   UNL     1       5.908   5.547  16.538  0.00  0.00    +0.000 C 
BRANCH  23  24
ATOM     24  C   UNL     1       6.660   4.742  17.582  0.00  0.00    +0.000 C 
BRANCH  24  25
ATOM     25  C   UNL     1       6.165   5.105  18.969  0.00  0.00    +0.000 C 
BRANCH  25  26
ATOM     26  C   UNL     1       4.817   4.457  19.221  0.00  0.00    +0.000 C 
BRANCH  26  27
ATOM     27  C   UNL     1       4.857   3.002  18.795  0.00  0.00    +0.000 C 
BRANCH  27  28
ATOM     28  C   UNL     1       3.577   2.643  18.065  0.00  0.00    +0.000 C 
BRANCH  28  29
ATOM     29  C   UNL     1       2.941   3.896  17.490  0.00  0.00    +0.000 C 
BRANCH  29  30
ATOM     30  C   UNL     1       1.464   3.933  17.836  0.00  0.00    +0.000 C 
BRANCH  30  31
ATOM     31  C   UNL     1       1.284   4.112  19.333  0.00  0.00    +0.000 C 
BRANCH  31  32
ATOM     32  C   UNL     1       0.814   2.812  19.964  0.00  0.00    +0.000 C 
BRANCH  32  34
ATOM     33  C   UNL     1       2.407   3.631  21.706  0.00  0.00    +0.000 C 
ATOM     34  C   UNL     1       1.171   2.780  21.443  0.00  0.00    +0.000 C 
ENDBRANCH  32  34
ENDBRANCH  31  32
ENDBRANCH  30  31
ENDBRANCH  29  30
ENDBRANCH  28  29
ENDBRANCH  27  28
ENDBRANCH  26  27
ENDBRANCH  25  26
ENDBRANCH  24  25
ENDBRANCH  23  24
ENDBRANCH  22  23
ENDBRANCH  21  22
ENDBRANCH  20  21
ENDBRANCH  19  20
ENDBRANCH   1  19
TORSDOF 20
ENDMDL
MODEL 5
REMARK VINA RESULT:      -6.3      1.452      2.095
REMARK  Name = 
REMARK  21 active torsions:
REMARK  status: ('A' for Active; 'I' for Inactive)
REMARK    1  A    between atoms: C_1  and  C_2
REMARK    2  A    between atoms: C_2  and  C_3
REMARK    3  A    between atoms: C_3  and  C_4
REMARK    4  A    between atoms: C_4  and  C_5
REMARK    5  A    between atoms: C_5  and  C_6
REMARK    6  A    between atoms: C_6  and  C_7
REMARK    7  A    between atoms: C_7  and  C_8
REMARK    8  A    between atoms: C_8  and  C_9
REMARK    9  A    between atoms: C_9  and  C_10
REMARK   10  A    between atoms: C_10  and  C_11
REMARK   11  A    between atoms: C_11  and  C_12
REMARK   12  A    between atoms: C_12  and  C_13
REMARK   13  A    between atoms: C_13  and  C_14
REMARK   14  A    between atoms: C_14  and  C_15
REMARK   15  A    between atoms: C_15  and  C_16
REMARK   16  A    between atoms: C_16  and  C_17
REMARK   17  A    between atoms: C_17  and  C_18
REMARK   18  A    between atoms: C_18  and  C_20
REMARK   19  A    between atoms: C_21  and  C_22
REMARK   20  A    between atoms: C_22  and  C_23
REMARK   21  A    between atoms: C_23  and  O_25
REMARK                            x       y       z     vdW  Elec       q    Type
REMARK                         _______ _______ _______ _____ _____    ______ ____
ROOT
ATOM      1  C   UNL     1       4.606   2.331  17.238  0.00  0.00    +0.000 C 
ENDROOT
BRANCH   1   2
ATOM      2  C   UNL     1       4.455   3.702  16.595  0.00  0.00    +0.000 C 
ATOM      3  O   UNL     1       3.408   4.345  16.690  0.00  0.00    +0.000 OA
BRANCH   2   4
ATOM      4  C   UNL     1       5.605   4.246  15.877  0.00  0.00    +0.000 A 
ATOM      5  C   UNL     1       6.540   5.100  16.446  0.00  0.00    +0.000 A 
ATOM      6  N   UNL     1       7.443   5.430  15.464  0.00  0.00    +0.000 N 
ATOM      7  C   UNL     1       7.102   4.861  14.264  0.00  0.00    +0.000 A 
ATOM      8  C   UNL     1       7.681   4.988  12.995  0.00  0.00    +0.000 A 
ATOM      9  C   UNL     1       7.074   4.313  11.927  0.00  0.00    +0.000 A 
ATOM     10  C   UNL     1       5.953   3.524  12.125  0.00  0.00    +0.000 A 
ATOM     11  C   UNL     1       5.401   3.402  13.398  0.00  0.00    +0.000 A 
ATOM     12  C   UNL     1       5.966   4.085  14.497  0.00  0.00    +0.000 A 
ATOM     13  H   UNL     1       8.217   6.065  15.646  0.00  0.00    +0.000 HD
BRANCH   5  14
ATOM     14  C   UNL     1       6.622   5.619  17.848  0.00  0.00    +0.000 C 
BRANCH  14  15
ATOM     15  C   UNL     1       7.476   6.870  17.960  0.00  0.00    +0.000 C 
ATOM     16  O   UNL     1       8.325   7.090  18.811  0.00  0.00    +0.000 OA
BRANCH  15  17
ATOM     17  O   UNL     1       7.214   7.783  17.001  0.00  0.00    +0.000 OA
ATOM     18  H   UNL     1       6.626   8.502  17.300  0.00  0.00    +0.000 HD
ENDBRANCH  15  17
ENDBRANCH  14  15
ENDBRANCH   5  14
ENDBRANCH   2   4
ENDBRANCH   1   2
BRANCH   1  19
ATOM     19  C   UNL     1       3.302   1.861  17.851  0.00  0.00    +0.000 C 
BRANCH  19  20
ATOM     20  C   UNL     1       3.253   2.191  19.335  0.00  0.00    +0.000 C 
BRANCH  20  21
ATOM     21  C   UNL     1       1.954   2.910  19.651  0.00  0.00    +0.000 C 
BRANCH  21  22
ATOM     22  C   UNL     1       1.954   3.380  21.094  0.00  0.00    +0.000 C 
BRANCH  22  23
ATOM     23  C   UNL     1       2.023   4.895  21.142  0.00  0.00    +0.000 C 
BRANCH  23  24
ATOM     24  C   UNL     1       2.053   5.456  19.733  0.00  0.00    +0.000 C 
BRANCH  24  25
ATOM     25  C   UNL     1       3.373   6.161  19.486  0.00  0.00    +0.000 C 
BRANCH  25  26
ATOM     26  C   UNL     1       3.209   7.191  18.384  0.00  0.00    +0.000 C 
BRANCH  26  27
ATOM     27  C   UNL     1       2.027   8.089  18.690  0.00  0.00    +0.000 C 
BRANCH  27  28
ATOM     28  C   UNL     1       2.129   9.368  17.880  0.00  0.00    +0.000 C 
BRANCH  28  29
ATOM     29  C   UNL     1       1.045  10.340  18.311  0.00  0.00    +0.000 C 
BRANCH  29  30
ATOM     30  C   UNL     1      -0.322   9.785  17.951  0.00  0.00    +0.000 C 
BRANCH  30  31
ATOM     31  C   UNL     1      -1.392  10.447  18.801  0.00  0.00    +0.000 C 
BRANCH  31  32
ATOM     32  C   UNL     1      -2.260  11.351  17.941  0.00  0.00    +0.000 C 
BRANCH  32  34
ATOM     33  C   UNL     1      -4.372  11.397  16.606  0.00  0.00    +0.000 C 
ATOM     34  C   UNL     1      -3.654  10.760  17.790  0.00  0.00    +0.000 C 
ENDBRANCH  32  34
ENDBRANCH  31  32
ENDBRANCH  30  31
ENDBRANCH  29  30
ENDBRANCH  28  29
ENDBRANCH  27  28
ENDBRANCH  26  27
ENDBRANCH  25  26
ENDBRANCH  24  25
ENDBRANCH  23  24
ENDBRANCH  22  23
ENDBRANCH  21  22
ENDBRANCH  20  21
ENDBRANCH  19  20
ENDBRANCH   1  19
TORSDOF 20
ENDMDL
MODEL 6
REMARK VINA RESULT:      -6.3      3.512      7.871
REMARK  Name = 
REMARK  21 active torsions:
REMARK  status: ('A' for Active; 'I' for Inactive)
REMARK    1  A    between atoms: C_1  and  C_2
REMARK    2  A    between atoms: C_2  and  C_3
REMARK    3  A    between atoms: C_3  and  C_4
REMARK    4  A    between atoms: C_4  and  C_5
REMARK    5  A    between atoms: C_5  and  C_6
REMARK    6  A    between atoms: C_6  and  C_7
REMARK    7  A    between atoms: C_7  and  C_8
REMARK    8  A    between atoms: C_8  and  C_9
REMARK    9  A    between atoms: C_9  and  C_10
REMARK   10  A    between atoms: C_10  and  C_11
REMARK   11  A    between atoms: C_11  and  C_12
REMARK   12  A    between atoms: C_12  and  C_13
REMARK   13  A    between atoms: C_13  and  C_14
REMARK   14  A    between atoms: C_14  and  C_15
REMARK   15  A    between atoms: C_15  and  C_16
REMARK   16  A    between atoms: C_16  and  C_17
REMARK   17  A    between atoms: C_17  and  C_18
REMARK   18  A    between atoms: C_18  and  C_20
REMARK   19  A    between atoms: C_21  and  C_22
REMARK   20  A    between atoms: C_22  and  C_23
REMARK   21  A    between atoms: C_23  and  O_25
REMARK                            x       y       z     vdW  Elec       q    Type
REMARK                         _______ _______ _______ _____ _____    ______ ____
ROOT
ATOM      1  C   UNL     1       1.582   8.006  18.122  0.00  0.00    +0.000 C 
ENDROOT
BRANCH   1   2
ATOM      2  C   UNL     1       1.376   9.512  18.048  0.00  0.00    +0.000 C 
ATOM      3  O   UNL     1       2.245  10.259  17.596  0.00  0.00    +0.000 OA
BRANCH   2   4
ATOM      4  C   UNL     1       0.098  10.046  18.513  0.00  0.00    +0.000 A 
ATOM      5  C   UNL     1      -0.135  10.474  19.814  0.00  0.00    +0.000 A 
ATOM      6  N   UNL     1      -1.450  10.868  19.885  0.00  0.00    +0.000 N 
ATOM      7  C   UNL     1      -2.094  10.666  18.691  0.00  0.00    +0.000 A 
ATOM      8  C   UNL     1      -3.437  10.845  18.335  0.00  0.00    +0.000 A 
ATOM      9  C   UNL     1      -3.821  10.504  17.031  0.00  0.00    +0.000 A 
ATOM     10  C   UNL     1      -2.897  10.028  16.115  0.00  0.00    +0.000 A 
ATOM     11  C   UNL     1      -1.564   9.869  16.488  0.00  0.00    +0.000 A 
ATOM     12  C   UNL     1      -1.139  10.177  17.798  0.00  0.00    +0.000 A 
ATOM     13  H   UNL     1      -1.857  11.207  20.753  0.00  0.00    +0.000 HD
BRANCH   5  14
ATOM     14  C   UNL     1       0.803  10.524  20.978  0.00  0.00    +0.000 C 
BRANCH  14  15
ATOM     15  C   UNL     1       0.409   9.567  22.090  0.00  0.00    +0.000 C 
ATOM     16  O   UNL     1      -0.425   8.678  22.015  0.00  0.00    +0.000 OA
BRANCH  15  17
ATOM     17  O   UNL     1       1.079   9.782  23.242  0.00  0.00    +0.000 OA
ATOM     18  H   UNL     1       1.198   8.975  23.778  0.00  0.00    +0.000 HD
ENDBRANCH  15  17
ENDBRANCH  14  15
ENDBRANCH   5  14
ENDBRANCH   2   4
ENDBRANCH   1   2
BRANCH   1  19
ATOM     19  C   UNL     1       2.185   7.595  19.450  0.00  0.00    +0.000 C 
BRANCH  19  20
ATOM     20  C   UNL     1       2.362   6.086  19.520  0.00  0.00    +0.000 C 
BRANCH  20  21
ATOM     21  C   UNL     1       1.598   5.542  20.714  0.00  0.00    +0.000 C 
BRANCH  21  22
ATOM     22  C   UNL     1       1.010   4.182  20.384  0.00  0.00    +0.000 C 
BRANCH  22  23
ATOM     23  C   UNL     1       1.337   3.197  21.489  0.00  0.00    +0.000 C 
BRANCH  23  24
ATOM     24  C   UNL     1       2.693   2.566  21.233  0.00  0.00    +0.000 C 
BRANCH  24  25
ATOM     25  C   UNL     1       2.853   2.266  19.755  0.00  0.00    +0.000 C 
BRANCH  25  26
ATOM     26  C   UNL     1       4.309   2.410  19.354  0.00  0.00    +0.000 C 
BRANCH  26  27
ATOM     27  C   UNL     1       4.502   3.692  18.567  0.00  0.00    +0.000 C 
BRANCH  27  28
ATOM     28  C   UNL     1       4.367   3.411  17.083  0.00  0.00    +0.000 C 
BRANCH  28  29
ATOM     29  C   UNL     1       4.781   4.634  16.285  0.00  0.00    +0.000 C 
BRANCH  29  30
ATOM     30  C   UNL     1       5.021   5.805  17.221  0.00  0.00    +0.000 C 
BRANCH  30  31
ATOM     31  C   UNL     1       6.001   6.781  16.593  0.00  0.00    +0.000 C 
BRANCH  31  32
ATOM     32  C   UNL     1       7.212   6.962  17.495  0.00  0.00    +0.000 C 
BRANCH  32  34
ATOM     33  C   UNL     1       8.220   5.241  19.000  0.00  0.00    +0.000 C 
ATOM     34  C   UNL     1       7.035   6.175  18.785  0.00  0.00    +0.000 C 
ENDBRANCH  32  34
ENDBRANCH  31  32
ENDBRANCH  30  31
ENDBRANCH  29  30
ENDBRANCH  28  29
ENDBRANCH  27  28
ENDBRANCH  26  27
ENDBRANCH  25  26
ENDBRANCH  24  25
ENDBRANCH  23  24
ENDBRANCH  22  23
ENDBRANCH  21  22
ENDBRANCH  20  21
ENDBRANCH  19  20
ENDBRANCH   1  19
TORSDOF 20
ENDMDL
MODEL 7
REMARK VINA RESULT:      -6.3      3.796      9.056
REMARK  Name = 
REMARK  21 active torsions:
REMARK  status: ('A' for Active; 'I' for Inactive)
REMARK    1  A    between atoms: C_1  and  C_2
REMARK    2  A    between atoms: C_2  and  C_3
REMARK    3  A    between atoms: C_3  and  C_4
REMARK    4  A    between atoms: C_4  and  C_5
REMARK    5  A    between atoms: C_5  and  C_6
REMARK    6  A    between atoms: C_6  and  C_7
REMARK    7  A    between atoms: C_7  and  C_8
REMARK    8  A    between atoms: C_8  and  C_9
REMARK    9  A    between atoms: C_9  and  C_10
REMARK   10  A    between atoms: C_10  and  C_11
REMARK   11  A    between atoms: C_11  and  C_12
REMARK   12  A    between atoms: C_12  and  C_13
REMARK   13  A    between atoms: C_13  and  C_14
REMARK   14  A    between atoms: C_14  and  C_15
REMARK   15  A    between atoms: C_15  and  C_16
REMARK   16  A    between atoms: C_16  and  C_17
REMARK   17  A    between atoms: C_17  and  C_18
REMARK   18  A    between atoms: C_18  and  C_20
REMARK   19  A    between atoms: C_21  and  C_22
REMARK   20  A    between atoms: C_22  and  C_23
REMARK   21  A    between atoms: C_23  and  O_25
REMARK                            x       y       z     vdW  Elec       q    Type
REMARK                         _______ _______ _______ _____ _____    ______ ____
ROOT
ATOM      1  C   UNL     1       2.028   9.436  18.426  0.00  0.00    +0.000 C 
ENDROOT
BRANCH   1   2
ATOM      2  C   UNL     1       0.525   9.598  18.251  0.00  0.00    +0.000 C 
ATOM      3  O   UNL     1      -0.065   9.121  17.279  0.00  0.00    +0.000 OA
BRANCH   2   4
ATOM      4  C   UNL     1      -0.206  10.322  19.288  0.00  0.00    +0.000 A 
ATOM      5  C   UNL     1      -0.963  11.461  19.050  0.00  0.00    +0.000 A 
ATOM      6  N   UNL     1      -1.463  11.880  20.260  0.00  0.00    +0.000 N 
ATOM      7  C   UNL     1      -1.018  11.084  21.284  0.00  0.00    +0.000 A 
ATOM      8  C   UNL     1      -1.206  11.184  22.668  0.00  0.00    +0.000 A 
ATOM      9  C   UNL     1      -0.578  10.234  23.485  0.00  0.00    +0.000 A 
ATOM     10  C   UNL     1       0.182   9.213  22.940  0.00  0.00    +0.000 A 
ATOM     11  C   UNL     1       0.345   9.125  21.560  0.00  0.00    +0.000 A 
ATOM     12  C   UNL     1      -0.248  10.075  20.701  0.00  0.00    +0.000 A 
ATOM     13  H   UNL     1      -2.040  12.715  20.336  0.00  0.00    +0.000 HD
BRANCH   5  14
ATOM     14  C   UNL     1      -1.232  12.169  17.759  0.00  0.00    +0.000 C 
BRANCH  14  15
ATOM     15  C   UNL     1      -2.486  11.666  17.065  0.00  0.00    +0.000 C 
ATOM     16  O   UNL     1      -2.531  11.062  16.005  0.00  0.00    +0.000 OA
BRANCH  15  17
ATOM     17  O   UNL     1      -3.620  11.955  17.738  0.00  0.00    +0.000 OA
ATOM     18  H   UNL     1      -4.416  11.544  17.351  0.00  0.00    +0.000 HD
ENDBRANCH  15  17
ENDBRANCH  14  15
ENDBRANCH   5  14
ENDBRANCH   2   4
ENDBRANCH   1   2
BRANCH   1  19
ATOM     19  C   UNL     1       2.615   8.535  17.359  0.00  0.00    +0.000 C 
BRANCH  19  20
ATOM     20  C   UNL     1       3.325   7.345  17.987  0.00  0.00    +0.000 C 
BRANCH  20  21
ATOM     21  C   UNL     1       2.297   6.395  18.574  0.00  0.00    +0.000 C 
BRANCH  21  22
ATOM     22  C   UNL     1       2.820   5.790  19.864  0.00  0.00    +0.000 C 
BRANCH  22  23
ATOM     23  C   UNL     1       1.668   5.531  20.816  0.00  0.00    +0.000 C 
BRANCH  23  24
ATOM     24  C   UNL     1       0.989   4.223  20.461  0.00  0.00    +0.000 C 
BRANCH  24  25
ATOM     25  C   UNL     1       1.916   3.061  20.762  0.00  0.00    +0.000 C 
BRANCH  25  26
ATOM     26  C   UNL     1       1.831   2.031  19.651  0.00  0.00    +0.000 C 
BRANCH  26  27
ATOM     27  C   UNL     1       2.953   2.253  18.656  0.00  0.00    +0.000 C 
BRANCH  27  28
ATOM     28  C   UNL     1       2.416   2.954  17.422  0.00  0.00    +0.000 C 
BRANCH  28  29
ATOM     29  C   UNL     1       3.557   3.609  16.663  0.00  0.00    +0.000 C 
BRANCH  29  30
ATOM     30  C   UNL     1       4.758   3.775  17.577  0.00  0.00    +0.000 C 
BRANCH  30  31
ATOM     31  C   UNL     1       5.734   4.772  16.976  0.00  0.00    +0.000 C 
BRANCH  31  32
ATOM     32  C   UNL     1       5.519   4.878  15.475  0.00  0.00    +0.000 C 
BRANCH  32  34
ATOM     33  C   UNL     1       6.446   4.159  13.269  0.00  0.00    +0.000 C 
ATOM     34  C   UNL     1       6.325   3.812  14.748  0.00  0.00    +0.000 C 
ENDBRANCH  32  34
ENDBRANCH  31  32
ENDBRANCH  30  31
ENDBRANCH  29  30
ENDBRANCH  28  29
ENDBRANCH  27  28
ENDBRANCH  26  27
ENDBRANCH  25  26
ENDBRANCH  24  25
ENDBRANCH  23  24
ENDBRANCH  22  23
ENDBRANCH  21  22
ENDBRANCH  20  21
ENDBRANCH  19  20
ENDBRANCH   1  19
TORSDOF 20
ENDMDL
MODEL 8
REMARK VINA RESULT:      -6.3      3.489      6.577
REMARK  Name = 
REMARK  21 active torsions:
REMARK  status: ('A' for Active; 'I' for Inactive)
REMARK    1  A    between atoms: C_1  and  C_2
REMARK    2  A    between atoms: C_2  and  C_3
REMARK    3  A    between atoms: C_3  and  C_4
REMARK    4  A    between atoms: C_4  and  C_5
REMARK    5  A    between atoms: C_5  and  C_6
REMARK    6  A    between atoms: C_6  and  C_7
REMARK    7  A    between atoms: C_7  and  C_8
REMARK    8  A    between atoms: C_8  and  C_9
REMARK    9  A    between atoms: C_9  and  C_10
REMARK   10  A    between atoms: C_10  and  C_11
REMARK   11  A    between atoms: C_11  and  C_12
REMARK   12  A    between atoms: C_12  and  C_13
REMARK   13  A    between atoms: C_13  and  C_14
REMARK   14  A    between atoms: C_14  and  C_15
REMARK   15  A    between atoms: C_15  and  C_16
REMARK   16  A    between atoms: C_16  and  C_17
REMARK   17  A    between atoms: C_17  and  C_18
REMARK   18  A    between atoms: C_18  and  C_20
REMARK   19  A    between atoms: C_21  and  C_22
REMARK   20  A    between atoms: C_22  and  C_23
REMARK   21  A    between atoms: C_23  and  O_25
REMARK                            x       y       z     vdW  Elec       q    Type
REMARK                         _______ _______ _______ _____ _____    ______ ____
ROOT
ATOM      1  C   UNL     1       2.102   7.980  17.837  0.00  0.00    +0.000 C 
ENDROOT
BRANCH   1   2
ATOM      2  C   UNL     1       2.636   6.799  18.635  0.00  0.00    +0.000 C 
ATOM      3  O   UNL     1       2.507   6.739  19.859  0.00  0.00    +0.000 OA
BRANCH   2   4
ATOM      4  C   UNL     1       3.289   5.721  17.897  0.00  0.00    +0.000 A 
ATOM      5  C   UNL     1       2.697   4.492  17.635  0.00  0.00    +0.000 A 
ATOM      6  N   UNL     1       3.621   3.729  16.961  0.00  0.00    +0.000 N 
ATOM      7  C   UNL     1       4.809   4.398  16.819  0.00  0.00    +0.000 A 
ATOM      8  C   UNL     1       6.033   3.984  16.278  0.00  0.00    +0.000 A 
ATOM      9  C   UNL     1       7.105   4.886  16.314  0.00  0.00    +0.000 A 
ATOM     10  C   UNL     1       6.952   6.157  16.843  0.00  0.00    +0.000 A 
ATOM     11  C   UNL     1       5.723   6.552  17.364  0.00  0.00    +0.000 A 
ATOM     12  C   UNL     1       4.624   5.667  17.371  0.00  0.00    +0.000 A 
ATOM     13  H   UNL     1       3.415   2.775  16.676  0.00  0.00    +0.000 HD
BRANCH   5  14
ATOM     14  C   UNL     1       1.327   4.005  17.986  0.00  0.00    +0.000 C 
BRANCH  14  15
ATOM     15  C   UNL     1       1.353   2.795  18.904  0.00  0.00    +0.000 C 
ATOM     16  O   UNL     1       1.073   2.785  20.093  0.00  0.00    +0.000 OA
BRANCH  15  17
ATOM     17  O   UNL     1       1.736   1.661  18.281  0.00  0.00    +0.000 OA
ATOM     18  H   UNL     1       1.070   1.317  17.657  0.00  0.00    +0.000 HD
ENDBRANCH  15  17
ENDBRANCH  14  15
ENDBRANCH   5  14
ENDBRANCH   2   4
ENDBRANCH   1   2
BRANCH   1  19
ATOM     19  C   UNL     1       1.597   9.080  18.749  0.00  0.00    +0.000 C 
BRANCH  19  20
ATOM     20  C   UNL     1       0.439   9.827  18.105  0.00  0.00    +0.000 C 
BRANCH  20  21
ATOM     21  C   UNL     1      -0.623  10.114  19.151  0.00  0.00    +0.000 C 
BRANCH  21  22
ATOM     22  C   UNL     1      -0.530  11.557  19.609  0.00  0.00    +0.000 C 
BRANCH  22  23
ATOM     23  C   UNL     1      -0.086  11.611  21.058  0.00  0.00    +0.000 C 
BRANCH  23  24
ATOM     24  C   UNL     1      -0.526  10.352  21.780  0.00  0.00    +0.000 C 
BRANCH  24  25
ATOM     25  C   UNL     1      -1.045  10.703  23.161  0.00  0.00    +0.000 C 
BRANCH  25  26
ATOM     26  C   UNL     1      -1.606  12.112  23.158  0.00  0.00    +0.000 C 
BRANCH  26  27
ATOM     27  C   UNL     1      -3.000  12.113  23.756  0.00  0.00    +0.000 C 
BRANCH  27  28
ATOM     28  C   UNL     1      -3.985  12.703  22.765  0.00  0.00    +0.000 C 
BRANCH  28  29
ATOM     29  C   UNL     1      -3.358  13.890  22.056  0.00  0.00    +0.000 C 
BRANCH  29  30
ATOM     30  C   UNL     1      -3.706  13.854  20.579  0.00  0.00    +0.000 C 
BRANCH  30  31
ATOM     31  C   UNL     1      -4.023  12.432  20.153  0.00  0.00    +0.000 C 
BRANCH  31  32
ATOM     32  C   UNL     1      -5.243  12.415  19.246  0.00  0.00    +0.000 C 
BRANCH  32  34
ATOM     33  C   UNL     1      -7.042  11.622  20.788  0.00  0.00    +0.000 C 
ATOM     34  C   UNL     1      -6.487  12.817  20.023  0.00  0.00    +0.000 C 
ENDBRANCH  32  34
ENDBRANCH  31  32
ENDBRANCH  30  31
ENDBRANCH  29  30
ENDBRANCH  28  29
ENDBRANCH  27  28
ENDBRANCH  26  27
ENDBRANCH  25  26
ENDBRANCH  24  25
ENDBRANCH  23  24
ENDBRANCH  22  23
ENDBRANCH  21  22
ENDBRANCH  20  21
ENDBRANCH  19  20
ENDBRANCH   1  19
TORSDOF 20
ENDMDL
MODEL 9
REMARK VINA RESULT:      -6.3      3.771      8.358
REMARK  Name = 
REMARK  21 active torsions:
REMARK  status: ('A' for Active; 'I' for Inactive)
REMARK    1  A    between atoms: C_1  and  C_2
REMARK    2  A    between atoms: C_2  and  C_3
REMARK    3  A    between atoms: C_3  and  C_4
REMARK    4  A    between atoms: C_4  and  C_5
REMARK    5  A    between atoms: C_5  and  C_6
REMARK    6  A    between atoms: C_6  and  C_7
REMARK    7  A    between atoms: C_7  and  C_8
REMARK    8  A    between atoms: C_8  and  C_9
REMARK    9  A    between atoms: C_9  and  C_10
REMARK   10  A    between atoms: C_10  and  C_11
REMARK   11  A    between atoms: C_11  and  C_12
REMARK   12  A    between atoms: C_12  and  C_13
REMARK   13  A    between atoms: C_13  and  C_14
REMARK   14  A    between atoms: C_14  and  C_15
REMARK   15  A    between atoms: C_15  and  C_16
REMARK   16  A    between atoms: C_16  and  C_17
REMARK   17  A    between atoms: C_17  and  C_18
REMARK   18  A    between atoms: C_18  and  C_20
REMARK   19  A    between atoms: C_21  and  C_22
REMARK   20  A    between atoms: C_22  and  C_23
REMARK   21  A    between atoms: C_23  and  O_25
REMARK                            x       y       z     vdW  Elec       q    Type
REMARK                         _______ _______ _______ _____ _____    ______ ____
ROOT
ATOM      1  C   UNL     1       1.309   9.065  17.817  0.00  0.00    +0.000 C 
ENDROOT
BRANCH   1   2
ATOM      2  C   UNL     1       1.193  10.520  18.247  0.00  0.00    +0.000 C 
ATOM      3  O   UNL     1       2.148  11.295  18.161  0.00  0.00    +0.000 OA
BRANCH   2   4
ATOM      4  C   UNL     1      -0.101  10.980  18.747  0.00  0.00    +0.000 A 
ATOM      5  C   UNL     1      -0.311  11.444  20.039  0.00  0.00    +0.000 A 
ATOM      6  N   UNL     1      -1.647  11.745  20.152  0.00  0.00    +0.000 N 
ATOM      7  C   UNL     1      -2.324  11.447  18.997  0.00  0.00    +0.000 A 
ATOM      8  C   UNL     1      -3.690  11.514  18.694  0.00  0.00    +0.000 A 
ATOM      9  C   UNL     1      -4.100  11.091  17.423  0.00  0.00    +0.000 A 
ATOM     10  C   UNL     1      -3.182  10.645  16.486  0.00  0.00    +0.000 A 
ATOM     11  C   UNL     1      -1.827  10.598  16.805  0.00  0.00    +0.000 A 
ATOM     12  C   UNL     1      -1.373  10.991  18.082  0.00  0.00    +0.000 A 
ATOM     13  H   UNL     1      -2.042  12.091  21.024  0.00  0.00    +0.000 HD
BRANCH   5  14
ATOM     14  C   UNL     1       0.668  11.611  21.158  0.00  0.00    +0.000 C 
BRANCH  14  15
ATOM     15  C   UNL     1       0.494  10.568  22.249  0.00  0.00    +0.000 C 
ATOM     16  O   UNL     1       1.131   9.533  22.366  0.00  0.00    +0.000 OA
BRANCH  15  17
ATOM     17  O   UNL     1      -0.478  10.878  23.132  0.00  0.00    +0.000 OA
ATOM     18  H   UNL     1      -1.265  11.281  22.719  0.00  0.00    +0.000 HD
ENDBRANCH  15  17
ENDBRANCH  14  15
ENDBRANCH   5  14
ENDBRANCH   2   4
ENDBRANCH   1   2
BRANCH   1  19
ATOM     19  C   UNL     1       1.818   8.194  18.948  0.00  0.00    +0.000 C 
BRANCH  19  20
ATOM     20  C   UNL     1       2.621   7.021  18.407  0.00  0.00    +0.000 C 
BRANCH  20  21
ATOM     21  C   UNL     1       3.084   6.149  19.560  0.00  0.00    +0.000 C 
BRANCH  21  22
ATOM     22  C   UNL     1       1.940   5.909  20.527  0.00  0.00    +0.000 C 
BRANCH  22  23
ATOM     23  C   UNL     1       2.008   4.493  21.067  0.00  0.00    +0.000 C 
BRANCH  23  24
ATOM     24  C   UNL     1       2.169   3.512  19.921  0.00  0.00    +0.000 C 
BRANCH  24  25
ATOM     25  C   UNL     1       3.441   2.707  20.106  0.00  0.00    +0.000 C 
BRANCH  25  26
ATOM     26  C   UNL     1       4.349   2.894  18.905  0.00  0.00    +0.000 C 
BRANCH  26  27
ATOM     27  C   UNL     1       3.519   2.971  17.639  0.00  0.00    +0.000 C 
BRANCH  27  28
ATOM     28  C   UNL     1       4.024   4.099  16.760  0.00  0.00    +0.000 C 
BRANCH  28  29
ATOM     29  C   UNL     1       5.407   3.762  16.232  0.00  0.00    +0.000 C 
BRANCH  29  30
ATOM     30  C   UNL     1       6.100   5.025  15.750  0.00  0.00    +0.000 C 
BRANCH  30  31
ATOM     31  C   UNL     1       5.385   6.249  16.295  0.00  0.00    +0.000 C 
BRANCH  31  32
ATOM     32  C   UNL     1       6.295   7.007  17.248  0.00  0.00    +0.000 C 
BRANCH  32  34
ATOM     33  C   UNL     1       7.206   5.674  19.156  0.00  0.00    +0.000 C 
ATOM     34  C   UNL     1       7.435   6.114  17.715  0.00  0.00    +0.000 C 
ENDBRANCH  32  34
ENDBRANCH  31  32
ENDBRANCH  30  31
ENDBRANCH  29  30
ENDBRANCH  28  29
ENDBRANCH  27  28
ENDBRANCH  26  27
ENDBRANCH  25  26
ENDBRANCH  24  25
ENDBRANCH  23  24
ENDBRANCH  22  23
ENDBRANCH  21  22
ENDBRANCH  20  21
ENDBRANCH  19  20
ENDBRANCH   1  19
TORSDOF 20
ENDMDL
