MODEL 1
REMARK VINA RESULT:      -7.3      0.000      0.000
REMARK  Name = 
REMARK  6 active torsions:
REMARK  status: ('A' for Active; 'I' for Inactive)
REMARK    1  A    between atoms: C_1  and  O_2
REMARK    2  A    between atoms: O_2  and  C_3
REMARK    3  A    between atoms: C_3  and  C_4
REMARK    4  A    between atoms: C_4  and  N_5
REMARK    5  A    between atoms: C_15  and  C_17
REMARK    6  A    between atoms: C_17  and  C_18
REMARK                            x       y       z     vdW  Elec       q    Type
REMARK                         _______ _______ _______ _____ _____    ______ ____
ROOT
ATOM      1  N   UNL     1       3.323   3.717  18.785  0.00  0.00    +0.000 N 
ATOM      2  C   UNL     1       2.438   4.783  19.027  0.00  0.00    +0.000 A 
ATOM      3  C   UNL     1       1.882   4.966  20.249  0.00  0.00    +0.000 A 
ATOM      4  C   UNL     1       2.104   3.984  21.284  0.00  0.00    +0.000 A 
ATOM      5  C   UNL     1       2.899   2.924  21.066  0.00  0.00    +0.000 A 
ATOM      6  C   UNL     1       3.579   2.746  19.767  0.00  0.00    +0.000 A 
ATOM      7  O   UNL     1       4.304   1.762  19.620  0.00  0.00    +0.000 OA
ATOM      8  C   UNL     1       1.090   6.216  20.622  0.00  0.00    +0.000 C 
ATOM      9  C   UNL     1       1.900   7.534  20.521  0.00  0.00    +0.000 C 
ATOM     10  N   UNL     1       2.185   7.970  19.139  0.00  0.00    +0.000 N 
ATOM     11  C   UNL     1       1.717   9.110  18.499  0.00  0.00    +0.000 C 
ATOM     12  O   UNL     1       2.030   9.374  17.332  0.00  0.00    +0.000 OA
ATOM     13  C   UNL     1       2.991   7.061  18.331  0.00  0.00    +0.000 C 
ATOM     14  C   UNL     1       2.184   5.818  17.959  0.00  0.00    +0.000 C 
ENDROOT
BRANCH   1  15
ATOM     15  C   UNL     1       4.058   3.569  17.514  0.00  0.00    +0.000 C 
BRANCH  15  16
ATOM     16  C   UNL     1       5.412   4.296  17.402  0.00  0.00    +0.000 C 
BRANCH  16  18
ATOM     17  C   UNL     1       5.487   4.402  15.055  0.00  0.00    +0.000 C 
ATOM     18  O   UNL     1       5.477   5.155  16.264  0.00  0.00    +0.000 OA
ENDBRANCH  16  18
ENDBRANCH  15  16
ENDBRANCH   1  15
BRANCH  11  19
ATOM     19  C   UNL     1       0.782  10.048  19.233  0.00  0.00    +0.000 C 
BRANCH  19  20
ATOM     20  C   UNL     1      -0.421  10.397  18.407  0.00  0.00    +0.000 A 
ATOM     21  C   UNL     1      -1.159   9.614  17.539  0.00  0.00    +0.000 A 
ATOM     22  C   UNL     1      -2.292  10.305  17.015  0.00  0.00    +0.000 A 
ATOM     23  C   UNL     1      -2.378  11.591  17.494  0.00  0.00    +0.000 A 
ATOM     24  S   UNL     1      -1.101  11.965  18.563  0.00  0.00    +0.000 S 
ENDBRANCH  19  20
ENDBRANCH  11  19
TORSDOF 5
ENDMDL
MODEL 2
REMARK VINA RESULT:      -7.0      1.400      1.985
REMARK  Name = 
REMARK  6 active torsions:
REMARK  status: ('A' for Active; 'I' for Inactive)
REMARK    1  A    between atoms: C_1  and  O_2
REMARK    2  A    between atoms: O_2  and  C_3
REMARK    3  A    between atoms: C_3  and  C_4
REMARK    4  A    between atoms: C_4  and  N_5
REMARK    5  A    between atoms: C_15  and  C_17
REMARK    6  A    between atoms: C_17  and  C_18
REMARK                            x       y       z     vdW  Elec       q    Type
REMARK                         _______ _______ _______ _____ _____    ______ ____
ROOT
ATOM      1  N   UNL     1       3.727   3.668  19.054  0.00  0.00    +0.000 N 
ATOM      2  C   UNL     1       2.728   4.655  19.125  0.00  0.00    +0.000 A 
ATOM      3  C   UNL     1       1.981   4.815  20.245  0.00  0.00    +0.000 A 
ATOM      4  C   UNL     1       2.127   3.878  21.334  0.00  0.00    +0.000 A 
ATOM      5  C   UNL     1       3.033   2.890  21.274  0.00  0.00    +0.000 A 
ATOM      6  C   UNL     1       3.913   2.744  20.097  0.00  0.00    +0.000 A 
ATOM      7  O   UNL     1       4.733   1.826  20.093  0.00  0.00    +0.000 OA
ATOM      8  C   UNL     1       1.039   5.996  20.452  0.00  0.00    +0.000 C 
ATOM      9  C   UNL     1       1.740   7.379  20.426  0.00  0.00    +0.000 C 
ATOM     10  N   UNL     1       2.192   7.809  19.087  0.00  0.00    +0.000 N 
ATOM     11  C   UNL     1       1.731   8.888  18.346  0.00  0.00    +0.000 C 
ATOM     12  O   UNL     1       2.192   9.154  17.229  0.00  0.00    +0.000 OA
ATOM     13  C   UNL     1       3.185   6.958  18.440  0.00  0.00    +0.000 C 
ATOM     14  C   UNL     1       2.551   5.640  17.996  0.00  0.00    +0.000 C 
ENDROOT
BRANCH   1  15
ATOM     15  C   UNL     1       4.654   3.558  17.912  0.00  0.00    +0.000 C 
BRANCH  15  16
ATOM     16  C   UNL     1       5.919   4.437  17.953  0.00  0.00    +0.000 C 
BRANCH  16  18
ATOM     17  C   UNL     1       5.317   4.662  15.693  0.00  0.00    +0.000 C 
ATOM     18  O   UNL     1       6.091   5.200  16.760  0.00  0.00    +0.000 OA
ENDBRANCH  16  18
ENDBRANCH  15  16
ENDBRANCH   1  15
BRANCH  11  19
ATOM     19  C   UNL     1       0.619   9.755  18.900  0.00  0.00    +0.000 C 
BRANCH  19  20
ATOM     20  C   UNL     1       1.129  11.090  19.357  0.00  0.00    +0.000 A 
ATOM     21  C   UNL     1       1.807  12.070  18.656  0.00  0.00    +0.000 A 
ATOM     22  C   UNL     1       2.035  13.239  19.440  0.00  0.00    +0.000 A 
ATOM     23  C   UNL     1       1.531  13.113  20.713  0.00  0.00    +0.000 A 
ATOM     24  S   UNL     1       0.793  11.594  20.963  0.00  0.00    +0.000 S 
ENDBRANCH  19  20
ENDBRANCH  11  19
TORSDOF 5
ENDMDL
MODEL 3
REMARK VINA RESULT:      -6.8      1.311      1.522
REMARK  Name = 
REMARK  6 active torsions:
REMARK  status: ('A' for Active; 'I' for Inactive)
REMARK    1  A    between atoms: C_1  and  O_2
REMARK    2  A    between atoms: O_2  and  C_3
REMARK    3  A    between atoms: C_3  and  C_4
REMARK    4  A    between atoms: C_4  and  N_5
REMARK    5  A    between atoms: C_15  and  C_17
REMARK    6  A    between atoms: C_17  and  C_18
REMARK                            x       y       z     vdW  Elec       q    Type
REMARK                         _______ _______ _______ _____ _____    ______ ____
ROOT
ATOM      1  N   UNL     1       3.735   3.894  18.997  0.00  0.00    +0.000 N 
ATOM      2  C   UNL     1       2.690   4.814  19.192  0.00  0.00    +0.000 A 
ATOM      3  C   UNL     1       1.951   4.803  20.329  0.00  0.00    +0.000 A 
ATOM      4  C   UNL     1       2.158   3.753  21.298  0.00  0.00    +0.000 A 
ATOM      5  C   UNL     1       3.111   2.825  21.114  0.00  0.00    +0.000 A 
ATOM      6  C   UNL     1       3.981   2.865  19.921  0.00  0.00    +0.000 A 
ATOM      7  O   UNL     1       4.845   1.997  19.802  0.00  0.00    +0.000 OA
ATOM      8  C   UNL     1       0.954   5.902  20.682  0.00  0.00    +0.000 C 
ATOM      9  C   UNL     1       1.586   7.312  20.815  0.00  0.00    +0.000 C 
ATOM     10  N   UNL     1       1.997   7.919  19.533  0.00  0.00    +0.000 N 
ATOM     11  C   UNL     1       1.473   9.053  18.928  0.00  0.00    +0.000 C 
ATOM     12  O   UNL     1       1.905   9.472  17.848  0.00  0.00    +0.000 OA
ATOM     13  C   UNL     1       3.022   7.202  18.782  0.00  0.00    +0.000 C 
ATOM     14  C   UNL     1       2.448   5.916  18.189  0.00  0.00    +0.000 C 
ENDROOT
BRANCH   1  15
ATOM     15  C   UNL     1       4.651   3.967  17.842  0.00  0.00    +0.000 C 
BRANCH  15  16
ATOM     16  C   UNL     1       5.952   4.770  18.035  0.00  0.00    +0.000 C 
BRANCH  16  18
ATOM     17  C   UNL     1       6.517   4.320  15.798  0.00  0.00    +0.000 C 
ATOM     18  O   UNL     1       6.986   4.354  17.143  0.00  0.00    +0.000 OA
ENDBRANCH  16  18
ENDBRANCH  15  16
ENDBRANCH   1  15
BRANCH  11  19
ATOM     19  C   UNL     1       0.328   9.791  19.591  0.00  0.00    +0.000 C 
BRANCH  19  20
ATOM     20  C   UNL     1       0.265  11.227  19.160  0.00  0.00    +0.000 A 
ATOM     21  C   UNL     1      -0.665  11.879  18.372  0.00  0.00    +0.000 A 
ATOM     22  C   UNL     1      -0.409  13.278  18.274  0.00  0.00    +0.000 A 
ATOM     23  C   UNL     1       0.710  13.648  18.983  0.00  0.00    +0.000 A 
ATOM     24  S   UNL     1       1.449  12.318  19.756  0.00  0.00    +0.000 S 
ENDBRANCH  19  20
ENDBRANCH  11  19
TORSDOF 5
ENDMDL
MODEL 4
REMARK VINA RESULT:      -6.6      0.770      1.011
REMARK  Name = 
REMARK  6 active torsions:
REMARK  status: ('A' for Active; 'I' for Inactive)
REMARK    1  A    between atoms: C_1  and  O_2
REMARK    2  A    between atoms: O_2  and  C_3
REMARK    3  A    between atoms: C_3  and  C_4
REMARK    4  A    between atoms: C_4  and  N_5
REMARK    5  A    between atoms: C_15  and  C_17
REMARK    6  A    between atoms: C_17  and  C_18
REMARK                            x       y       z     vdW  Elec       q    Type
REMARK                         _______ _______ _______ _____ _____    ______ ____
ROOT
ATOM      1  N   UNL     1       3.302   3.680  18.598  0.00  0.00    +0.000 N 
ATOM      2  C   UNL     1       2.409   4.688  19.001  0.00  0.00    +0.000 A 
ATOM      3  C   UNL     1       1.910   4.718  20.261  0.00  0.00    +0.000 A 
ATOM      4  C   UNL     1       2.201   3.630  21.164  0.00  0.00    +0.000 A 
ATOM      5  C   UNL     1       3.005   2.622  20.790  0.00  0.00    +0.000 A 
ATOM      6  C   UNL     1       3.624   2.609  19.450  0.00  0.00    +0.000 A 
ATOM      7  O   UNL     1       4.360   1.667  19.157  0.00  0.00    +0.000 OA
ATOM      8  C   UNL     1       1.113   5.897  20.810  0.00  0.00    +0.000 C 
ATOM      9  C   UNL     1       1.891   7.238  20.823  0.00  0.00    +0.000 C 
ATOM     10  N   UNL     1       2.100   7.835  19.489  0.00  0.00    +0.000 N 
ATOM     11  C   UNL     1       1.579   9.028  19.005  0.00  0.00    +0.000 C 
ATOM     12  O   UNL     1       1.830   9.431  17.863  0.00  0.00    +0.000 OA
ATOM     13  C   UNL     1       2.884   7.044  18.546  0.00  0.00    +0.000 C 
ATOM     14  C   UNL     1       2.083   5.831  18.071  0.00  0.00    +0.000 C 
ENDROOT
BRANCH   1  15
ATOM     15  C   UNL     1       3.977   3.695  17.286  0.00  0.00    +0.000 C 
BRANCH  15  16
ATOM     16  C   UNL     1       5.341   4.408  17.211  0.00  0.00    +0.000 C 
BRANCH  16  18
ATOM     17  C   UNL     1       5.545   4.364  14.871  0.00  0.00    +0.000 C 
ATOM     18  O   UNL     1       5.482   5.192  16.028  0.00  0.00    +0.000 OA
ENDBRANCH  16  18
ENDBRANCH  15  16
ENDBRANCH   1  15
BRANCH  11  19
ATOM     19  C   UNL     1       0.663   9.853  19.885  0.00  0.00    +0.000 C 
BRANCH  19  20
ATOM     20  C   UNL     1      -0.166  10.812  19.083  0.00  0.00    +0.000 A 
ATOM     21  C   UNL     1       0.061  12.141  18.775  0.00  0.00    +0.000 A 
ATOM     22  C   UNL     1      -0.936  12.674  17.905  0.00  0.00    +0.000 A 
ATOM     23  C   UNL     1      -1.893  11.740  17.583  0.00  0.00    +0.000 A 
ATOM     24  S   UNL     1      -1.595  10.234  18.327  0.00  0.00    +0.000 S 
ENDBRANCH  19  20
ENDBRANCH  11  19
TORSDOF 5
ENDMDL
MODEL 5
REMARK VINA RESULT:      -6.6      1.369      1.723
REMARK  Name = 
REMARK  6 active torsions:
REMARK  status: ('A' for Active; 'I' for Inactive)
REMARK    1  A    between atoms: C_1  and  O_2
REMARK    2  A    between atoms: O_2  and  C_3
REMARK    3  A    between atoms: C_3  and  C_4
REMARK    4  A    between atoms: C_4  and  N_5
REMARK    5  A    between atoms: C_15  and  C_17
REMARK    6  A    between atoms: C_17  and  C_18
REMARK                            x       y       z     vdW  Elec       q    Type
REMARK                         _______ _______ _______ _____ _____    ______ ____
ROOT
ATOM      1  N   UNL     1       3.020   3.624  18.463  0.00  0.00    +0.000 N 
ATOM      2  C   UNL     1       2.208   4.673  18.929  0.00  0.00    +0.000 A 
ATOM      3  C   UNL     1       1.866   4.765  20.237  0.00  0.00    +0.000 A 
ATOM      4  C   UNL     1       2.237   3.703  21.143  0.00  0.00    +0.000 A 
ATOM      5  C   UNL     1       2.964   2.659  20.717  0.00  0.00    +0.000 A 
ATOM      6  C   UNL     1       3.415   2.577  19.313  0.00  0.00    +0.000 A 
ATOM      7  O   UNL     1       4.086   1.603  18.973  0.00  0.00    +0.000 OA
ATOM      8  C   UNL     1       1.172   5.987  20.830  0.00  0.00    +0.000 C 
ATOM      9  C   UNL     1       1.980   7.304  20.695  0.00  0.00    +0.000 C 
ATOM     10  N   UNL     1       2.041   7.844  19.322  0.00  0.00    +0.000 N 
ATOM     11  C   UNL     1       1.496   9.033  18.856  0.00  0.00    +0.000 C 
ATOM     12  O   UNL     1       1.617   9.385  17.677  0.00  0.00    +0.000 OA
ATOM     13  C   UNL     1       2.684   6.995  18.325  0.00  0.00    +0.000 C 
ATOM     14  C   UNL     1       1.802   5.790  17.999  0.00  0.00    +0.000 C 
ENDROOT
BRANCH   1  15
ATOM     15  C   UNL     1       3.531   3.569  17.080  0.00  0.00    +0.000 C 
BRANCH  15  16
ATOM     16  C   UNL     1       5.014   3.934  16.870  0.00  0.00    +0.000 C 
BRANCH  16  18
ATOM     17  C   UNL     1       6.827   4.786  18.099  0.00  0.00    +0.000 C 
ATOM     18  O   UNL     1       5.454   4.959  17.760  0.00  0.00    +0.000 OA
ENDBRANCH  16  18
ENDBRANCH  15  16
ENDBRANCH   1  15
BRANCH  11  19
ATOM     19  C   UNL     1       0.715   9.918  19.805  0.00  0.00    +0.000 C 
BRANCH  19  20
ATOM     20  C   UNL     1       0.634  11.332  19.310  0.00  0.00    +0.000 A 
ATOM     21  C   UNL     1       1.612  12.308  19.244  0.00  0.00    +0.000 A 
ATOM     22  C   UNL     1       1.145  13.502  18.620  0.00  0.00    +0.000 A 
ATOM     23  C   UNL     1      -0.172  13.404  18.237  0.00  0.00    +0.000 A 
ATOM     24  S   UNL     1      -0.843  11.884  18.631  0.00  0.00    +0.000 S 
ENDBRANCH  19  20
ENDBRANCH  11  19
TORSDOF 5
ENDMDL
MODEL 6
REMARK VINA RESULT:      -6.4      3.417      7.731
REMARK  Name = 
REMARK  6 active torsions:
REMARK  status: ('A' for Active; 'I' for Inactive)
REMARK    1  A    between atoms: C_1  and  O_2
REMARK    2  A    between atoms: O_2  and  C_3
REMARK    3  A    between atoms: C_3  and  C_4
REMARK    4  A    between atoms: C_4  and  N_5
REMARK    5  A    between atoms: C_15  and  C_17
REMARK    6  A    between atoms: C_17  and  C_18
REMARK                            x       y       z     vdW  Elec       q    Type
REMARK                         _______ _______ _______ _____ _____    ______ ____
ROOT
ATOM      1  N   UNL     1      -0.974  11.904  20.903  0.00  0.00    +0.000 N 
ATOM      2  C   UNL     1       0.099  10.996  20.922  0.00  0.00    +0.000 A 
ATOM      3  C   UNL     1       0.284  10.153  21.967  0.00  0.00    +0.000 A 
ATOM      4  C   UNL     1      -0.560  10.273  23.132  0.00  0.00    +0.000 A 
ATOM      5  C   UNL     1      -1.559  11.169  23.168  0.00  0.00    +0.000 A 
ATOM      6  C   UNL     1      -1.829  12.044  22.010  0.00  0.00    +0.000 A 
ATOM      7  O   UNL     1      -2.761  12.844  22.089  0.00  0.00    +0.000 OA
ATOM      8  C   UNL     1       1.296   9.012  21.945  0.00  0.00    +0.000 C 
ATOM      9  C   UNL     1       1.049   7.966  20.827  0.00  0.00    +0.000 C 
ATOM     10  N   UNL     1       1.364   8.443  19.465  0.00  0.00    +0.000 N 
ATOM     11  C   UNL     1       2.359   7.980  18.616  0.00  0.00    +0.000 C 
ATOM     12  O   UNL     1       2.525   8.458  17.487  0.00  0.00    +0.000 OA
ATOM     13  C   UNL     1       0.585   9.581  18.987  0.00  0.00    +0.000 C 
ATOM     14  C   UNL     1       1.000  10.857  19.719  0.00  0.00    +0.000 C 
ENDROOT
BRANCH   1  15
ATOM     15  C   UNL     1      -1.291  12.733  19.724  0.00  0.00    +0.000 C 
BRANCH  15  16
ATOM     16  C   UNL     1      -2.311  12.159  18.722  0.00  0.00    +0.000 C 
BRANCH  16  18
ATOM     17  C   UNL     1      -2.638  11.070  16.665  0.00  0.00    +0.000 C 
ATOM     18  O   UNL     1      -1.698  11.730  17.507  0.00  0.00    +0.000 OA
ENDBRANCH  16  18
ENDBRANCH  15  16
ENDBRANCH   1  15
BRANCH  11  19
ATOM     19  C   UNL     1       3.285   6.875  19.082  0.00  0.00    +0.000 C 
BRANCH  19  20
ATOM     20  C   UNL     1       2.842   5.530  18.587  0.00  0.00    +0.000 A 
ATOM     21  C   UNL     1       1.684   4.823  18.851  0.00  0.00    +0.000 A 
ATOM     22  C   UNL     1       1.606   3.610  18.105  0.00  0.00    +0.000 A 
ATOM     23  C   UNL     1       2.708   3.427  17.302  0.00  0.00    +0.000 A 
ATOM     24  S   UNL     1       3.829   4.705  17.450  0.00  0.00    +0.000 S 
ENDBRANCH  19  20
ENDBRANCH  11  19
TORSDOF 5
ENDMDL
MODEL 7
REMARK VINA RESULT:      -6.4      3.409      7.864
REMARK  Name = 
REMARK  6 active torsions:
REMARK  status: ('A' for Active; 'I' for Inactive)
REMARK    1  A    between atoms: C_1  and  O_2
REMARK    2  A    between atoms: O_2  and  C_3
REMARK    3  A    between atoms: C_3  and  C_4
REMARK    4  A    between atoms: C_4  and  N_5
REMARK    5  A    between atoms: C_15  and  C_17
REMARK    6  A    between atoms: C_17  and  C_18
REMARK                            x       y       z     vdW  Elec       q    Type
REMARK                         _______ _______ _______ _____ _____    ______ ____
ROOT
ATOM      1  N   UNL     1      -0.696  12.144  20.668  0.00  0.00    +0.000 N 
ATOM      2  C   UNL     1       0.262  11.124  20.809  0.00  0.00    +0.000 A 
ATOM      3  C   UNL     1       0.261  10.310  21.893  0.00  0.00    +0.000 A 
ATOM      4  C   UNL     1      -0.657  10.571  22.976  0.00  0.00    +0.000 A 
ATOM      5  C   UNL     1      -1.547  11.573  22.896  0.00  0.00    +0.000 A 
ATOM      6  C   UNL     1      -1.618  12.424  21.691  0.00  0.00    +0.000 A 
ATOM      7  O   UNL     1      -2.456  13.325  21.663  0.00  0.00    +0.000 OA
ATOM      8  C   UNL     1       1.136   9.064  21.995  0.00  0.00    +0.000 C 
ATOM      9  C   UNL     1       0.865   8.007  20.894  0.00  0.00    +0.000 C 
ATOM     10  N   UNL     1       1.344   8.389  19.551  0.00  0.00    +0.000 N 
ATOM     11  C   UNL     1       2.347   7.784  18.806  0.00  0.00    +0.000 C 
ATOM     12  O   UNL     1       2.660   8.193  17.682  0.00  0.00    +0.000 OA
ATOM     13  C   UNL     1       0.743   9.585  18.970  0.00  0.00    +0.000 C 
ATOM     14  C   UNL     1       1.237  10.837  19.695  0.00  0.00    +0.000 C 
ENDROOT
BRANCH   1  15
ATOM     15  C   UNL     1      -0.818  12.954  19.440  0.00  0.00    +0.000 C 
BRANCH  15  16
ATOM     16  C   UNL     1      -1.539  12.302  18.244  0.00  0.00    +0.000 C 
BRANCH  16  18
ATOM     17  C   UNL     1      -3.784  11.697  18.588  0.00  0.00    +0.000 C 
ATOM     18  O   UNL     1      -2.429  11.262  18.646  0.00  0.00    +0.000 OA
ENDBRANCH  16  18
ENDBRANCH  15  16
ENDBRANCH   1  15
BRANCH  11  19
ATOM     19  C   UNL     1       3.099   6.604  19.387  0.00  0.00    +0.000 C 
BRANCH  19  20
ATOM     20  C   UNL     1       2.355   5.316  19.189  0.00  0.00    +0.000 A 
ATOM     21  C   UNL     1       1.975   4.680  18.021  0.00  0.00    +0.000 A 
ATOM     22  C   UNL     1       1.357   3.418  18.267  0.00  0.00    +0.000 A 
ATOM     23  C   UNL     1       1.278   3.135  19.611  0.00  0.00    +0.000 A 
ATOM     24  S   UNL     1       1.940   4.383  20.569  0.00  0.00    +0.000 S 
ENDBRANCH  19  20
ENDBRANCH  11  19
TORSDOF 5
ENDMDL
MODEL 8
REMARK VINA RESULT:      -6.4      3.329      5.051
REMARK  Name = 
REMARK  6 active torsions:
REMARK  status: ('A' for Active; 'I' for Inactive)
REMARK    1  A    between atoms: C_1  and  O_2
REMARK    2  A    between atoms: O_2  and  C_3
REMARK    3  A    between atoms: C_3  and  C_4
REMARK    4  A    between atoms: C_4  and  N_5
REMARK    5  A    between atoms: C_15  and  C_17
REMARK    6  A    between atoms: C_17  and  C_18
REMARK                            x       y       z     vdW  Elec       q    Type
REMARK                         _______ _______ _______ _____ _____    ______ ____
ROOT
ATOM      1  N   UNL     1       2.111   6.674  19.668  0.00  0.00    +0.000 N 
ATOM      2  C   UNL     1       1.836   8.005  20.028  0.00  0.00    +0.000 A 
ATOM      3  C   UNL     1       1.746   8.979  19.090  0.00  0.00    +0.000 A 
ATOM      4  C   UNL     1       2.060   8.670  17.715  0.00  0.00    +0.000 A 
ATOM      5  C   UNL     1       2.381   7.420  17.348  0.00  0.00    +0.000 A 
ATOM      6  C   UNL     1       2.408   6.326  18.339  0.00  0.00    +0.000 A 
ATOM      7  O   UNL     1       2.701   5.195  17.951  0.00  0.00    +0.000 OA
ATOM      8  C   UNL     1       1.245  10.386  19.400  0.00  0.00    +0.000 C 
ATOM      9  C   UNL     1      -0.206  10.437  19.945  0.00  0.00    +0.000 C 
ATOM     10  N   UNL     1      -0.356   9.940  21.328  0.00  0.00    +0.000 N 
ATOM     11  C   UNL     1      -0.727  10.666  22.452  0.00  0.00    +0.000 C 
ATOM     12  O   UNL     1      -0.823  10.137  23.565  0.00  0.00    +0.000 OA
ATOM     13  C   UNL     1      -0.001   8.542  21.551  0.00  0.00    +0.000 C 
ATOM     14  C   UNL     1       1.513   8.354  21.460  0.00  0.00    +0.000 C 
ENDROOT
BRANCH   1  15
ATOM     15  C   UNL     1       2.073   5.564  20.641  0.00  0.00    +0.000 C 
BRANCH  15  16
ATOM     16  C   UNL     1       0.951   4.522  20.466  0.00  0.00    +0.000 C 
BRANCH  16  18
ATOM     17  C   UNL     1       2.606   2.986  21.120  0.00  0.00    +0.000 C 
ATOM     18  O   UNL     1       1.220   3.310  21.170  0.00  0.00    +0.000 OA
ENDBRANCH  16  18
ENDBRANCH  15  16
ENDBRANCH   1  15
BRANCH  11  19
ATOM     19  C   UNL     1      -1.002  12.150  22.325  0.00  0.00    +0.000 C 
BRANCH  19  20
ATOM     20  C   UNL     1      -2.473  12.446  22.314  0.00  0.00    +0.000 A 
ATOM     21  C   UNL     1      -3.370  12.528  23.363  0.00  0.00    +0.000 A 
ATOM     22  C   UNL     1      -4.671  12.923  22.934  0.00  0.00    +0.000 A 
ATOM     23  C   UNL     1      -4.728  13.124  21.575  0.00  0.00    +0.000 A 
ATOM     24  S   UNL     1      -3.225  12.833  20.821  0.00  0.00    +0.000 S 
ENDBRANCH  19  20
ENDBRANCH  11  19
TORSDOF 5
ENDMDL
MODEL 9
REMARK VINA RESULT:      -6.4      3.468      8.047
REMARK  Name = 
REMARK  6 active torsions:
REMARK  status: ('A' for Active; 'I' for Inactive)
REMARK    1  A    between atoms: C_1  and  O_2
REMARK    2  A    between atoms: O_2  and  C_3
REMARK    3  A    between atoms: C_3  and  C_4
REMARK    4  A    between atoms: C_4  and  N_5
REMARK    5  A    between atoms: C_15  and  C_17
REMARK    6  A    between atoms: C_17  and  C_18
REMARK                            x       y       z     vdW  Elec       q    Type
REMARK                         _______ _______ _______ _____ _____    ______ ____
ROOT
ATOM      1  N   UNL     1       0.853  10.510  21.048  0.00  0.00    +0.000 N 
ATOM      2  C   UNL     1       0.944   9.511  20.062  0.00  0.00    +0.000 A 
ATOM      3  C   UNL     1       1.342   9.808  18.801  0.00  0.00    +0.000 A 
ATOM      4  C   UNL     1       1.556  11.187  18.431  0.00  0.00    +0.000 A 
ATOM      5  C   UNL     1       1.422  12.170  19.335  0.00  0.00    +0.000 A 
ATOM      6  C   UNL     1       1.067  11.863  20.735  0.00  0.00    +0.000 A 
ATOM      7  O   UNL     1       0.963  12.799  21.528  0.00  0.00    +0.000 OA
ATOM      8  C   UNL     1       1.661   8.741  17.758  0.00  0.00    +0.000 C 
ATOM      9  C   UNL     1       2.814   7.785  18.161  0.00  0.00    +0.000 C 
ATOM     10  N   UNL     1       2.465   6.823  19.226  0.00  0.00    +0.000 N 
ATOM     11  C   UNL     1       2.384   5.441  19.124  0.00  0.00    +0.000 C 
ATOM     12  O   UNL     1       2.085   4.735  20.094  0.00  0.00    +0.000 OA
ATOM     13  C   UNL     1       2.090   7.398  20.514  0.00  0.00    +0.000 C 
ATOM     14  C   UNL     1       0.717   8.064  20.423  0.00  0.00    +0.000 C 
ENDROOT
BRANCH   1  15
ATOM     15  C   UNL     1       0.564  10.205  22.462  0.00  0.00    +0.000 C 
BRANCH  15  16
ATOM     16  C   UNL     1      -0.908  10.296  22.908  0.00  0.00    +0.000 C 
BRANCH  16  18
ATOM     17  C   UNL     1      -2.378  12.129  22.860  0.00  0.00    +0.000 C 
ATOM     18  O   UNL     1      -1.226  11.565  23.479  0.00  0.00    +0.000 OA
ENDBRANCH  16  18
ENDBRANCH  15  16
ENDBRANCH   1  15
BRANCH  11  19
ATOM     19  C   UNL     1       2.649   4.774  17.790  0.00  0.00    +0.000 C 
BRANCH  19  20
ATOM     20  C   UNL     1       4.114   4.712  17.478  0.00  0.00    +0.000 A 
ATOM     21  C   UNL     1       4.782   4.969  16.294  0.00  0.00    +0.000 A 
ATOM     22  C   UNL     1       6.198   4.882  16.440  0.00  0.00    +0.000 A 
ATOM     23  C   UNL     1       6.565   4.557  17.724  0.00  0.00    +0.000 A 
ATOM     24  S   UNL     1       5.213   4.352  18.746  0.00  0.00    +0.000 S 
ENDBRANCH  19  20
ENDBRANCH  11  19
TORSDOF 5
ENDMDL
