MODEL 1
REMARK VINA RESULT:      -7.7      0.000      0.000
REMARK  Name = 
REMARK  3 active torsions:
REMARK  status: ('A' for Active; 'I' for Inactive)
REMARK    1  A    between atoms: C_1  and  C_2
REMARK    2  A    between atoms: C_3  and  C_4
REMARK    3  A    between atoms: C_10  and  C_11
REMARK                            x       y       z     vdW  Elec       q    Type
REMARK                         _______ _______ _______ _____ _____    ______ ____
ROOT
ATOM      1  C   UNL     1       1.761   8.445  19.178  0.00  0.00    +0.000 C 
ATOM      2  O   UNL     1       1.389   9.409  18.518  0.00  0.00    +0.000 OA
ATOM      3  N   UNL     1       1.536   8.269  20.526  0.00  0.00    +0.000 N 
ATOM      4  C   UNL     1       0.873   9.130  21.364  0.00  0.00    +0.000 A 
ATOM      5  N   UNL     1       0.933   9.034  22.674  0.00  0.00    +0.000 NA
ATOM      6  N   UNL     1       0.243  10.056  23.303  0.00  0.00    +0.000 NA
ATOM      7  C   UNL     1      -0.366  10.834  22.434  0.00  0.00    +0.000 A 
ATOM      8  S   UNL     1      -0.145  10.378  20.801  0.00  0.00    +0.000 S 
ATOM      9  H   UNL     1       2.012   7.505  20.985  0.00  0.00    +0.000 HD
ENDROOT
BRANCH   1  12
ATOM     10  C   UNL     1       1.802   5.211  19.827  0.00  0.00    +0.000 C 
ATOM     11  C   UNL     1       2.596   6.000  18.850  0.00  0.00    +0.000 A 
ATOM     12  C   UNL     1       2.550   7.367  18.596  0.00  0.00    +0.000 A 
ATOM     13  O   UNL     1       3.438   7.683  17.596  0.00  0.00    +0.000 OA
ATOM     14  C   UNL     1       4.058   6.534  17.220  0.00  0.00    +0.000 A 
ATOM     15  C   UNL     1       5.036   6.428  16.233  0.00  0.00    +0.000 A 
ATOM     16  C   UNL     1       5.544   5.147  15.994  0.00  0.00    +0.000 A 
ATOM     17  C   UNL     1       5.088   4.042  16.716  0.00  0.00    +0.000 A 
ATOM     18  C   UNL     1       4.106   4.184  17.704  0.00  0.00    +0.000 A 
ATOM     19  C   UNL     1       3.578   5.465  17.960  0.00  0.00    +0.000 A 
ENDBRANCH   1  12
BRANCH   7  20
ATOM     20  C   UNL     1      -1.189  12.057  22.833  0.00  0.00    +0.000 C 
ATOM     21  C   UNL     1      -2.364  12.465  21.968  0.00  0.00    +0.000 C 
ATOM     22  C   UNL     1      -2.615  11.841  23.297  0.00  0.00    +0.000 C 
ENDBRANCH   7  20
TORSDOF 2
ENDMDL
MODEL 2
REMARK VINA RESULT:      -7.6      1.975      2.254
REMARK  Name = 
REMARK  3 active torsions:
REMARK  status: ('A' for Active; 'I' for Inactive)
REMARK    1  A    between atoms: C_1  and  C_2
REMARK    2  A    between atoms: C_3  and  C_4
REMARK    3  A    between atoms: C_10  and  C_11
REMARK                            x       y       z     vdW  Elec       q    Type
REMARK                         _______ _______ _______ _____ _____    ______ ____
ROOT
ATOM      1  C   UNL     1       2.426   7.108  19.104  0.00  0.00    +0.000 C 
ATOM      2  O   UNL     1       2.013   6.689  20.179  0.00  0.00    +0.000 OA
ATOM      3  N   UNL     1       2.094   8.321  18.541  0.00  0.00    +0.000 N 
ATOM      4  C   UNL     1       1.246   9.262  19.067  0.00  0.00    +0.000 A 
ATOM      5  N   UNL     1       0.764  10.260  18.360  0.00  0.00    +0.000 NA
ATOM      6  N   UNL     1      -0.125  11.032  19.088  0.00  0.00    +0.000 NA
ATOM      7  C   UNL     1      -0.215  10.621  20.334  0.00  0.00    +0.000 A 
ATOM      8  S   UNL     1       0.771   9.275  20.706  0.00  0.00    +0.000 S 
ATOM      9  H   UNL     1       2.387   8.492  17.589  0.00  0.00    +0.000 HD
ENDROOT
BRANCH   1  12
ATOM     10  C   UNL     1       2.024   4.122  17.760  0.00  0.00    +0.000 C 
ATOM     11  C   UNL     1       3.173   5.061  17.678  0.00  0.00    +0.000 A 
ATOM     12  C   UNL     1       3.309   6.319  18.254  0.00  0.00    +0.000 A 
ATOM     13  O   UNL     1       4.524   6.859  17.907  0.00  0.00    +0.000 OA
ATOM     14  C   UNL     1       5.169   5.951  17.129  0.00  0.00    +0.000 A 
ATOM     15  C   UNL     1       6.438   6.115  16.576  0.00  0.00    +0.000 A 
ATOM     16  C   UNL     1       6.920   5.059  15.797  0.00  0.00    +0.000 A 
ATOM     17  C   UNL     1       6.160   3.904  15.595  0.00  0.00    +0.000 A 
ATOM     18  C   UNL     1       4.889   3.770  16.168  0.00  0.00    +0.000 A 
ATOM     19  C   UNL     1       4.383   4.823  16.954  0.00  0.00    +0.000 A 
ENDBRANCH   1  12
BRANCH   7  20
ATOM     20  C   UNL     1      -1.134  11.267  21.369  0.00  0.00    +0.000 C 
ATOM     21  C   UNL     1      -0.813  11.101  22.840  0.00  0.00    +0.000 C 
ATOM     22  C   UNL     1      -0.590  12.421  22.187  0.00  0.00    +0.000 C 
ENDBRANCH   7  20
TORSDOF 2
ENDMDL
MODEL 3
REMARK VINA RESULT:      -7.4      1.055      1.245
REMARK  Name = 
REMARK  3 active torsions:
REMARK  status: ('A' for Active; 'I' for Inactive)
REMARK    1  A    between atoms: C_1  and  C_2
REMARK    2  A    between atoms: C_3  and  C_4
REMARK    3  A    between atoms: C_10  and  C_11
REMARK                            x       y       z     vdW  Elec       q    Type
REMARK                         _______ _______ _______ _____ _____    ______ ____
ROOT
ATOM      1  C   UNL     1       2.175   8.039  18.395  0.00  0.00    +0.000 C 
ATOM      2  O   UNL     1       1.676   8.878  17.653  0.00  0.00    +0.000 OA
ATOM      3  N   UNL     1       1.988   7.972  19.759  0.00  0.00    +0.000 N 
ATOM      4  C   UNL     1       1.230   8.821  20.524  0.00  0.00    +0.000 A 
ATOM      5  N   UNL     1       1.316   8.865  21.836  0.00  0.00    +0.000 NA
ATOM      6  N   UNL     1       0.509   9.851  22.377  0.00  0.00    +0.000 NA
ATOM      7  C   UNL     1      -0.204  10.455  21.451  0.00  0.00    +0.000 A 
ATOM      8  S   UNL     1       0.056   9.870  19.866  0.00  0.00    +0.000 S 
ATOM      9  H   UNL     1       2.562   7.323  20.279  0.00  0.00    +0.000 HD
ENDROOT
BRANCH   1  12
ATOM     10  C   UNL     1       1.790   4.778  18.079  0.00  0.00    +0.000 C 
ATOM     11  C   UNL     1       2.960   5.638  17.763  0.00  0.00    +0.000 A 
ATOM     12  C   UNL     1       3.088   7.016  17.904  0.00  0.00    +0.000 A 
ATOM     13  O   UNL     1       4.331   7.413  17.472  0.00  0.00    +0.000 OA
ATOM     14  C   UNL     1       5.001   6.299  17.073  0.00  0.00    +0.000 A 
ATOM     15  C   UNL     1       6.301   6.274  16.573  0.00  0.00    +0.000 A 
ATOM     16  C   UNL     1       6.806   5.021  16.212  0.00  0.00    +0.000 A 
ATOM     17  C   UNL     1       6.035   3.863  16.352  0.00  0.00    +0.000 A 
ATOM     18  C   UNL     1       4.732   3.924  16.862  0.00  0.00    +0.000 A 
ATOM     19  C   UNL     1       4.204   5.177  17.230  0.00  0.00    +0.000 A 
ENDBRANCH   1  12
BRANCH   7  20
ATOM     20  C   UNL     1      -1.170  11.600  21.748  0.00  0.00    +0.000 C 
ATOM     21  C   UNL     1      -1.347  12.058  23.181  0.00  0.00    +0.000 C 
ATOM     22  C   UNL     1      -0.594  12.918  22.225  0.00  0.00    +0.000 C 
ENDBRANCH   7  20
TORSDOF 2
ENDMDL
MODEL 4
REMARK VINA RESULT:      -7.4      1.519      1.627
REMARK  Name = 
REMARK  3 active torsions:
REMARK  status: ('A' for Active; 'I' for Inactive)
REMARK    1  A    between atoms: C_1  and  C_2
REMARK    2  A    between atoms: C_3  and  C_4
REMARK    3  A    between atoms: C_10  and  C_11
REMARK                            x       y       z     vdW  Elec       q    Type
REMARK                         _______ _______ _______ _____ _____    ______ ____
ROOT
ATOM      1  C   UNL     1       2.026   7.182  19.824  0.00  0.00    +0.000 C 
ATOM      2  O   UNL     1       1.679   6.677  20.887  0.00  0.00    +0.000 OA
ATOM      3  N   UNL     1       1.727   8.464  19.418  0.00  0.00    +0.000 N 
ATOM      4  C   UNL     1       0.993   9.393  20.111  0.00  0.00    +0.000 A 
ATOM      5  N   UNL     1       0.520  10.485  19.553  0.00  0.00    +0.000 NA
ATOM      6  N   UNL     1      -0.250  11.227  20.433  0.00  0.00    +0.000 NA
ATOM      7  C   UNL     1      -0.259  10.694  21.636  0.00  0.00    +0.000 A 
ATOM      8  S   UNL     1       0.663   9.261  21.779  0.00  0.00    +0.000 S 
ATOM      9  H   UNL     1       1.949   8.717  18.465  0.00  0.00    +0.000 HD
ENDROOT
BRANCH   1  12
ATOM     10  C   UNL     1       2.028   3.968  19.080  0.00  0.00    +0.000 C 
ATOM     11  C   UNL     1       2.806   5.087  18.488  0.00  0.00    +0.000 A 
ATOM     12  C   UNL     1       2.777   6.437  18.822  0.00  0.00    +0.000 A 
ATOM     13  O   UNL     1       3.639   7.135  18.010  0.00  0.00    +0.000 OA
ATOM     14  C   UNL     1       4.227   6.240  17.173  0.00  0.00    +0.000 A 
ATOM     15  C   UNL     1       5.172   6.547  16.196  0.00  0.00    +0.000 A 
ATOM     16  C   UNL     1       5.650   5.478  15.433  0.00  0.00    +0.000 A 
ATOM     17  C   UNL     1       5.196   4.174  15.651  0.00  0.00    +0.000 A 
ATOM     18  C   UNL     1       4.247   3.900  16.643  0.00  0.00    +0.000 A 
ATOM     19  C   UNL     1       3.751   4.963  17.422  0.00  0.00    +0.000 A 
ENDBRANCH   1  12
BRANCH   7  20
ATOM     20  C   UNL     1      -1.040  11.280  22.810  0.00  0.00    +0.000 C 
ATOM     21  C   UNL     1      -1.160  12.785  22.932  0.00  0.00    +0.000 C 
ATOM     22  C   UNL     1      -2.348  11.988  22.517  0.00  0.00    +0.000 C 
ENDBRANCH   7  20
TORSDOF 2
ENDMDL
MODEL 5
REMARK VINA RESULT:      -7.4      2.603      8.156
REMARK  Name = 
REMARK  3 active torsions:
REMARK  status: ('A' for Active; 'I' for Inactive)
REMARK    1  A    between atoms: C_1  and  C_2
REMARK    2  A    between atoms: C_3  and  C_4
REMARK    3  A    between atoms: C_10  and  C_11
REMARK                            x       y       z     vdW  Elec       q    Type
REMARK                         _______ _______ _______ _____ _____    ______ ____
ROOT
ATOM      1  C   UNL     1       2.210   8.134  18.653  0.00  0.00    +0.000 C 
ATOM      2  O   UNL     1       2.483   8.537  17.527  0.00  0.00    +0.000 OA
ATOM      3  N   UNL     1       2.608   6.926  19.184  0.00  0.00    +0.000 N 
ATOM      4  C   UNL     1       3.362   5.965  18.558  0.00  0.00    +0.000 A 
ATOM      5  N   UNL     1       3.470   4.737  19.016  0.00  0.00    +0.000 NA
ATOM      6  N   UNL     1       4.221   3.933  18.175  0.00  0.00    +0.000 NA
ATOM      7  C   UNL     1       4.705   4.615  17.158  0.00  0.00    +0.000 A 
ATOM      8  S   UNL     1       4.283   6.272  17.155  0.00  0.00    +0.000 S 
ATOM      9  H   UNL     1       2.205   6.647  20.067  0.00  0.00    +0.000 HD
ENDROOT
BRANCH   1  12
ATOM     10  C   UNL     1       0.285  10.759  18.122  0.00  0.00    +0.000 C 
ATOM     11  C   UNL     1       0.551  10.007  19.375  0.00  0.00    +0.000 A 
ATOM     12  C   UNL     1       1.368   8.896  19.564  0.00  0.00    +0.000 A 
ATOM     13  O   UNL     1       1.313   8.499  20.879  0.00  0.00    +0.000 OA
ATOM     14  C   UNL     1       0.482   9.354  21.531  0.00  0.00    +0.000 A 
ATOM     15  C   UNL     1       0.164   9.297  22.886  0.00  0.00    +0.000 A 
ATOM     16  C   UNL     1      -0.720  10.271  23.362  0.00  0.00    +0.000 A 
ATOM     17  C   UNL     1      -1.246  11.246  22.510  0.00  0.00    +0.000 A 
ATOM     18  C   UNL     1      -0.903  11.277  21.153  0.00  0.00    +0.000 A 
ATOM     19  C   UNL     1      -0.017  10.304  20.653  0.00  0.00    +0.000 A 
ENDBRANCH   1  12
BRANCH   7  20
ATOM     20  C   UNL     1       5.555   3.990  16.055  0.00  0.00    +0.000 C 
ATOM     21  C   UNL     1       5.976   4.847  14.879  0.00  0.00    +0.000 C 
ATOM     22  C   UNL     1       6.987   4.461  15.901  0.00  0.00    +0.000 C 
ENDBRANCH   7  20
TORSDOF 2
ENDMDL
MODEL 6
REMARK VINA RESULT:      -7.3      1.662      2.707
REMARK  Name = 
REMARK  3 active torsions:
REMARK  status: ('A' for Active; 'I' for Inactive)
REMARK    1  A    between atoms: C_1  and  C_2
REMARK    2  A    between atoms: C_3  and  C_4
REMARK    3  A    between atoms: C_10  and  C_11
REMARK                            x       y       z     vdW  Elec       q    Type
REMARK                         _______ _______ _______ _____ _____    ______ ____
ROOT
ATOM      1  C   UNL     1       1.527   8.138  20.044  0.00  0.00    +0.000 C 
ATOM      2  O   UNL     1       1.582   9.004  19.177  0.00  0.00    +0.000 OA
ATOM      3  N   UNL     1       0.935   8.286  21.280  0.00  0.00    +0.000 N 
ATOM      4  C   UNL     1       0.317   9.412  21.762  0.00  0.00    +0.000 A 
ATOM      5  N   UNL     1       0.022   9.571  23.033  0.00  0.00    +0.000 NA
ATOM      6  N   UNL     1      -0.528  10.816  23.287  0.00  0.00    +0.000 NA
ATOM      7  C   UNL     1      -0.690  11.508  22.180  0.00  0.00    +0.000 A 
ATOM      8  S   UNL     1      -0.187  10.698  20.761  0.00  0.00    +0.000 S 
ATOM      9  H   UNL     1       1.078   7.551  21.958  0.00  0.00    +0.000 HD
ENDROOT
BRANCH   1  12
ATOM     10  C   UNL     1       3.647   7.040  17.768  0.00  0.00    +0.000 C 
ATOM     11  C   UNL     1       3.035   6.334  18.924  0.00  0.00    +0.000 A 
ATOM     12  C   UNL     1       2.146   6.830  19.871  0.00  0.00    +0.000 A 
ATOM     13  O   UNL     1       1.845   5.848  20.785  0.00  0.00    +0.000 OA
ATOM     14  C   UNL     1       2.523   4.728  20.419  0.00  0.00    +0.000 A 
ATOM     15  C   UNL     1       2.482   3.505  21.085  0.00  0.00    +0.000 A 
ATOM     16  C   UNL     1       3.262   2.475  20.548  0.00  0.00    +0.000 A 
ATOM     17  C   UNL     1       4.033   2.677  19.400  0.00  0.00    +0.000 A 
ATOM     18  C   UNL     1       4.049   3.919  18.753  0.00  0.00    +0.000 A 
ATOM     19  C   UNL     1       3.273   4.970  19.279  0.00  0.00    +0.000 A 
ENDBRANCH   1  12
BRANCH   7  20
ATOM     20  C   UNL     1      -1.258  12.925  22.149  0.00  0.00    +0.000 C 
ATOM     21  C   UNL     1      -1.288  13.731  23.432  0.00  0.00    +0.000 C 
ATOM     22  C   UNL     1      -0.304  14.083  22.370  0.00  0.00    +0.000 C 
ENDBRANCH   7  20
TORSDOF 2
ENDMDL
MODEL 7
REMARK VINA RESULT:      -7.2      3.426      8.392
REMARK  Name = 
REMARK  3 active torsions:
REMARK  status: ('A' for Active; 'I' for Inactive)
REMARK    1  A    between atoms: C_1  and  C_2
REMARK    2  A    between atoms: C_3  and  C_4
REMARK    3  A    between atoms: C_10  and  C_11
REMARK                            x       y       z     vdW  Elec       q    Type
REMARK                         _______ _______ _______ _____ _____    ______ ____
ROOT
ATOM      1  C   UNL     1       3.084   6.461  18.089  0.00  0.00    +0.000 C 
ATOM      2  O   UNL     1       2.669   5.401  17.632  0.00  0.00    +0.000 OA
ATOM      3  N   UNL     1       4.303   7.032  17.795  0.00  0.00    +0.000 N 
ATOM      4  C   UNL     1       5.264   6.524  16.958  0.00  0.00    +0.000 A 
ATOM      5  N   UNL     1       6.499   6.975  16.936  0.00  0.00    +0.000 NA
ATOM      6  N   UNL     1       7.300   6.256  16.065  0.00  0.00    +0.000 NA
ATOM      7  C   UNL     1       6.610   5.344  15.415  0.00  0.00    +0.000 A 
ATOM      8  S   UNL     1       4.949   5.296  15.816  0.00  0.00    +0.000 S 
ATOM      9  H   UNL     1       4.589   7.833  18.340  0.00  0.00    +0.000 HD
ENDROOT
BRANCH   1  12
ATOM     10  C   UNL     1       1.844   5.606  21.024  0.00  0.00    +0.000 C 
ATOM     11  C   UNL     1       1.784   6.903  20.302  0.00  0.00    +0.000 A 
ATOM     12  C   UNL     1       2.324   7.233  19.064  0.00  0.00    +0.000 A 
ATOM     13  O   UNL     1       2.056   8.550  18.777  0.00  0.00    +0.000 OA
ATOM     14  C   UNL     1       1.337   9.057  19.813  0.00  0.00    +0.000 A 
ATOM     15  C   UNL     1       0.862  10.364  19.905  0.00  0.00    +0.000 A 
ATOM     16  C   UNL     1       0.146  10.687  21.062  0.00  0.00    +0.000 A 
ATOM     17  C   UNL     1      -0.074   9.739  22.064  0.00  0.00    +0.000 A 
ATOM     18  C   UNL     1       0.415   8.432  21.939  0.00  0.00    +0.000 A 
ATOM     19  C   UNL     1       1.140   8.086  20.782  0.00  0.00    +0.000 A 
ENDBRANCH   1  12
BRANCH   7  20
ATOM     20  C   UNL     1       7.230   4.385  14.401  0.00  0.00    +0.000 C 
ATOM     21  C   UNL     1       6.359   3.823  13.296  0.00  0.00    +0.000 C 
ATOM     22  C   UNL     1       7.379   4.858  12.968  0.00  0.00    +0.000 C 
ENDBRANCH   7  20
TORSDOF 2
ENDMDL
MODEL 8
REMARK VINA RESULT:      -7.2      2.051      2.777
REMARK  Name = 
REMARK  3 active torsions:
REMARK  status: ('A' for Active; 'I' for Inactive)
REMARK    1  A    between atoms: C_1  and  C_2
REMARK    2  A    between atoms: C_3  and  C_4
REMARK    3  A    between atoms: C_10  and  C_11
REMARK                            x       y       z     vdW  Elec       q    Type
REMARK                         _______ _______ _______ _____ _____    ______ ____
ROOT
ATOM      1  C   UNL     1       2.177   8.159  18.243  0.00  0.00    +0.000 C 
ATOM      2  O   UNL     1       2.356   8.988  17.357  0.00  0.00    +0.000 OA
ATOM      3  N   UNL     1       1.644   8.425  19.485  0.00  0.00    +0.000 N 
ATOM      4  C   UNL     1       1.231   9.646  19.955  0.00  0.00    +0.000 A 
ATOM      5  N   UNL     1       0.993   9.875  21.227  0.00  0.00    +0.000 NA
ATOM      6  N   UNL     1       0.662  11.198  21.465  0.00  0.00    +0.000 NA
ATOM      7  C   UNL     1       0.595  11.888  20.346  0.00  0.00    +0.000 A 
ATOM      8  S   UNL     1       0.926  10.980  18.936  0.00  0.00    +0.000 S 
ATOM      9  H   UNL     1       1.676   7.688  20.176  0.00  0.00    +0.000 HD
ENDROOT
BRANCH   1  12
ATOM     10  C   UNL     1       5.035   6.811  17.297  0.00  0.00    +0.000 C 
ATOM     11  C   UNL     1       3.755   6.164  17.687  0.00  0.00    +0.000 A 
ATOM     12  C   UNL     1       2.566   6.763  18.087  0.00  0.00    +0.000 A 
ATOM     13  O   UNL     1       1.634   5.797  18.379  0.00  0.00    +0.000 OA
ATOM     14  C   UNL     1       2.214   4.588  18.153  0.00  0.00    +0.000 A 
ATOM     15  C   UNL     1       1.597   3.351  18.325  0.00  0.00    +0.000 A 
ATOM     16  C   UNL     1       2.373   2.222  18.044  0.00  0.00    +0.000 A 
ATOM     17  C   UNL     1       3.696   2.344  17.611  0.00  0.00    +0.000 A 
ATOM     18  C   UNL     1       4.285   3.604  17.445  0.00  0.00    +0.000 A 
ATOM     19  C   UNL     1       3.522   4.754  17.725  0.00  0.00    +0.000 A 
ENDBRANCH   1  12
BRANCH   7  20
ATOM     20  C   UNL     1       0.269  13.379  20.296  0.00  0.00    +0.000 C 
ATOM     21  C   UNL     1      -0.184  13.988  18.985  0.00  0.00    +0.000 C 
ATOM     22  C   UNL     1      -1.174  13.790  20.080  0.00  0.00    +0.000 C 
ENDBRANCH   7  20
TORSDOF 2
ENDMDL
MODEL 9
REMARK VINA RESULT:      -7.2      1.692      1.787
REMARK  Name = 
REMARK  3 active torsions:
REMARK  status: ('A' for Active; 'I' for Inactive)
REMARK    1  A    between atoms: C_1  and  C_2
REMARK    2  A    between atoms: C_3  and  C_4
REMARK    3  A    between atoms: C_10  and  C_11
REMARK                            x       y       z     vdW  Elec       q    Type
REMARK                         _______ _______ _______ _____ _____    ______ ____
ROOT
ATOM      1  C   UNL     1       1.519   8.275  20.304  0.00  0.00    +0.000 C 
ATOM      2  O   UNL     1       1.505   8.231  21.529  0.00  0.00    +0.000 OA
ATOM      3  N   UNL     1       0.830   9.185  19.532  0.00  0.00    +0.000 N 
ATOM      4  C   UNL     1       0.010  10.187  19.985  0.00  0.00    +0.000 A 
ATOM      5  N   UNL     1      -0.821  10.835  19.199  0.00  0.00    +0.000 NA
ATOM      6  N   UNL     1      -1.594  11.747  19.897  0.00  0.00    +0.000 NA
ATOM      7  C   UNL     1      -1.256  11.794  21.168  0.00  0.00    +0.000 A 
ATOM      8  S   UNL     1       0.019  10.740  21.598  0.00  0.00    +0.000 S 
ATOM      9  H   UNL     1       0.810   9.032  18.534  0.00  0.00    +0.000 HD
ENDROOT
BRANCH   1  12
ATOM     10  C   UNL     1       1.661   4.985  20.500  0.00  0.00    +0.000 C 
ATOM     11  C   UNL     1       2.340   5.917  19.563  0.00  0.00    +0.000 A 
ATOM     12  C   UNL     1       2.254   7.304  19.504  0.00  0.00    +0.000 A 
ATOM     13  O   UNL     1       3.028   7.773  18.470  0.00  0.00    +0.000 OA
ATOM     14  C   UNL     1       3.618   6.700  17.880  0.00  0.00    +0.000 A 
ATOM     15  C   UNL     1       4.489   6.751  16.794  0.00  0.00    +0.000 A 
ATOM     16  C   UNL     1       4.983   5.527  16.332  0.00  0.00    +0.000 A 
ATOM     17  C   UNL     1       4.616   4.324  16.940  0.00  0.00    +0.000 A 
ATOM     18  C   UNL     1       3.741   4.308  18.033  0.00  0.00    +0.000 A 
ATOM     19  C   UNL     1       3.230   5.530  18.513  0.00  0.00    +0.000 A 
ENDBRANCH   1  12
BRANCH   7  20
ATOM     20  C   UNL     1      -1.948  12.694  22.189  0.00  0.00    +0.000 C 
ATOM     21  C   UNL     1      -3.460  12.789  22.178  0.00  0.00    +0.000 C 
ATOM     22  C   UNL     1      -2.781  12.039  23.272  0.00  0.00    +0.000 C 
ENDBRANCH   7  20
TORSDOF 2
ENDMDL
