MODEL 1
REMARK VINA RESULT:      -8.2      0.000      0.000
REMARK  Name = 
REMARK  8 active torsions:
REMARK  status: ('A' for Active; 'I' for Inactive)
REMARK    1  A    between atoms: C_1  and  C_2
REMARK    2  A    between atoms: C_2  and  N_3
REMARK    3  A    between atoms: C_5  and  C_6
REMARK    4  A    between atoms: C_6  and  O_8
REMARK    5  A    between atoms: C_24  and  C_25
REMARK    6  A    between atoms: C_27  and  C_28
REMARK    7  A    between atoms: C_29  and  C_30
REMARK    8  A    between atoms: C_30  and  O_32
REMARK                            x       y       z     vdW  Elec       q    Type
REMARK                         _______ _______ _______ _____ _____    ______ ____
ROOT
ATOM      1  N   UNL     1       2.696   5.327  19.992  0.00  0.00    +0.000 N 
ATOM      2  C   UNL     1       3.329   4.294  19.321  0.00  0.00    +0.000 A 
ATOM      3  C   UNL     1       3.856   4.363  18.089  0.00  0.00    +0.000 A 
ATOM      4  C   UNL     1       3.724   5.654  17.386  0.00  0.00    +0.000 A 
ATOM      5  O   UNL     1       4.130   5.778  16.232  0.00  0.00    +0.000 OA
ATOM      6  C   UNL     1       3.083   6.779  18.093  0.00  0.00    +0.000 A 
ATOM      7  C   UNL     1       2.972   8.020  17.477  0.00  0.00    +0.000 A 
ATOM      8  C   UNL     1       2.322   9.034  18.156  0.00  0.00    +0.000 A 
ATOM      9  F   UNL     1       2.222  10.236  17.571  0.00  0.00    +0.000 F 
ATOM     10  C   UNL     1       1.794   8.807  19.434  0.00  0.00    +0.000 A 
ATOM     11  N   UNL     1       1.056   9.753  20.123  0.00  0.00    +0.000 N 
ATOM     12  C   UNL     1       1.136   9.772  21.586  0.00  0.00    +0.000 C 
ATOM     13  C   UNL     1      -0.248   9.981  22.237  0.00  0.00    +0.000 C 
ATOM     14  N   UNL     1      -0.958  11.203  21.613  0.00  0.00    +0.000 NA
ATOM     15  C   UNL     1      -1.161  10.905  20.115  0.00  0.00    +0.000 C 
ATOM     16  C   UNL     1       0.200  10.694  19.398  0.00  0.00    +0.000 C 
ATOM     17  C   UNL     1      -0.139  12.453  21.815  0.00  0.00    +0.000 C 
ATOM     18  N   UNL     1      -1.052  13.339  22.471  0.00  0.00    +0.000 N 
ATOM     19  C   UNL     1      -0.682  14.556  22.998  0.00  0.00    +0.000 C 
ATOM     20  C   UNL     1       0.676  15.104  22.666  0.00  0.00    +0.000 C 
ATOM     21  C   UNL     1      -1.536  15.202  23.801  0.00  0.00    +0.000 C 
ATOM     22  C   UNL     1      -2.899  14.710  24.043  0.00  0.00    +0.000 C 
ATOM     23  C   UNL     1      -3.715  15.770  24.743  0.00  0.00    +0.000 C 
ATOM     24  C   UNL     1      -3.312  13.476  23.616  0.00  0.00    +0.000 C 
ATOM     25  C   UNL     1      -2.249  12.718  22.792  0.00  0.00    +0.000 C 
ATOM     26  N   UNL     1      -2.325  11.483  22.334  0.00  0.00    +0.000 NA
ATOM     27  N   UNL     1       1.949   7.607  20.038  0.00  0.00    +0.000 NA
ATOM     28  C   UNL     1       2.570   6.593  19.380  0.00  0.00    +0.000 A 
ENDROOT
BRANCH   1  30
ATOM     29  C   UNL     1       1.984   3.668  21.668  0.00  0.00    +0.000 C 
ATOM     30  C   UNL     1       2.004   5.140  21.274  0.00  0.00    +0.000 C 
ENDBRANCH   1  30
BRANCH   3  31
ATOM     31  C   UNL     1       4.510   3.175  17.507  0.00  0.00    +0.000 C 
ATOM     32  O   UNL     1       4.084   2.039  17.657  0.00  0.00    +0.000 OA
BRANCH  31  33
ATOM     33  O   UNL     1       5.627   3.439  16.798  0.00  0.00    +0.000 OA
ATOM     34  H   UNL     1       5.549   3.273  15.827  0.00  0.00    +0.000 HD
ENDBRANCH  31  33
ENDBRANCH   3  31
BRANCH  24  35
ATOM     35  C   UNL     1      -4.644  12.833  23.792  0.00  0.00    +0.000 C 
ATOM     36  O   UNL     1      -5.624  13.210  23.165  0.00  0.00    +0.000 OA
BRANCH  35  37
ATOM     37  O   UNL     1      -4.759  11.798  24.642  0.00  0.00    +0.000 OA
ATOM     38  H   UNL     1      -5.597  11.303  24.698  0.00  0.00    +0.000 HD
ENDBRANCH  35  37
ENDBRANCH  24  35
TORSDOF 5
ENDMDL
MODEL 2
REMARK VINA RESULT:      -7.4      2.011      2.499
REMARK  Name = 
REMARK  8 active torsions:
REMARK  status: ('A' for Active; 'I' for Inactive)
REMARK    1  A    between atoms: C_1  and  C_2
REMARK    2  A    between atoms: C_2  and  N_3
REMARK    3  A    between atoms: C_5  and  C_6
REMARK    4  A    between atoms: C_6  and  O_8
REMARK    5  A    between atoms: C_24  and  C_25
REMARK    6  A    between atoms: C_27  and  C_28
REMARK    7  A    between atoms: C_29  and  C_30
REMARK    8  A    between atoms: C_30  and  O_32
REMARK                            x       y       z     vdW  Elec       q    Type
REMARK                         _______ _______ _______ _____ _____    ______ ____
ROOT
ATOM      1  N   UNL     1       2.510   3.985  20.190  0.00  0.00    +0.000 N 
ATOM      2  C   UNL     1       3.088   2.758  19.910  0.00  0.00    +0.000 A 
ATOM      3  C   UNL     1       3.929   2.497  18.898  0.00  0.00    +0.000 A 
ATOM      4  C   UNL     1       4.245   3.621  17.996  0.00  0.00    +0.000 A 
ATOM      5  O   UNL     1       4.962   3.448  17.013  0.00  0.00    +0.000 OA
ATOM      6  C   UNL     1       3.668   4.946  18.294  0.00  0.00    +0.000 A 
ATOM      7  C   UNL     1       3.971   6.038  17.487  0.00  0.00    +0.000 A 
ATOM      8  C   UNL     1       3.372   7.251  17.772  0.00  0.00    +0.000 A 
ATOM      9  F   UNL     1       3.668   8.309  17.004  0.00  0.00    +0.000 F 
ATOM     10  C   UNL     1       2.486   7.367  18.851  0.00  0.00    +0.000 A 
ATOM     11  N   UNL     1       1.788   8.529  19.130  0.00  0.00    +0.000 N 
ATOM     12  C   UNL     1       1.473   8.837  20.528  0.00  0.00    +0.000 C 
ATOM     13  C   UNL     1       0.033   9.368  20.692  0.00  0.00    +0.000 C 
ATOM     14  N   UNL     1      -0.232  10.524  19.701  0.00  0.00    +0.000 NA
ATOM     15  C   UNL     1      -0.078   9.955  18.277  0.00  0.00    +0.000 C 
ATOM     16  C   UNL     1       1.358   9.412  18.044  0.00  0.00    +0.000 C 
ATOM     17  C   UNL     1       0.730  11.660  19.942  0.00  0.00    +0.000 C 
ATOM     18  N   UNL     1      -0.137  12.781  20.148  0.00  0.00    +0.000 N 
ATOM     19  C   UNL     1       0.307  14.016  20.565  0.00  0.00    +0.000 C 
ATOM     20  C   UNL     1       1.784  14.287  20.576  0.00  0.00    +0.000 C 
ATOM     21  C   UNL     1      -0.589  14.927  20.963  0.00  0.00    +0.000 C 
ATOM     22  C   UNL     1      -2.036  14.692  20.858  0.00  0.00    +0.000 C 
ATOM     23  C   UNL     1      -2.788  15.977  21.106  0.00  0.00    +0.000 C 
ATOM     24  C   UNL     1      -2.550  13.467  20.524  0.00  0.00    +0.000 C 
ATOM     25  C   UNL     1      -1.473  12.414  20.187  0.00  0.00    +0.000 C 
ATOM     26  N   UNL     1      -1.660  11.135  19.925  0.00  0.00    +0.000 NA
ATOM     27  N   UNL     1       2.236   6.307  19.653  0.00  0.00    +0.000 NA
ATOM     28  C   UNL     1       2.802   5.103  19.379  0.00  0.00    +0.000 A 
ENDROOT
BRANCH   1  30
ATOM     29  C   UNL     1       1.209   2.855  21.950  0.00  0.00    +0.000 C 
ATOM     30  C   UNL     1       1.476   4.165  21.218  0.00  0.00    +0.000 C 
ENDBRANCH   1  30
BRANCH   3  31
ATOM     31  C   UNL     1       4.472   1.135  18.732  0.00  0.00    +0.000 C 
ATOM     32  O   UNL     1       5.027   0.523  19.633  0.00  0.00    +0.000 OA
BRANCH  31  33
ATOM     33  O   UNL     1       4.314   0.614  17.497  0.00  0.00    +0.000 OA
ATOM     34  H   UNL     1       4.907   0.999  16.807  0.00  0.00    +0.000 HD
ENDBRANCH  31  33
ENDBRANCH   3  31
BRANCH  24  35
ATOM     35  C   UNL     1      -3.978  13.069  20.390  0.00  0.00    +0.000 C 
ATOM     36  O   UNL     1      -4.745  13.100  21.343  0.00  0.00    +0.000 OA
BRANCH  35  37
ATOM     37  O   UNL     1      -4.437  12.692  19.183  0.00  0.00    +0.000 OA
ATOM     38  H   UNL     1      -5.066  11.951  19.110  0.00  0.00    +0.000 HD
ENDBRANCH  35  37
ENDBRANCH  24  35
TORSDOF 5
ENDMDL
MODEL 3
REMARK VINA RESULT:      -7.1      1.273      1.632
REMARK  Name = 
REMARK  8 active torsions:
REMARK  status: ('A' for Active; 'I' for Inactive)
REMARK    1  A    between atoms: C_1  and  C_2
REMARK    2  A    between atoms: C_2  and  N_3
REMARK    3  A    between atoms: C_5  and  C_6
REMARK    4  A    between atoms: C_6  and  O_8
REMARK    5  A    between atoms: C_24  and  C_25
REMARK    6  A    between atoms: C_27  and  C_28
REMARK    7  A    between atoms: C_29  and  C_30
REMARK    8  A    between atoms: C_30  and  O_32
REMARK                            x       y       z     vdW  Elec       q    Type
REMARK                         _______ _______ _______ _____ _____    ______ ____
ROOT
ATOM      1  N   UNL     1       2.579   4.061  20.335  0.00  0.00    +0.000 N 
ATOM      2  C   UNL     1       3.084   2.866  19.849  0.00  0.00    +0.000 A 
ATOM      3  C   UNL     1       3.671   2.689  18.656  0.00  0.00    +0.000 A 
ATOM      4  C   UNL     1       3.763   3.875  17.782  0.00  0.00    +0.000 A 
ATOM      5  O   UNL     1       4.236   3.779  16.652  0.00  0.00    +0.000 OA
ATOM      6  C   UNL     1       3.262   5.165  18.292  0.00  0.00    +0.000 A 
ATOM      7  C   UNL     1       3.364   6.312  17.513  0.00  0.00    +0.000 A 
ATOM      8  C   UNL     1       2.839   7.491  18.008  0.00  0.00    +0.000 A 
ATOM      9  F   UNL     1       2.944   8.603  17.265  0.00  0.00    +0.000 F 
ATOM     10  C   UNL     1       2.225   7.520  19.267  0.00  0.00    +0.000 A 
ATOM     11  N   UNL     1       1.603   8.647  19.776  0.00  0.00    +0.000 N 
ATOM     12  C   UNL     1       1.617   8.858  21.226  0.00  0.00    +0.000 C 
ATOM     13  C   UNL     1       0.250   9.347  21.752  0.00  0.00    +0.000 C 
ATOM     14  N   UNL     1      -0.243  10.557  20.927  0.00  0.00    +0.000 NA
ATOM     15  C   UNL     1      -0.418  10.084  19.471  0.00  0.00    +0.000 C 
ATOM     16  C   UNL     1       0.929   9.588  18.879  0.00  0.00    +0.000 C 
ATOM     17  C   UNL     1       0.741  11.697  21.016  0.00  0.00    +0.000 C 
ATOM     18  N   UNL     1      -0.061  12.783  21.490  0.00  0.00    +0.000 N 
ATOM     19  C   UNL     1       0.459  13.999  21.875  0.00  0.00    +0.000 C 
ATOM     20  C   UNL     1       1.897  14.300  21.565  0.00  0.00    +0.000 C 
ATOM     21  C   UNL     1      -0.327  14.863  22.529  0.00  0.00    +0.000 C 
ATOM     22  C   UNL     1      -1.757  14.604  22.743  0.00  0.00    +0.000 C 
ATOM     23  C   UNL     1      -2.440  15.854  23.242  0.00  0.00    +0.000 C 
ATOM     24  C   UNL     1      -2.327  13.392  22.455  0.00  0.00    +0.000 C 
ATOM     25  C   UNL     1      -1.350  12.386  21.810  0.00  0.00    +0.000 C 
ATOM     26  N   UNL     1      -1.585  11.123  21.514  0.00  0.00    +0.000 NA
ATOM     27  N   UNL     1       2.174   6.406  20.032  0.00  0.00    +0.000 NA
ATOM     28  C   UNL     1       2.668   5.235  19.555  0.00  0.00    +0.000 A 
ENDROOT
BRANCH   1  30
ATOM     29  C   UNL     1       1.336   2.774  22.029  0.00  0.00    +0.000 C 
ATOM     30  C   UNL     1       1.808   4.153  21.583  0.00  0.00    +0.000 C 
ENDBRANCH   1  30
BRANCH   3  31
ATOM     31  C   UNL     1       4.169   1.352  18.279  0.00  0.00    +0.000 C 
ATOM     32  O   UNL     1       4.058   0.891  17.153  0.00  0.00    +0.000 OA
BRANCH  31  33
ATOM     33  O   UNL     1       4.755   0.667  19.284  0.00  0.00    +0.000 OA
ATOM     34  H   UNL     1       5.693   0.921  19.466  0.00  0.00    +0.000 HD
ENDBRANCH  31  33
ENDBRANCH   3  31
BRANCH  24  35
ATOM     35  C   UNL     1      -3.745  12.973  22.626  0.00  0.00    +0.000 C 
ATOM     36  O   UNL     1      -4.632  13.403  21.901  0.00  0.00    +0.000 OA
BRANCH  35  37
ATOM     37  O   UNL     1      -4.048  12.079  23.584  0.00  0.00    +0.000 OA
ATOM     38  H   UNL     1      -4.964  11.758  23.680  0.00  0.00    +0.000 HD
ENDBRANCH  35  37
ENDBRANCH  24  35
TORSDOF 5
ENDMDL
MODEL 4
REMARK VINA RESULT:      -7.1      0.853      1.130
REMARK  Name = 
REMARK  8 active torsions:
REMARK  status: ('A' for Active; 'I' for Inactive)
REMARK    1  A    between atoms: C_1  and  C_2
REMARK    2  A    between atoms: C_2  and  N_3
REMARK    3  A    between atoms: C_5  and  C_6
REMARK    4  A    between atoms: C_6  and  O_8
REMARK    5  A    between atoms: C_24  and  C_25
REMARK    6  A    between atoms: C_27  and  C_28
REMARK    7  A    between atoms: C_29  and  C_30
REMARK    8  A    between atoms: C_30  and  O_32
REMARK                            x       y       z     vdW  Elec       q    Type
REMARK                         _______ _______ _______ _____ _____    ______ ____
ROOT
ATOM      1  N   UNL     1       2.478   5.997  19.698  0.00  0.00    +0.000 N 
ATOM      2  C   UNL     1       3.200   5.027  19.023  0.00  0.00    +0.000 A 
ATOM      3  C   UNL     1       3.876   5.204  17.879  0.00  0.00    +0.000 A 
ATOM      4  C   UNL     1       3.821   6.552  17.281  0.00  0.00    +0.000 A 
ATOM      5  O   UNL     1       4.368   6.778  16.203  0.00  0.00    +0.000 OA
ATOM      6  C   UNL     1       3.086   7.611  17.999  0.00  0.00    +0.000 A 
ATOM      7  C   UNL     1       3.042   8.902  17.485  0.00  0.00    +0.000 A 
ATOM      8  C   UNL     1       2.302   9.853  18.163  0.00  0.00    +0.000 A 
ATOM      9  F   UNL     1       2.265  11.103  17.678  0.00  0.00    +0.000 F 
ATOM     10  C   UNL     1       1.621   9.515  19.340  0.00  0.00    +0.000 A 
ATOM     11  N   UNL     1       0.793  10.398  20.011  0.00  0.00    +0.000 N 
ATOM     12  C   UNL     1       0.689  10.287  21.469  0.00  0.00    +0.000 C 
ATOM     13  C   UNL     1      -0.768  10.440  21.957  0.00  0.00    +0.000 C 
ATOM     14  N   UNL     1      -1.406  11.714  21.358  0.00  0.00    +0.000 NA
ATOM     15  C   UNL     1      -1.416  11.550  19.825  0.00  0.00    +0.000 C 
ATOM     16  C   UNL     1       0.025  11.401  19.270  0.00  0.00    +0.000 C 
ATOM     17  C   UNL     1      -0.630  12.940  21.770  0.00  0.00    +0.000 C 
ATOM     18  N   UNL     1      -1.626  13.765  22.383  0.00  0.00    +0.000 N 
ATOM     19  C   UNL     1      -1.337  14.930  23.057  0.00  0.00    +0.000 C 
ATOM     20  C   UNL     1       0.047  15.503  22.948  0.00  0.00    +0.000 C 
ATOM     21  C   UNL     1      -2.290  15.504  23.800  0.00  0.00    +0.000 C 
ATOM     22  C   UNL     1      -3.669  14.995  23.824  0.00  0.00    +0.000 C 
ATOM     23  C   UNL     1      -4.576  15.990  24.507  0.00  0.00    +0.000 C 
ATOM     24  C   UNL     1      -4.013  13.804  23.242  0.00  0.00    +0.000 C 
ATOM     25  C   UNL     1      -2.848  13.121  22.494  0.00  0.00    +0.000 C 
ATOM     26  N   UNL     1      -2.854  11.932  21.923  0.00  0.00    +0.000 NA
ATOM     27  N   UNL     1       1.710   8.266  19.850  0.00  0.00    +0.000 NA
ATOM     28  C   UNL     1       2.417   7.314  19.189  0.00  0.00    +0.000 A 
ENDROOT
BRANCH   1  30
ATOM     29  C   UNL     1       1.127   4.262  20.809  0.00  0.00    +0.000 C 
ATOM     30  C   UNL     1       1.632   5.699  20.862  0.00  0.00    +0.000 C 
ENDBRANCH   1  30
BRANCH   3  31
ATOM     31  C   UNL     1       4.609   4.071  17.281  0.00  0.00    +0.000 C 
ATOM     32  O   UNL     1       5.775   4.144  16.924  0.00  0.00    +0.000 OA
BRANCH  31  33
ATOM     33  O   UNL     1       3.884   2.939  17.151  0.00  0.00    +0.000 OA
ATOM     34  H   UNL     1       4.211   2.317  16.456  0.00  0.00    +0.000 HD
ENDBRANCH  31  33
ENDBRANCH   3  31
BRANCH  24  35
ATOM     35  C   UNL     1      -5.351  13.151  23.191  0.00  0.00    +0.000 C 
ATOM     36  O   UNL     1      -5.692  12.327  24.028  0.00  0.00    +0.000 OA
BRANCH  35  37
ATOM     37  O   UNL     1      -6.208  13.500  22.216  0.00  0.00    +0.000 OA
ATOM     38  H   UNL     1      -7.053  13.932  22.439  0.00  0.00    +0.000 HD
ENDBRANCH  35  37
ENDBRANCH  24  35
TORSDOF 5
ENDMDL
MODEL 5
REMARK VINA RESULT:      -6.8      5.666      7.881
REMARK  Name = 
REMARK  8 active torsions:
REMARK  status: ('A' for Active; 'I' for Inactive)
REMARK    1  A    between atoms: C_1  and  C_2
REMARK    2  A    between atoms: C_2  and  N_3
REMARK    3  A    between atoms: C_5  and  C_6
REMARK    4  A    between atoms: C_6  and  O_8
REMARK    5  A    between atoms: C_24  and  C_25
REMARK    6  A    between atoms: C_27  and  C_28
REMARK    7  A    between atoms: C_29  and  C_30
REMARK    8  A    between atoms: C_30  and  O_32
REMARK                            x       y       z     vdW  Elec       q    Type
REMARK                         _______ _______ _______ _____ _____    ______ ____
ROOT
ATOM      1  N   UNL     1       4.082  16.764  19.351  0.00  0.00    +0.000 N 
ATOM      2  C   UNL     1       5.398  17.081  19.059  0.00  0.00    +0.000 A 
ATOM      3  C   UNL     1       6.286  16.277  18.457  0.00  0.00    +0.000 A 
ATOM      4  C   UNL     1       5.814  14.926  18.097  0.00  0.00    +0.000 A 
ATOM      5  O   UNL     1       6.585  14.111  17.594  0.00  0.00    +0.000 OA
ATOM      6  C   UNL     1       4.407  14.576  18.366  0.00  0.00    +0.000 A 
ATOM      7  C   UNL     1       3.916  13.325  18.008  0.00  0.00    +0.000 A 
ATOM      8  C   UNL     1       2.605  13.020  18.323  0.00  0.00    +0.000 A 
ATOM      9  F   UNL     1       2.123  11.820  17.970  0.00  0.00    +0.000 F 
ATOM     10  C   UNL     1       1.798  13.956  18.982  0.00  0.00    +0.000 A 
ATOM     11  N   UNL     1       0.509  13.676  19.403  0.00  0.00    +0.000 N 
ATOM     12  C   UNL     1      -0.472  14.765  19.422  0.00  0.00    +0.000 C 
ATOM     13  C   UNL     1      -1.345  14.733  20.696  0.00  0.00    +0.000 C 
ATOM     14  N   UNL     1      -1.940  13.324  20.906  0.00  0.00    +0.000 NA
ATOM     15  C   UNL     1      -0.762  12.348  21.094  0.00  0.00    +0.000 C 
ATOM     16  C   UNL     1       0.151  12.325  19.839  0.00  0.00    +0.000 C 
ATOM     17  C   UNL     1      -2.795  12.927  19.728  0.00  0.00    +0.000 C 
ATOM     18  N   UNL     1      -4.054  12.612  20.331  0.00  0.00    +0.000 N 
ATOM     19  C   UNL     1      -5.197  12.351  19.609  0.00  0.00    +0.000 C 
ATOM     20  C   UNL     1      -5.082  12.144  18.126  0.00  0.00    +0.000 C 
ATOM     21  C   UNL     1      -6.373  12.309  20.247  0.00  0.00    +0.000 C 
ATOM     22  C   UNL     1      -6.467  12.415  21.710  0.00  0.00    +0.000 C 
ATOM     23  C   UNL     1      -7.860  12.051  22.165  0.00  0.00    +0.000 C 
ATOM     24  C   UNL     1      -5.389  12.747  22.485  0.00  0.00    +0.000 C 
ATOM     25  C   UNL     1      -4.076  12.901  21.686  0.00  0.00    +0.000 C 
ATOM     26  N   UNL     1      -2.906  13.305  22.143  0.00  0.00    +0.000 NA
ATOM     27  N   UNL     1       2.276  15.185  19.284  0.00  0.00    +0.000 NA
ATOM     28  C   UNL     1       3.567  15.497  18.999  0.00  0.00    +0.000 A 
ENDROOT
BRANCH   1  30
ATOM     29  C   UNL     1       3.981  18.256  21.309  0.00  0.00    +0.000 C 
ATOM     30  C   UNL     1       3.209  17.633  20.151  0.00  0.00    +0.000 C 
ENDBRANCH   1  30
BRANCH   3  31
ATOM     31  C   UNL     1       7.657  16.762  18.205  0.00  0.00    +0.000 C 
ATOM     32  O   UNL     1       8.043  17.873  18.537  0.00  0.00    +0.000 OA
BRANCH  31  33
ATOM     33  O   UNL     1       8.457  15.880  17.569  0.00  0.00    +0.000 OA
ATOM     34  H   UNL     1       8.643  15.052  18.075  0.00  0.00    +0.000 HD
ENDBRANCH  31  33
ENDBRANCH   3  31
BRANCH  24  35
ATOM     35  C   UNL     1      -5.326  12.906  23.964  0.00  0.00    +0.000 C 
ATOM     36  O   UNL     1      -5.481  11.954  24.717  0.00  0.00    +0.000 OA
BRANCH  35  37
ATOM     37  O   UNL     1      -5.065  14.121  24.477  0.00  0.00    +0.000 OA
ATOM     38  H   UNL     1      -5.535  14.425  25.276  0.00  0.00    +0.000 HD
ENDBRANCH  35  37
ENDBRANCH  24  35
TORSDOF 5
ENDMDL
MODEL 6
REMARK VINA RESULT:      -6.7      3.463      4.605
REMARK  Name = 
REMARK  8 active torsions:
REMARK  status: ('A' for Active; 'I' for Inactive)
REMARK    1  A    between atoms: C_1  and  C_2
REMARK    2  A    between atoms: C_2  and  N_3
REMARK    3  A    between atoms: C_5  and  C_6
REMARK    4  A    between atoms: C_6  and  O_8
REMARK    5  A    between atoms: C_24  and  C_25
REMARK    6  A    between atoms: C_27  and  C_28
REMARK    7  A    between atoms: C_29  and  C_30
REMARK    8  A    between atoms: C_30  and  O_32
REMARK                            x       y       z     vdW  Elec       q    Type
REMARK                         _______ _______ _______ _____ _____    ______ ____
ROOT
ATOM      1  N   UNL     1       3.345   6.181  17.936  0.00  0.00    +0.000 N 
ATOM      2  C   UNL     1       3.751   4.858  17.905  0.00  0.00    +0.000 A 
ATOM      3  C   UNL     1       3.467   3.926  18.826  0.00  0.00    +0.000 A 
ATOM      4  C   UNL     1       2.666   4.366  19.985  0.00  0.00    +0.000 A 
ATOM      5  O   UNL     1       2.414   3.585  20.900  0.00  0.00    +0.000 OA
ATOM      6  C   UNL     1       2.193   5.763  20.025  0.00  0.00    +0.000 A 
ATOM      7  C   UNL     1       1.407   6.205  21.082  0.00  0.00    +0.000 A 
ATOM      8  C   UNL     1       1.025   7.534  21.105  0.00  0.00    +0.000 A 
ATOM      9  F   UNL     1       0.258   7.964  22.118  0.00  0.00    +0.000 F 
ATOM     10  C   UNL     1       1.423   8.404  20.082  0.00  0.00    +0.000 A 
ATOM     11  N   UNL     1       1.149   9.760  20.097  0.00  0.00    +0.000 N 
ATOM     12  C   UNL     1       0.942  10.446  18.818  0.00  0.00    +0.000 C 
ATOM     13  C   UNL     1       1.647  11.819  18.779  0.00  0.00    +0.000 C 
ATOM     14  N   UNL     1       1.275  12.652  20.026  0.00  0.00    +0.000 NA
ATOM     15  C   UNL     1       1.774  11.879  21.263  0.00  0.00    +0.000 C 
ATOM     16  C   UNL     1       1.092  10.489  21.366  0.00  0.00    +0.000 C 
ATOM     17  C   UNL     1      -0.215  12.878  20.088  0.00  0.00    +0.000 C 
ATOM     18  N   UNL     1      -0.324  14.304  20.162  0.00  0.00    +0.000 N 
ATOM     19  C   UNL     1      -1.522  14.978  20.073  0.00  0.00    +0.000 C 
ATOM     20  C   UNL     1      -2.800  14.193  20.145  0.00  0.00    +0.000 C 
ATOM     21  C   UNL     1      -1.508  16.306  19.907  0.00  0.00    +0.000 C 
ATOM     22  C   UNL     1      -0.258  17.080  19.936  0.00  0.00    +0.000 C 
ATOM     23  C   UNL     1      -0.566  18.556  20.012  0.00  0.00    +0.000 C 
ATOM     24  C   UNL     1       0.970  16.475  19.947  0.00  0.00    +0.000 C 
ATOM     25  C   UNL     1       0.901  14.935  20.019  0.00  0.00    +0.000 C 
ATOM     26  N   UNL     1       1.909  14.086  19.949  0.00  0.00    +0.000 NA
ATOM     27  N   UNL     1       2.151   7.948  19.037  0.00  0.00    +0.000 NA
ATOM     28  C   UNL     1       2.550   6.650  19.005  0.00  0.00    +0.000 A 
ENDROOT
BRANCH   1  30
ATOM     29  C   UNL     1       5.066   6.691  16.249  0.00  0.00    +0.000 C 
ATOM     30  C   UNL     1       3.822   7.186  16.977  0.00  0.00    +0.000 C 
ENDBRANCH   1  30
BRANCH   3  31
ATOM     31  C   UNL     1       3.966   2.548  18.650  0.00  0.00    +0.000 C 
ATOM     32  O   UNL     1       3.604   1.819  17.738  0.00  0.00    +0.000 OA
BRANCH  31  33
ATOM     33  O   UNL     1       4.855   2.149  19.584  0.00  0.00    +0.000 OA
ATOM     34  H   UNL     1       4.455   1.728  20.382  0.00  0.00    +0.000 HD
ENDBRANCH  31  33
ENDBRANCH   3  31
BRANCH  24  35
ATOM     35  C   UNL     1       2.316  17.113  19.963  0.00  0.00    +0.000 C 
ATOM     36  O   UNL     1       2.654  17.916  19.104  0.00  0.00    +0.000 OA
BRANCH  35  37
ATOM     37  O   UNL     1       3.164  16.815  20.963  0.00  0.00    +0.000 OA
ATOM     38  H   UNL     1       3.206  15.906  21.313  0.00  0.00    +0.000 HD
ENDBRANCH  35  37
ENDBRANCH  24  35
TORSDOF 5
ENDMDL
MODEL 7
REMARK VINA RESULT:      -6.4      2.769      4.601
REMARK  Name = 
REMARK  8 active torsions:
REMARK  status: ('A' for Active; 'I' for Inactive)
REMARK    1  A    between atoms: C_1  and  C_2
REMARK    2  A    between atoms: C_2  and  N_3
REMARK    3  A    between atoms: C_5  and  C_6
REMARK    4  A    between atoms: C_6  and  O_8
REMARK    5  A    between atoms: C_24  and  C_25
REMARK    6  A    between atoms: C_27  and  C_28
REMARK    7  A    between atoms: C_29  and  C_30
REMARK    8  A    between atoms: C_30  and  O_32
REMARK                            x       y       z     vdW  Elec       q    Type
REMARK                         _______ _______ _______ _____ _____    ______ ____
ROOT
ATOM      1  N   UNL     1       1.745   9.593  18.246  0.00  0.00    +0.000 N 
ATOM      2  C   UNL     1       2.609   8.624  17.764  0.00  0.00    +0.000 A 
ATOM      3  C   UNL     1       2.896   7.460  18.364  0.00  0.00    +0.000 A 
ATOM      4  C   UNL     1       2.243   7.207  19.663  0.00  0.00    +0.000 A 
ATOM      5  O   UNL     1       2.500   6.187  20.300  0.00  0.00    +0.000 OA
ATOM      6  C   UNL     1       1.292   8.209  20.179  0.00  0.00    +0.000 A 
ATOM      7  C   UNL     1       0.631   7.989  21.382  0.00  0.00    +0.000 A 
ATOM      8  C   UNL     1      -0.216   8.975  21.855  0.00  0.00    +0.000 A 
ATOM      9  F   UNL     1      -0.865   8.764  23.009  0.00  0.00    +0.000 F 
ATOM     10  C   UNL     1      -0.398  10.161  21.130  0.00  0.00    +0.000 A 
ATOM     11  N   UNL     1      -1.159  11.218  21.596  0.00  0.00    +0.000 N 
ATOM     12  C   UNL     1      -1.868  12.051  20.620  0.00  0.00    +0.000 C 
ATOM     13  C   UNL     1      -1.765  13.554  20.961  0.00  0.00    +0.000 C 
ATOM     14  N   UNL     1      -2.163  13.802  22.433  0.00  0.00    +0.000 NA
ATOM     15  C   UNL     1      -1.166  13.028  23.318  0.00  0.00    +0.000 C 
ATOM     16  C   UNL     1      -1.230  11.504  23.030  0.00  0.00    +0.000 C 
ATOM     17  C   UNL     1      -3.580  13.349  22.683  0.00  0.00    +0.000 C 
ATOM     18  N   UNL     1      -4.207  14.522  23.212  0.00  0.00    +0.000 N 
ATOM     19  C   UNL     1      -5.562  14.621  23.438  0.00  0.00    +0.000 C 
ATOM     20  C   UNL     1      -6.400  13.378  23.360  0.00  0.00    +0.000 C 
ATOM     21  C   UNL     1      -6.090  15.823  23.700  0.00  0.00    +0.000 C 
ATOM     22  C   UNL     1      -5.253  17.019  23.872  0.00  0.00    +0.000 C 
ATOM     23  C   UNL     1      -6.078  18.151  24.435  0.00  0.00    +0.000 C 
ATOM     24  C   UNL     1      -3.913  17.013  23.592  0.00  0.00    +0.000 C 
ATOM     25  C   UNL     1      -3.372  15.627  23.179  0.00  0.00    +0.000 C 
ATOM     26  N   UNL     1      -2.154  15.337  22.763  0.00  0.00    +0.000 NA
ATOM     27  N   UNL     1       0.219  10.340  19.940  0.00  0.00    +0.000 NA
ATOM     28  C   UNL     1       1.067   9.390  19.468  0.00  0.00    +0.000 A 
ENDROOT
BRANCH   1  30
ATOM     29  C   UNL     1       2.583  11.909  18.214  0.00  0.00    +0.000 C 
ATOM     30  C   UNL     1       1.595  10.913  17.618  0.00  0.00    +0.000 C 
ENDBRANCH   1  30
BRANCH   3  31
ATOM     31  C   UNL     1       3.836   6.520  17.721  0.00  0.00    +0.000 C 
ATOM     32  O   UNL     1       3.527   5.382  17.400  0.00  0.00    +0.000 OA
BRANCH  31  33
ATOM     33  O   UNL     1       5.076   7.015  17.519  0.00  0.00    +0.000 OA
ATOM     34  H   UNL     1       5.100   7.920  17.123  0.00  0.00    +0.000 HD
ENDBRANCH  31  33
ENDBRANCH   3  31
BRANCH  24  35
ATOM     35  C   UNL     1      -2.939  18.135  23.701  0.00  0.00    +0.000 C 
ATOM     36  O   UNL     1      -2.651  18.629  24.783  0.00  0.00    +0.000 OA
BRANCH  35  37
ATOM     37  O   UNL     1      -2.348  18.593  22.584  0.00  0.00    +0.000 OA
ATOM     38  H   UNL     1      -1.471  19.016  22.634  0.00  0.00    +0.000 HD
ENDBRANCH  35  37
ENDBRANCH  24  35
TORSDOF 5
ENDMDL
MODEL 8
REMARK VINA RESULT:      -6.0      2.607     10.498
REMARK  Name = 
REMARK  8 active torsions:
REMARK  status: ('A' for Active; 'I' for Inactive)
REMARK    1  A    between atoms: C_1  and  C_2
REMARK    2  A    between atoms: C_2  and  N_3
REMARK    3  A    between atoms: C_5  and  C_6
REMARK    4  A    between atoms: C_6  and  O_8
REMARK    5  A    between atoms: C_24  and  C_25
REMARK    6  A    between atoms: C_27  and  C_28
REMARK    7  A    between atoms: C_29  and  C_30
REMARK    8  A    between atoms: C_30  and  O_32
REMARK                            x       y       z     vdW  Elec       q    Type
REMARK                         _______ _______ _______ _____ _____    ______ ____
ROOT
ATOM      1  N   UNL     1      -3.649  13.575  21.683  0.00  0.00    +0.000 N 
ATOM      2  C   UNL     1      -4.275  14.737  22.102  0.00  0.00    +0.000 A 
ATOM      3  C   UNL     1      -3.663  15.873  22.465  0.00  0.00    +0.000 A 
ATOM      4  C   UNL     1      -2.187  15.867  22.433  0.00  0.00    +0.000 A 
ATOM      5  O   UNL     1      -1.553  16.852  22.806  0.00  0.00    +0.000 OA
ATOM      6  C   UNL     1      -1.498  14.653  21.958  0.00  0.00    +0.000 A 
ATOM      7  C   UNL     1      -0.111  14.622  21.879  0.00  0.00    +0.000 A 
ATOM      8  C   UNL     1       0.498  13.447  21.475  0.00  0.00    +0.000 A 
ATOM      9  F   UNL     1       1.836  13.415  21.388  0.00  0.00    +0.000 F 
ATOM     10  C   UNL     1      -0.274  12.324  21.152  0.00  0.00    +0.000 A 
ATOM     11  N   UNL     1       0.280  11.097  20.830  0.00  0.00    +0.000 N 
ATOM     12  C   UNL     1      -0.432  10.237  19.880  0.00  0.00    +0.000 C 
ATOM     13  C   UNL     1      -0.432   8.759  20.328  0.00  0.00    +0.000 C 
ATOM     14  N   UNL     1       1.004   8.299  20.666  0.00  0.00    +0.000 NA
ATOM     15  C   UNL     1       1.504   9.167  21.838  0.00  0.00    +0.000 C 
ATOM     16  C   UNL     1       1.537  10.668  21.446  0.00  0.00    +0.000 C 
ATOM     17  C   UNL     1       1.902   8.437  19.462  0.00  0.00    +0.000 C 
ATOM     18  N   UNL     1       2.437   7.118  19.303  0.00  0.00    +0.000 N 
ATOM     19  C   UNL     1       3.193   6.732  18.219  0.00  0.00    +0.000 C 
ATOM     20  C   UNL     1       3.691   7.787  17.274  0.00  0.00    +0.000 C 
ATOM     21  C   UNL     1       3.442   5.430  18.032  0.00  0.00    +0.000 C 
ATOM     22  C   UNL     1       3.035   4.413  19.011  0.00  0.00    +0.000 C 
ATOM     23  C   UNL     1       3.690   3.092  18.686  0.00  0.00    +0.000 C 
ATOM     24  C   UNL     1       2.221   4.710  20.071  0.00  0.00    +0.000 C 
ATOM     25  C   UNL     1       1.864   6.208  20.177  0.00  0.00    +0.000 C 
ATOM     26  N   UNL     1       1.029   6.772  21.029  0.00  0.00    +0.000 NA
ATOM     27  N   UNL     1      -1.624  12.384  21.191  0.00  0.00    +0.000 NA
ATOM     28  C   UNL     1      -2.240  13.523  21.602  0.00  0.00    +0.000 A 
ENDROOT
BRANCH   1  30
ATOM     29  C   UNL     1      -5.878  12.540  21.515  0.00  0.00    +0.000 C 
ATOM     30  C   UNL     1      -4.371  12.317  21.450  0.00  0.00    +0.000 C 
ENDBRANCH   1  30
BRANCH   3  31
ATOM     31  C   UNL     1      -4.470  17.036  22.882  0.00  0.00    +0.000 C 
ATOM     32  O   UNL     1      -5.467  17.407  22.280  0.00  0.00    +0.000 OA
BRANCH  31  33
ATOM     33  O   UNL     1      -4.015  17.669  23.984  0.00  0.00    +0.000 OA
ATOM     34  H   UNL     1      -3.676  18.584  23.825  0.00  0.00    +0.000 HD
ENDBRANCH  31  33
ENDBRANCH   3  31
BRANCH  24  35
ATOM     35  C   UNL     1       1.714   3.797  21.133  0.00  0.00    +0.000 C 
ATOM     36  O   UNL     1       2.272   3.704  22.218  0.00  0.00    +0.000 OA
BRANCH  35  37
ATOM     37  O   UNL     1       0.601   3.081  20.897  0.00  0.00    +0.000 OA
ATOM     38  H   UNL     1      -0.265   3.408  21.203  0.00  0.00    +0.000 HD
ENDBRANCH  35  37
ENDBRANCH  24  35
TORSDOF 5
ENDMDL
MODEL 9
REMARK VINA RESULT:      -5.8      2.181      3.478
REMARK  Name = 
REMARK  8 active torsions:
REMARK  status: ('A' for Active; 'I' for Inactive)
REMARK    1  A    between atoms: C_1  and  C_2
REMARK    2  A    between atoms: C_2  and  N_3
REMARK    3  A    between atoms: C_5  and  C_6
REMARK    4  A    between atoms: C_6  and  O_8
REMARK    5  A    between atoms: C_24  and  C_25
REMARK    6  A    between atoms: C_27  and  C_28
REMARK    7  A    between atoms: C_29  and  C_30
REMARK    8  A    between atoms: C_30  and  O_32
REMARK                            x       y       z     vdW  Elec       q    Type
REMARK                         _______ _______ _______ _____ _____    ______ ____
ROOT
ATOM      1  N   UNL     1       1.113   8.198  20.750  0.00  0.00    +0.000 N 
ATOM      2  C   UNL     1       1.839   7.182  20.152  0.00  0.00    +0.000 A 
ATOM      3  C   UNL     1       2.443   7.247  18.956  0.00  0.00    +0.000 A 
ATOM      4  C   UNL     1       2.297   8.511  18.210  0.00  0.00    +0.000 A 
ATOM      5  O   UNL     1       2.773   8.627  17.082  0.00  0.00    +0.000 OA
ATOM      6  C   UNL     1       1.556   9.620  18.841  0.00  0.00    +0.000 A 
ATOM      7  C   UNL     1       1.427  10.838  18.184  0.00  0.00    +0.000 A 
ATOM      8  C   UNL     1       0.685  11.835  18.790  0.00  0.00    +0.000 A 
ATOM      9  F   UNL     1       0.566  13.016  18.165  0.00  0.00    +0.000 F 
ATOM     10  C   UNL     1       0.084  11.614  20.036  0.00  0.00    +0.000 A 
ATOM     11  N   UNL     1      -0.744  12.539  20.648  0.00  0.00    +0.000 N 
ATOM     12  C   UNL     1      -0.763  12.598  22.112  0.00  0.00    +0.000 C 
ATOM     13  C   UNL     1      -2.197  12.754  22.665  0.00  0.00    +0.000 C 
ATOM     14  N   UNL     1      -2.921  13.923  21.961  0.00  0.00    +0.000 NA
ATOM     15  C   UNL     1      -3.008  13.577  20.461  0.00  0.00    +0.000 C 
ATOM     16  C   UNL     1      -1.594  13.417  19.842  0.00  0.00    +0.000 C 
ATOM     17  C   UNL     1      -2.178  15.217  22.180  0.00  0.00    +0.000 C 
ATOM     18  N   UNL     1      -3.175  16.072  22.750  0.00  0.00    +0.000 N 
ATOM     19  C   UNL     1      -2.901  17.319  23.265  0.00  0.00    +0.000 C 
ATOM     20  C   UNL     1      -1.551  17.925  23.009  0.00  0.00    +0.000 C 
ATOM     21  C   UNL     1      -3.837  17.941  23.992  0.00  0.00    +0.000 C 
ATOM     22  C   UNL     1      -5.188  17.388  24.158  0.00  0.00    +0.000 C 
ATOM     23  C   UNL     1      -6.099  18.423  24.772  0.00  0.00    +0.000 C 
ATOM     24  C   UNL     1      -5.511  16.124  23.740  0.00  0.00    +0.000 C 
ATOM     25  C   UNL     1      -4.360  15.400  23.009  0.00  0.00    +0.000 C 
ATOM     26  N   UNL     1      -4.345  14.152  22.582  0.00  0.00    +0.000 NA
ATOM     27  N   UNL     1       0.256  10.438  20.682  0.00  0.00    +0.000 NA
ATOM     28  C   UNL     1       0.967   9.441  20.096  0.00  0.00    +0.000 A 
ENDROOT
BRANCH   1  30
ATOM     29  C   UNL     1       0.523   9.203  22.921  0.00  0.00    +0.000 C 
ATOM     30  C   UNL     1       0.347   8.009  21.989  0.00  0.00    +0.000 C 
ENDBRANCH   1  30
BRANCH   3  31
ATOM     31  C   UNL     1       3.191   6.078  18.452  0.00  0.00    +0.000 C 
ATOM     32  O   UNL     1       2.839   4.925  18.650  0.00  0.00    +0.000 OA
BRANCH  31  33
ATOM     33  O   UNL     1       4.307   6.383  17.756  0.00  0.00    +0.000 OA
ATOM     34  H   UNL     1       5.013   6.832  18.283  0.00  0.00    +0.000 HD
ENDBRANCH  31  33
ENDBRANCH   3  31
BRANCH  24  35
ATOM     35  C   UNL     1      -6.819  15.421  23.845  0.00  0.00    +0.000 C 
ATOM     36  O   UNL     1      -7.815  15.831  23.266  0.00  0.00    +0.000 OA
BRANCH  35  37
ATOM     37  O   UNL     1      -6.894  14.294  24.576  0.00  0.00    +0.000 OA
ATOM     38  H   UNL     1      -6.109  13.724  24.676  0.00  0.00    +0.000 HD
ENDBRANCH  35  37
ENDBRANCH  24  35
TORSDOF 5
ENDMDL
