MODEL 1
REMARK VINA RESULT:      -8.0      0.000      0.000
REMARK  Name = 
REMARK  4 active torsions:
REMARK  status: ('A' for Active; 'I' for Inactive)
REMARK    1  A    between atoms: C_1  and  C_2
REMARK    2  A    between atoms: C_4  and  C_5
REMARK    3  A    between atoms: C_7  and  N_8
REMARK    4  A    between atoms: C_9  and  C_11
REMARK                            x       y       z     vdW  Elec       q    Type
REMARK                         _______ _______ _______ _____ _____    ______ ____
ROOT
ATOM      1  C   UNL     1       2.490   7.874  18.507  0.00  0.00    +0.000 A 
ATOM      2  C   UNL     1       3.320   7.657  17.471  0.00  0.00    +0.000 A 
ATOM      3  C   UNL     1       4.091   6.437  17.356  0.00  0.00    +0.000 A 
ATOM      4  C   UNL     1       4.950   6.224  16.276  0.00  0.00    +0.000 A 
ATOM      5  C   UNL     1       5.660   5.028  16.186  0.00  0.00    +0.000 A 
ATOM      6 CL   UNL     1       6.715   4.769  14.852  0.00  0.00    +0.000 Cl
ATOM      7  C   UNL     1       5.517   4.043  17.163  0.00  0.00    +0.000 A 
ATOM      8  C   UNL     1       4.660   4.260  18.245  0.00  0.00    +0.000 A 
ATOM      9 BR   UNL     1       4.484   2.902  19.551  0.00  0.00    +0.000 Br
ATOM     10  C   UNL     1       3.954   5.461  18.338  0.00  0.00    +0.000 A 
ATOM     11  O   UNL     1       3.095   5.693  19.434  0.00  0.00    +0.000 OA
ATOM     12  C   UNL     1       2.363   6.873  19.581  0.00  0.00    +0.000 A 
ATOM     13  O   UNL     1       1.646   7.067  20.559  0.00  0.00    +0.000 OA
ENDROOT
BRANCH   1  15
ATOM     14  N   UNL     1       0.646   9.285  19.293  0.00  0.00    +0.000 N 
ATOM     15  C   UNL     1       1.738   9.167  18.458  0.00  0.00    +0.000 C 
ATOM     16  O   UNL     1       2.134  10.036  17.683  0.00  0.00    +0.000 OA
ATOM     17  H   UNL     1       0.424   8.498  19.902  0.00  0.00    +0.000 HD
BRANCH  14  24
ATOM     18  C   UNL     1      -3.563  11.549  18.010  0.00  0.00    +0.000 C 
ATOM     19  C   UNL     1      -2.271  11.545  18.773  0.00  0.00    +0.000 A 
ATOM     20  C   UNL     1      -1.925  12.642  19.573  0.00  0.00    +0.000 A 
ATOM     21  C   UNL     1      -0.725  12.645  20.284  0.00  0.00    +0.000 A 
ATOM     22  C   UNL     1      -0.317  13.798  21.152  0.00  0.00    +0.000 C 
ATOM     23  C   UNL     1       0.125  11.537  20.189  0.00  0.00    +0.000 A 
ATOM     24  C   UNL     1      -0.194  10.425  19.404  0.00  0.00    +0.000 A 
ATOM     25  C   UNL     1      -1.398  10.442  18.690  0.00  0.00    +0.000 A 
ENDBRANCH  14  24
ENDBRANCH   1  15
TORSDOF 2
ENDMDL
MODEL 2
REMARK VINA RESULT:      -7.9      0.477      1.816
REMARK  Name = 
REMARK  4 active torsions:
REMARK  status: ('A' for Active; 'I' for Inactive)
REMARK    1  A    between atoms: C_1  and  C_2
REMARK    2  A    between atoms: C_4  and  C_5
REMARK    3  A    between atoms: C_7  and  N_8
REMARK    4  A    between atoms: C_9  and  C_11
REMARK                            x       y       z     vdW  Elec       q    Type
REMARK                         _______ _______ _______ _____ _____    ______ ____
ROOT
ATOM      1  C   UNL     1       2.483   7.813  18.568  0.00  0.00    +0.000 A 
ATOM      2  C   UNL     1       3.323   7.617  17.536  0.00  0.00    +0.000 A 
ATOM      3  C   UNL     1       4.091   6.397  17.402  0.00  0.00    +0.000 A 
ATOM      4  C   UNL     1       4.960   6.205  16.326  0.00  0.00    +0.000 A 
ATOM      5  C   UNL     1       5.667   5.009  16.217  0.00  0.00    +0.000 A 
ATOM      6 CL   UNL     1       6.735   4.776  14.888  0.00  0.00    +0.000 Cl
ATOM      7  C   UNL     1       5.510   4.002  17.169  0.00  0.00    +0.000 A 
ATOM      8  C   UNL     1       4.642   4.198  18.247  0.00  0.00    +0.000 A 
ATOM      9 BR   UNL     1       4.447   2.811  19.519  0.00  0.00    +0.000 Br
ATOM     10  C   UNL     1       3.940   5.399  18.360  0.00  0.00    +0.000 A 
ATOM     11  O   UNL     1       3.070   5.610  19.452  0.00  0.00    +0.000 OA
ATOM     12  C   UNL     1       2.341   6.789  19.618  0.00  0.00    +0.000 A 
ATOM     13  O   UNL     1       1.614   6.963  20.593  0.00  0.00    +0.000 OA
ENDROOT
BRANCH   1  15
ATOM     14  N   UNL     1       0.944   9.396  19.634  0.00  0.00    +0.000 N 
ATOM     15  C   UNL     1       1.736   9.110  18.542  0.00  0.00    +0.000 C 
ATOM     16  O   UNL     1       1.871   9.833  17.556  0.00  0.00    +0.000 OA
ATOM     17  H   UNL     1       0.923   8.721  20.398  0.00  0.00    +0.000 HD
BRANCH  14  24
ATOM     18  C   UNL     1       0.572  13.967  21.494  0.00  0.00    +0.000 C 
ATOM     19  C   UNL     1      -0.024  12.826  20.723  0.00  0.00    +0.000 A 
ATOM     20  C   UNL     1      -1.316  12.938  20.190  0.00  0.00    +0.000 A 
ATOM     21  C   UNL     1      -1.875  11.881  19.473  0.00  0.00    +0.000 A 
ATOM     22  C   UNL     1      -3.253  11.959  18.884  0.00  0.00    +0.000 C 
ATOM     23  C   UNL     1      -1.130  10.710  19.292  0.00  0.00    +0.000 A 
ATOM     24  C   UNL     1       0.162  10.570  19.807  0.00  0.00    +0.000 A 
ATOM     25  C   UNL     1       0.707  11.637  20.531  0.00  0.00    +0.000 A 
ENDBRANCH  14  24
ENDBRANCH   1  15
TORSDOF 2
ENDMDL
MODEL 3
REMARK VINA RESULT:      -7.8      4.141      8.693
REMARK  Name = 
REMARK  4 active torsions:
REMARK  status: ('A' for Active; 'I' for Inactive)
REMARK    1  A    between atoms: C_1  and  C_2
REMARK    2  A    between atoms: C_4  and  C_5
REMARK    3  A    between atoms: C_7  and  N_8
REMARK    4  A    between atoms: C_9  and  C_11
REMARK                            x       y       z     vdW  Elec       q    Type
REMARK                         _______ _______ _______ _____ _____    ______ ____
ROOT
ATOM      1  C   UNL     1       1.480   8.905  19.454  0.00  0.00    +0.000 A 
ATOM      2  C   UNL     1       0.738   9.111  20.557  0.00  0.00    +0.000 A 
ATOM      3  C   UNL     1       0.039  10.360  20.781  0.00  0.00    +0.000 A 
ATOM      4  C   UNL     1      -0.728  10.562  21.929  0.00  0.00    +0.000 A 
ATOM      5  C   UNL     1      -1.405  11.768  22.101  0.00  0.00    +0.000 A 
ATOM      6 CL   UNL     1      -2.352  12.012  23.517  0.00  0.00    +0.000 Cl
ATOM      7  C   UNL     1      -1.326  12.771  21.136  0.00  0.00    +0.000 A 
ATOM      8  C   UNL     1      -0.554  12.568  19.988  0.00  0.00    +0.000 A 
ATOM      9 BR   UNL     1      -0.470  13.945  18.694  0.00  0.00    +0.000 Br
ATOM     10  C   UNL     1       0.130  11.362  19.820  0.00  0.00    +0.000 A 
ATOM     11  O   UNL     1       0.921  11.152  18.669  0.00  0.00    +0.000 OA
ATOM     12  C   UNL     1       1.627   9.968  18.445  0.00  0.00    +0.000 A 
ATOM     13  O   UNL     1       2.334   9.820  17.452  0.00  0.00    +0.000 OA
ENDROOT
BRANCH   1  15
ATOM     14  N   UNL     1       2.514   7.140  18.102  0.00  0.00    +0.000 N 
ATOM     15  C   UNL     1       2.106   7.549  19.355  0.00  0.00    +0.000 C 
ATOM     16  O   UNL     1       2.217   6.888  20.386  0.00  0.00    +0.000 OA
ATOM     17  H   UNL     1       2.380   7.784  17.323  0.00  0.00    +0.000 HD
BRANCH  14  24
ATOM     18  C   UNL     1       6.551   4.710  16.589  0.00  0.00    +0.000 C 
ATOM     19  C   UNL     1       5.122   4.696  17.049  0.00  0.00    +0.000 A 
ATOM     20  C   UNL     1       4.437   3.480  17.174  0.00  0.00    +0.000 A 
ATOM     21  C   UNL     1       3.110   3.460  17.601  0.00  0.00    +0.000 A 
ATOM     22  C   UNL     1       2.340   2.181  17.750  0.00  0.00    +0.000 C 
ATOM     23  C   UNL     1       2.474   4.670  17.905  0.00  0.00    +0.000 A 
ATOM     24  C   UNL     1       3.132   5.899  17.795  0.00  0.00    +0.000 A 
ATOM     25  C   UNL     1       4.462   5.902  17.357  0.00  0.00    +0.000 A 
ENDBRANCH  14  24
ENDBRANCH   1  15
TORSDOF 2
ENDMDL
MODEL 4
REMARK VINA RESULT:      -7.8      4.151      8.579
REMARK  Name = 
REMARK  4 active torsions:
REMARK  status: ('A' for Active; 'I' for Inactive)
REMARK    1  A    between atoms: C_1  and  C_2
REMARK    2  A    between atoms: C_4  and  C_5
REMARK    3  A    between atoms: C_7  and  N_8
REMARK    4  A    between atoms: C_9  and  C_11
REMARK                            x       y       z     vdW  Elec       q    Type
REMARK                         _______ _______ _______ _____ _____    ______ ____
ROOT
ATOM      1  C   UNL     1       1.473   8.921  19.459  0.00  0.00    +0.000 A 
ATOM      2  C   UNL     1       0.722   9.132  20.555  0.00  0.00    +0.000 A 
ATOM      3  C   UNL     1       0.035  10.388  20.776  0.00  0.00    +0.000 A 
ATOM      4  C   UNL     1      -0.741  10.595  21.918  0.00  0.00    +0.000 A 
ATOM      5  C   UNL     1      -1.407  11.808  22.087  0.00  0.00    +0.000 A 
ATOM      6 CL   UNL     1      -2.365  12.059  23.494  0.00  0.00    +0.000 Cl
ATOM      7  C   UNL     1      -1.307  12.813  21.124  0.00  0.00    +0.000 A 
ATOM      8  C   UNL     1      -0.526  12.604  19.984  0.00  0.00    +0.000 A 
ATOM      9 BR   UNL     1      -0.415  13.984  18.694  0.00  0.00    +0.000 Br
ATOM     10  C   UNL     1       0.146  11.392  19.819  0.00  0.00    +0.000 A 
ATOM     11  O   UNL     1       0.946  11.177  18.675  0.00  0.00    +0.000 OA
ATOM     12  C   UNL     1       1.641   9.986  18.455  0.00  0.00    +0.000 A 
ATOM     13  O   UNL     1       2.356   9.833  17.468  0.00  0.00    +0.000 OA
ENDROOT
BRANCH   1  15
ATOM     14  N   UNL     1       2.448   7.126  18.104  0.00  0.00    +0.000 N 
ATOM     15  C   UNL     1       2.086   7.559  19.363  0.00  0.00    +0.000 C 
ATOM     16  O   UNL     1       2.226   6.914  20.401  0.00  0.00    +0.000 OA
ATOM     17  H   UNL     1       2.293   7.758  17.319  0.00  0.00    +0.000 HD
BRANCH  14  24
ATOM     18  C   UNL     1       2.073   2.192  18.019  0.00  0.00    +0.000 C 
ATOM     19  C   UNL     1       2.864   3.439  17.754  0.00  0.00    +0.000 A 
ATOM     20  C   UNL     1       4.153   3.351  17.211  0.00  0.00    +0.000 A 
ATOM     21  C   UNL     1       4.893   4.506  16.962  0.00  0.00    +0.000 A 
ATOM     22  C   UNL     1       6.276   4.457  16.381  0.00  0.00    +0.000 C 
ATOM     23  C   UNL     1       4.331   5.752  17.260  0.00  0.00    +0.000 A 
ATOM     24  C   UNL     1       3.046   5.874  17.798  0.00  0.00    +0.000 A 
ATOM     25  C   UNL     1       2.319   4.705  18.048  0.00  0.00    +0.000 A 
ENDBRANCH  14  24
ENDBRANCH   1  15
TORSDOF 2
ENDMDL
MODEL 5
REMARK VINA RESULT:      -7.7      1.343      1.485
REMARK  Name = 
REMARK  4 active torsions:
REMARK  status: ('A' for Active; 'I' for Inactive)
REMARK    1  A    between atoms: C_1  and  C_2
REMARK    2  A    between atoms: C_4  and  C_5
REMARK    3  A    between atoms: C_7  and  N_8
REMARK    4  A    between atoms: C_9  and  C_11
REMARK                            x       y       z     vdW  Elec       q    Type
REMARK                         _______ _______ _______ _____ _____    ______ ____
ROOT
ATOM      1  C   UNL     1       2.422   7.016  19.013  0.00  0.00    +0.000 A 
ATOM      2  C   UNL     1       3.296   7.091  17.993  0.00  0.00    +0.000 A 
ATOM      3  C   UNL     1       3.948   5.912  17.463  0.00  0.00    +0.000 A 
ATOM      4  C   UNL     1       4.854   6.002  16.404  0.00  0.00    +0.000 A 
ATOM      5  C   UNL     1       5.446   4.844  15.904  0.00  0.00    +0.000 A 
ATOM      6 CL   UNL     1       6.560   4.959  14.597  0.00  0.00    +0.000 Cl
ATOM      7  C   UNL     1       5.139   3.597  16.449  0.00  0.00    +0.000 A 
ATOM      8  C   UNL     1       4.235   3.510  17.511  0.00  0.00    +0.000 A 
ATOM      9 BR   UNL     1       3.835   1.804  18.225  0.00  0.00    +0.000 Br
ATOM     10  C   UNL     1       3.647   4.671  18.016  0.00  0.00    +0.000 A 
ATOM     11  O   UNL     1       2.742   4.593  19.097  0.00  0.00    +0.000 OA
ATOM     12  C   UNL     1       2.122   5.719  19.644  0.00  0.00    +0.000 A 
ATOM     13  O   UNL     1       1.362   5.630  20.604  0.00  0.00    +0.000 OA
ENDROOT
BRANCH   1  15
ATOM     14  N   UNL     1       1.406   9.163  18.404  0.00  0.00    +0.000 N 
ATOM     15  C   UNL     1       1.807   8.319  19.419  0.00  0.00    +0.000 C 
ATOM     16  O   UNL     1       1.700   8.557  20.621  0.00  0.00    +0.000 OA
ATOM     17  H   UNL     1       1.537   8.848  17.442  0.00  0.00    +0.000 HD
BRANCH  14  24
ATOM     18  C   UNL     1      -2.745  11.821  18.839  0.00  0.00    +0.000 C 
ATOM     19  C   UNL     1      -1.247  11.751  18.790  0.00  0.00    +0.000 A 
ATOM     20  C   UNL     1      -0.485  12.920  18.919  0.00  0.00    +0.000 A 
ATOM     21  C   UNL     1       0.907  12.861  18.875  0.00  0.00    +0.000 A 
ATOM     22  C   UNL     1       1.761  14.087  19.010  0.00  0.00    +0.000 C 
ATOM     23  C   UNL     1       1.532  11.620  18.701  0.00  0.00    +0.000 A 
ATOM     24  C   UNL     1       0.800  10.436  18.574  0.00  0.00    +0.000 A 
ATOM     25  C   UNL     1      -0.597  10.513  18.614  0.00  0.00    +0.000 A 
ENDBRANCH  14  24
ENDBRANCH   1  15
TORSDOF 2
ENDMDL
MODEL 6
REMARK VINA RESULT:      -7.7      1.400      2.168
REMARK  Name = 
REMARK  4 active torsions:
REMARK  status: ('A' for Active; 'I' for Inactive)
REMARK    1  A    between atoms: C_1  and  C_2
REMARK    2  A    between atoms: C_4  and  C_5
REMARK    3  A    between atoms: C_7  and  N_8
REMARK    4  A    between atoms: C_9  and  C_11
REMARK                            x       y       z     vdW  Elec       q    Type
REMARK                         _______ _______ _______ _____ _____    ______ ____
ROOT
ATOM      1  C   UNL     1       2.414   7.020  19.053  0.00  0.00    +0.000 A 
ATOM      2  C   UNL     1       3.286   7.095  18.032  0.00  0.00    +0.000 A 
ATOM      3  C   UNL     1       3.926   5.914  17.491  0.00  0.00    +0.000 A 
ATOM      4  C   UNL     1       4.830   6.004  16.431  0.00  0.00    +0.000 A 
ATOM      5  C   UNL     1       5.410   4.844  15.920  0.00  0.00    +0.000 A 
ATOM      6 CL   UNL     1       6.522   4.959  14.612  0.00  0.00    +0.000 Cl
ATOM      7  C   UNL     1       5.092   3.596  16.455  0.00  0.00    +0.000 A 
ATOM      8  C   UNL     1       4.189   3.509  17.519  0.00  0.00    +0.000 A 
ATOM      9 BR   UNL     1       3.774   1.801  18.220  0.00  0.00    +0.000 Br
ATOM     10  C   UNL     1       3.614   4.672  18.035  0.00  0.00    +0.000 A 
ATOM     11  O   UNL     1       2.710   4.594  19.117  0.00  0.00    +0.000 OA
ATOM     12  C   UNL     1       2.103   5.721  19.674  0.00  0.00    +0.000 A 
ATOM     13  O   UNL     1       1.344   5.632  20.636  0.00  0.00    +0.000 OA
ENDROOT
BRANCH   1  15
ATOM     14  N   UNL     1       1.467   9.204  18.465  0.00  0.00    +0.000 N 
ATOM     15  C   UNL     1       1.813   8.326  19.471  0.00  0.00    +0.000 C 
ATOM     16  O   UNL     1       1.667   8.535  20.674  0.00  0.00    +0.000 OA
ATOM     17  H   UNL     1       1.626   8.911  17.501  0.00  0.00    +0.000 HD
BRANCH  14  24
ATOM     18  C   UNL     1       2.061  14.114  18.637  0.00  0.00    +0.000 C 
ATOM     19  C   UNL     1       1.172  12.909  18.732  0.00  0.00    +0.000 A 
ATOM     20  C   UNL     1      -0.198  13.066  18.986  0.00  0.00    +0.000 A 
ATOM     21  C   UNL     1      -1.029  11.951  19.076  0.00  0.00    +0.000 A 
ATOM     22  C   UNL     1      -2.500  12.073  19.345  0.00  0.00    +0.000 C 
ATOM     23  C   UNL     1      -0.478  10.675  18.907  0.00  0.00    +0.000 A 
ATOM     24  C   UNL     1       0.882  10.486  18.647  0.00  0.00    +0.000 A 
ATOM     25  C   UNL     1       1.705  11.615  18.568  0.00  0.00    +0.000 A 
ENDBRANCH  14  24
ENDBRANCH   1  15
TORSDOF 2
ENDMDL
MODEL 7
REMARK VINA RESULT:      -7.7      4.090      8.256
REMARK  Name = 
REMARK  4 active torsions:
REMARK  status: ('A' for Active; 'I' for Inactive)
REMARK    1  A    between atoms: C_1  and  C_2
REMARK    2  A    between atoms: C_4  and  C_5
REMARK    3  A    between atoms: C_7  and  N_8
REMARK    4  A    between atoms: C_9  and  C_11
REMARK                            x       y       z     vdW  Elec       q    Type
REMARK                         _______ _______ _______ _____ _____    ______ ____
ROOT
ATOM      1  C   UNL     1       1.269   9.619  19.096  0.00  0.00    +0.000 A 
ATOM      2  C   UNL     1       1.158  10.844  18.553  0.00  0.00    +0.000 A 
ATOM      3  C   UNL     1       0.505  11.930  19.254  0.00  0.00    +0.000 A 
ATOM      4  C   UNL     1       0.396  13.198  18.680  0.00  0.00    +0.000 A 
ATOM      5  C   UNL     1      -0.220  14.226  19.392  0.00  0.00    +0.000 A 
ATOM      6 CL   UNL     1      -0.350  15.788  18.682  0.00  0.00    +0.000 Cl
ATOM      7  C   UNL     1      -0.724  13.999  20.673  0.00  0.00    +0.000 A 
ATOM      8  C   UNL     1      -0.617  12.728  21.244  0.00  0.00    +0.000 A 
ATOM      9 BR   UNL     1      -1.305  12.454  22.985  0.00  0.00    +0.000 Br
ATOM     10  C   UNL     1      -0.006  11.697  20.527  0.00  0.00    +0.000 A 
ATOM     11  O   UNL     1       0.096  10.407  21.092  0.00  0.00    +0.000 OA
ATOM     12  C   UNL     1       0.696   9.337  20.424  0.00  0.00    +0.000 A 
ATOM     13  O   UNL     1       0.745   8.216  20.922  0.00  0.00    +0.000 OA
ENDROOT
BRANCH   1  15
ATOM     14  N   UNL     1       2.377   7.443  18.879  0.00  0.00    +0.000 N 
ATOM     15  C   UNL     1       2.004   8.618  18.260  0.00  0.00    +0.000 C 
ATOM     16  O   UNL     1       2.230   8.903  17.085  0.00  0.00    +0.000 OA
ATOM     17  H   UNL     1       2.121   7.316  19.857  0.00  0.00    +0.000 HD
BRANCH  14  24
ATOM     18  C   UNL     1       2.426   2.679  17.540  0.00  0.00    +0.000 C 
ATOM     19  C   UNL     1       3.101   4.017  17.602  0.00  0.00    +0.000 A 
ATOM     20  C   UNL     1       4.381   4.184  17.056  0.00  0.00    +0.000 A 
ATOM     21  C   UNL     1       5.014   5.425  17.111  0.00  0.00    +0.000 A 
ATOM     22  C   UNL     1       6.383   5.647  16.538  0.00  0.00    +0.000 C 
ATOM     23  C   UNL     1       4.353   6.500  17.716  0.00  0.00    +0.000 A 
ATOM     24  C   UNL     1       3.074   6.368  18.265  0.00  0.00    +0.000 A 
ATOM     25  C   UNL     1       2.456   5.113  18.209  0.00  0.00    +0.000 A 
ENDBRANCH  14  24
ENDBRANCH   1  15
TORSDOF 2
ENDMDL
MODEL 8
REMARK VINA RESULT:      -7.6      1.044      1.203
REMARK  Name = 
REMARK  4 active torsions:
REMARK  status: ('A' for Active; 'I' for Inactive)
REMARK    1  A    between atoms: C_1  and  C_2
REMARK    2  A    between atoms: C_4  and  C_5
REMARK    3  A    between atoms: C_7  and  N_8
REMARK    4  A    between atoms: C_9  and  C_11
REMARK                            x       y       z     vdW  Elec       q    Type
REMARK                         _______ _______ _______ _____ _____    ______ ____
ROOT
ATOM      1  C   UNL     1       2.326   7.843  18.730  0.00  0.00    +0.000 A 
ATOM      2  C   UNL     1       3.120   7.399  17.739  0.00  0.00    +0.000 A 
ATOM      3  C   UNL     1       3.704   6.074  17.768  0.00  0.00    +0.000 A 
ATOM      4  C   UNL     1       4.527   5.624  16.734  0.00  0.00    +0.000 A 
ATOM      5  C   UNL     1       5.054   4.335  16.784  0.00  0.00    +0.000 A 
ATOM      6 CL   UNL     1       6.065   3.784  15.506  0.00  0.00    +0.000 Cl
ATOM      7  C   UNL     1       4.764   3.491  17.856  0.00  0.00    +0.000 A 
ATOM      8  C   UNL     1       3.943   3.944  18.892  0.00  0.00    +0.000 A 
ATOM      9 BR   UNL     1       3.563   2.774  20.329  0.00  0.00    +0.000 Br
ATOM     10  C   UNL     1       3.421   5.238  18.844  0.00  0.00    +0.000 A 
ATOM     11  O   UNL     1       2.600   5.709  19.893  0.00  0.00    +0.000 OA
ATOM     12  C   UNL     1       2.049   6.992  19.901  0.00  0.00    +0.000 A 
ATOM     13  O   UNL     1       1.363   7.391  20.838  0.00  0.00    +0.000 OA
ENDROOT
BRANCH   1  15
ATOM     14  N   UNL     1       1.081   9.772  19.590  0.00  0.00    +0.000 N 
ATOM     15  C   UNL     1       1.772   9.219  18.531  0.00  0.00    +0.000 C 
ATOM     16  O   UNL     1       1.963   9.767  17.447  0.00  0.00    +0.000 OA
ATOM     17  H   UNL     1       1.000   9.224  20.445  0.00  0.00    +0.000 HD
BRANCH  14  24
ATOM     18  C   UNL     1      -3.037  12.498  19.895  0.00  0.00    +0.000 C 
ATOM     19  C   UNL     1      -1.546  12.410  19.759  0.00  0.00    +0.000 A 
ATOM     20  C   UNL     1      -0.779  13.579  19.662  0.00  0.00    +0.000 A 
ATOM     21  C   UNL     1       0.607  13.503  19.535  0.00  0.00    +0.000 A 
ATOM     22  C   UNL     1       1.465  14.729  19.429  0.00  0.00    +0.000 C 
ATOM     23  C   UNL     1       1.221  12.246  19.508  0.00  0.00    +0.000 A 
ATOM     24  C   UNL     1       0.485  11.061  19.608  0.00  0.00    +0.000 A 
ATOM     25  C   UNL     1      -0.907  11.154  19.727  0.00  0.00    +0.000 A 
ENDBRANCH  14  24
ENDBRANCH   1  15
TORSDOF 2
ENDMDL
MODEL 9
REMARK VINA RESULT:      -7.6      4.086      8.371
REMARK  Name = 
REMARK  4 active torsions:
REMARK  status: ('A' for Active; 'I' for Inactive)
REMARK    1  A    between atoms: C_1  and  C_2
REMARK    2  A    between atoms: C_4  and  C_5
REMARK    3  A    between atoms: C_7  and  N_8
REMARK    4  A    between atoms: C_9  and  C_11
REMARK                            x       y       z     vdW  Elec       q    Type
REMARK                         _______ _______ _______ _____ _____    ______ ____
ROOT
ATOM      1  C   UNL     1       1.247   9.603  19.097  0.00  0.00    +0.000 A 
ATOM      2  C   UNL     1       1.144  10.822  18.540  0.00  0.00    +0.000 A 
ATOM      3  C   UNL     1       0.503  11.923  19.229  0.00  0.00    +0.000 A 
ATOM      4  C   UNL     1       0.402  13.184  18.640  0.00  0.00    +0.000 A 
ATOM      5  C   UNL     1      -0.201  14.226  19.342  0.00  0.00    +0.000 A 
ATOM      6 CL   UNL     1      -0.321  15.780  18.614  0.00  0.00    +0.000 Cl
ATOM      7  C   UNL     1      -0.701  14.020  20.628  0.00  0.00    +0.000 A 
ATOM      8  C   UNL     1      -0.603  12.755  21.215  0.00  0.00    +0.000 A 
ATOM      9 BR   UNL     1      -1.285  12.508  22.962  0.00  0.00    +0.000 Br
ATOM     10  C   UNL     1      -0.004  11.710  20.508  0.00  0.00    +0.000 A 
ATOM     11  O   UNL     1       0.090  10.426  21.088  0.00  0.00    +0.000 OA
ATOM     12  C   UNL     1       0.677   9.343  20.431  0.00  0.00    +0.000 A 
ATOM     13  O   UNL     1       0.720   8.227  20.943  0.00  0.00    +0.000 OA
ENDROOT
BRANCH   1  15
ATOM     14  N   UNL     1       2.308   7.402  18.893  0.00  0.00    +0.000 N 
ATOM     15  C   UNL     1       1.970   8.586  18.270  0.00  0.00    +0.000 C 
ATOM     16  O   UNL     1       2.217   8.865  17.098  0.00  0.00    +0.000 OA
ATOM     17  H   UNL     1       2.036   7.281  19.868  0.00  0.00    +0.000 HD
BRANCH  14  24
ATOM     18  C   UNL     1       6.355   5.720  16.596  0.00  0.00    +0.000 C 
ATOM     19  C   UNL     1       4.984   5.478  17.154  0.00  0.00    +0.000 A 
ATOM     20  C   UNL     1       4.411   4.201  17.079  0.00  0.00    +0.000 A 
ATOM     21  C   UNL     1       3.137   3.970  17.596  0.00  0.00    +0.000 A 
ATOM     22  C   UNL     1       2.486   2.619  17.537  0.00  0.00    +0.000 C 
ATOM     23  C   UNL     1       2.441   5.028  18.192  0.00  0.00    +0.000 A 
ATOM     24  C   UNL     1       2.988   6.312  18.288  0.00  0.00    +0.000 A 
ATOM     25  C   UNL     1       4.265   6.529  17.757  0.00  0.00    +0.000 A 
ENDBRANCH  14  24
ENDBRANCH   1  15
TORSDOF 2
ENDMDL
