MODEL 1
REMARK VINA RESULT:      -8.1      0.000      0.000
REMARK  Name = 
REMARK  0 active torsions:
REMARK  status: ('A' for Active; 'I' for Inactive)
REMARK                            x       y       z     vdW  Elec       q    Type
REMARK                         _______ _______ _______ _____ _____    ______ ____
ROOT
ATOM      1  O   UNL     1       7.259   6.231  18.531  0.00  0.00    +0.000 OA
ATOM      2  S   UNL     1       7.227   4.906  17.968  0.00  0.00    +0.000 S 
ATOM      3  O   UNL     1       8.444   4.111  17.931  0.00  0.00    +0.000 OA
ATOM      4  N   UNL     1       6.133   3.953  18.839  0.00  0.00    +0.000 NA
ATOM      5  C   UNL     1       4.789   4.360  19.303  0.00  0.00    +0.000 C 
ATOM      6  C   UNL     1       3.834   5.011  18.260  0.00  0.00    +0.000 C 
ATOM      7  C   UNL     1       2.437   5.304  18.911  0.00  0.00    +0.000 C 
ATOM      8  C   UNL     1       1.482   4.124  19.098  0.00  0.00    +0.000 C 
ATOM      9  N   UNL     1       1.367   3.252  17.938  0.00  0.00    +0.000 NA
ATOM     10  C   UNL     1       2.666   2.845  17.432  0.00  0.00    +0.000 C 
ATOM     11  C   UNL     1       3.550   4.042  17.084  0.00  0.00    +0.000 C 
ATOM     12  C   UNL     1       4.402   6.449  17.937  0.00  0.00    +0.000 C 
ATOM     13  O   UNL     1       5.016   6.797  16.701  0.00  0.00    +0.000 OA
ATOM     14  C   UNL     1       5.595   5.838  15.942  0.00  0.00    +0.000 A 
ATOM     15  C   UNL     1       5.076   5.788  14.637  0.00  0.00    +0.000 A 
ATOM     16  C   UNL     1       5.401   4.737  13.785  0.00  0.00    +0.000 A 
ATOM     17  C   UNL     1       6.305   3.767  14.209  0.00  0.00    +0.000 A 
ATOM     18  C   UNL     1       6.903   3.868  15.470  0.00  0.00    +0.000 A 
ATOM     19  C   UNL     1       6.541   4.904  16.348  0.00  0.00    +0.000 A 
ATOM     20  H   UNL     1       6.656   3.343  19.463  0.00  0.00    +0.000 HD
ATOM     21  H   UNL     1       0.841   3.715  17.196  0.00  0.00    +0.000 HD
ENDROOT
TORSDOF 0
ENDMDL
MODEL 2
REMARK VINA RESULT:      -6.9      2.929      5.191
REMARK  Name = 
REMARK  0 active torsions:
REMARK  status: ('A' for Active; 'I' for Inactive)
REMARK                            x       y       z     vdW  Elec       q    Type
REMARK                         _______ _______ _______ _____ _____    ______ ____
ROOT
ATOM      1  O   UNL     1       4.871   0.920  18.992  0.00  0.00    +0.000 OA
ATOM      2  S   UNL     1       4.638   1.915  20.006  0.00  0.00    +0.000 S 
ATOM      3  O   UNL     1       4.987   1.629  21.388  0.00  0.00    +0.000 OA
ATOM      4  N   UNL     1       5.519   3.312  19.634  0.00  0.00    +0.000 NA
ATOM      5  C   UNL     1       5.650   3.938  18.301  0.00  0.00    +0.000 C 
ATOM      6  C   UNL     1       4.343   4.203  17.499  0.00  0.00    +0.000 C 
ATOM      7  C   UNL     1       4.671   4.938  16.152  0.00  0.00    +0.000 C 
ATOM      8  C   UNL     1       4.973   6.436  16.218  0.00  0.00    +0.000 C 
ATOM      9  N   UNL     1       4.047   7.201  17.042  0.00  0.00    +0.000 NA
ATOM     10  C   UNL     1       3.869   6.608  18.355  0.00  0.00    +0.000 C 
ATOM     11  C   UNL     1       3.398   5.157  18.273  0.00  0.00    +0.000 C 
ATOM     12  C   UNL     1       3.787   2.801  17.030  0.00  0.00    +0.000 C 
ATOM     13  O   UNL     1       2.621   2.192  17.572  0.00  0.00    +0.000 OA
ATOM     14  C   UNL     1       2.213   2.510  18.822  0.00  0.00    +0.000 A 
ATOM     15  C   UNL     1       0.889   2.982  18.861  0.00  0.00    +0.000 A 
ATOM     16  C   UNL     1       0.372   3.548  20.022  0.00  0.00    +0.000 A 
ATOM     17  C   UNL     1       1.153   3.581  21.173  0.00  0.00    +0.000 A 
ATOM     18  C   UNL     1       2.435   3.020  21.169  0.00  0.00    +0.000 A 
ATOM     19  C   UNL     1       2.975   2.488  19.984  0.00  0.00    +0.000 A 
ATOM     20  H   UNL     1       6.345   3.344  20.227  0.00  0.00    +0.000 HD
ATOM     21  H   UNL     1       3.143   7.282  16.577  0.00  0.00    +0.000 HD
ENDROOT
TORSDOF 0
ENDMDL
MODEL 3
REMARK VINA RESULT:      -6.7      2.977      5.373
REMARK  Name = 
REMARK  0 active torsions:
REMARK  status: ('A' for Active; 'I' for Inactive)
REMARK                            x       y       z     vdW  Elec       q    Type
REMARK                         _______ _______ _______ _____ _____    ______ ____
ROOT
ATOM      1  O   UNL     1       1.802   2.383  18.539  0.00  0.00    +0.000 OA
ATOM      2  S   UNL     1       2.224   3.056  19.740  0.00  0.00    +0.000 S 
ATOM      3  O   UNL     1       1.633   2.688  21.016  0.00  0.00    +0.000 OA
ATOM      4  N   UNL     1       3.884   2.815  19.964  0.00  0.00    +0.000 NA
ATOM      5  C   UNL     1       4.930   2.890  18.922  0.00  0.00    +0.000 C 
ATOM      6  C   UNL     1       4.946   4.149  18.006  0.00  0.00    +0.000 C 
ATOM      7  C   UNL     1       6.165   4.089  17.020  0.00  0.00    +0.000 C 
ATOM      8  C   UNL     1       7.546   4.438  17.578  0.00  0.00    +0.000 C 
ATOM      9  N   UNL     1       7.575   5.636  18.404  0.00  0.00    +0.000 NA
ATOM     10  C   UNL     1       6.547   5.617  19.429  0.00  0.00    +0.000 C 
ATOM     11  C   UNL     1       5.148   5.441  18.839  0.00  0.00    +0.000 C 
ATOM     12  C   UNL     1       3.691   4.051  17.052  0.00  0.00    +0.000 C 
ATOM     13  O   UNL     1       2.544   4.886  17.167  0.00  0.00    +0.000 OA
ATOM     14  C   UNL     1       2.236   5.449  18.357  0.00  0.00    +0.000 A 
ATOM     15  C   UNL     1       2.136   6.850  18.288  0.00  0.00    +0.000 A 
ATOM     16  C   UNL     1       2.031   7.611  19.448  0.00  0.00    +0.000 A 
ATOM     17  C   UNL     1       1.956   6.971  20.682  0.00  0.00    +0.000 A 
ATOM     18  C   UNL     1       1.952   5.573  20.749  0.00  0.00    +0.000 A 
ATOM     19  C   UNL     1       2.103   4.805  19.581  0.00  0.00    +0.000 A 
ATOM     20  H   UNL     1       4.017   2.107  20.682  0.00  0.00    +0.000 HD
ATOM     21  H   UNL     1       7.467   6.469  17.826  0.00  0.00    +0.000 HD
ENDROOT
TORSDOF 0
ENDMDL
MODEL 4
REMARK VINA RESULT:      -6.6      2.408      4.845
REMARK  Name = 
REMARK  0 active torsions:
REMARK  status: ('A' for Active; 'I' for Inactive)
REMARK                            x       y       z     vdW  Elec       q    Type
REMARK                         _______ _______ _______ _____ _____    ______ ____
ROOT
ATOM      1  O   UNL     1       4.322   6.507  19.739  0.00  0.00    +0.000 OA
ATOM      2  S   UNL     1       3.331   6.114  18.771  0.00  0.00    +0.000 S 
ATOM      3  O   UNL     1       1.992   6.674  18.845  0.00  0.00    +0.000 OA
ATOM      4  N   UNL     1       3.870   6.524  17.219  0.00  0.00    +0.000 NA
ATOM      5  C   UNL     1       5.234   6.332  16.684  0.00  0.00    +0.000 C 
ATOM      6  C   UNL     1       5.880   4.925  16.848  0.00  0.00    +0.000 C 
ATOM      7  C   UNL     1       7.287   4.890  16.155  0.00  0.00    +0.000 C 
ATOM      8  C   UNL     1       7.324   4.765  14.631  0.00  0.00    +0.000 C 
ATOM      9  N   UNL     1       6.427   3.755  14.088  0.00  0.00    +0.000 NA
ATOM     10  C   UNL     1       5.077   3.891  14.605  0.00  0.00    +0.000 C 
ATOM     11  C   UNL     1       5.037   3.839  16.132  0.00  0.00    +0.000 C 
ATOM     12  C   UNL     1       6.215   4.737  18.380  0.00  0.00    +0.000 C 
ATOM     13  O   UNL     1       5.507   3.853  19.241  0.00  0.00    +0.000 OA
ATOM     14  C   UNL     1       4.231   3.508  18.952  0.00  0.00    +0.000 A 
ATOM     15  C   UNL     1       4.051   2.116  18.857  0.00  0.00    +0.000 A 
ATOM     16  C   UNL     1       2.860   1.589  18.367  0.00  0.00    +0.000 A 
ATOM     17  C   UNL     1       1.816   2.447  18.035  0.00  0.00    +0.000 A 
ATOM     18  C   UNL     1       1.955   3.827  18.225  0.00  0.00    +0.000 A 
ATOM     19  C   UNL     1       3.173   4.364  18.677  0.00  0.00    +0.000 A 
ATOM     20  H   UNL     1       3.385   7.367  16.918  0.00  0.00    +0.000 HD
ATOM     21  H   UNL     1       6.779   2.820  14.292  0.00  0.00    +0.000 HD
ENDROOT
TORSDOF 0
ENDMDL
MODEL 5
REMARK VINA RESULT:      -6.6      2.895      5.318
REMARK  Name = 
REMARK  0 active torsions:
REMARK  status: ('A' for Active; 'I' for Inactive)
REMARK                            x       y       z     vdW  Elec       q    Type
REMARK                         _______ _______ _______ _____ _____    ______ ____
ROOT
ATOM      1  O   UNL     1       2.233   3.632  16.395  0.00  0.00    +0.000 OA
ATOM      2  S   UNL     1       2.865   2.916  17.473  0.00  0.00    +0.000 S 
ATOM      3  O   UNL     1       2.596   1.498  17.649  0.00  0.00    +0.000 OA
ATOM      4  N   UNL     1       4.547   3.002  17.293  0.00  0.00    +0.000 NA
ATOM      5  C   UNL     1       5.330   4.201  16.926  0.00  0.00    +0.000 C 
ATOM      6  C   UNL     1       5.061   5.509  17.726  0.00  0.00    +0.000 C 
ATOM      7  C   UNL     1       6.033   6.646  17.252  0.00  0.00    +0.000 C 
ATOM      8  C   UNL     1       7.477   6.597  17.753  0.00  0.00    +0.000 C 
ATOM      9  N   UNL     1       7.611   6.329  19.178  0.00  0.00    +0.000 NA
ATOM     10  C   UNL     1       6.838   5.171  19.589  0.00  0.00    +0.000 C 
ATOM     11  C   UNL     1       5.358   5.311  19.234  0.00  0.00    +0.000 C 
ATOM     12  C   UNL     1       3.635   6.037  17.297  0.00  0.00    +0.000 C 
ATOM     13  O   UNL     1       2.490   5.995  18.141  0.00  0.00    +0.000 OA
ATOM     14  C   UNL     1       2.417   5.079  19.134  0.00  0.00    +0.000 A 
ATOM     15  C   UNL     1       2.213   5.659  20.398  0.00  0.00    +0.000 A 
ATOM     16  C   UNL     1       2.318   4.892  21.554  0.00  0.00    +0.000 A 
ATOM     17  C   UNL     1       2.558   3.526  21.450  0.00  0.00    +0.000 A 
ATOM     18  C   UNL     1       2.661   2.925  20.190  0.00  0.00    +0.000 A 
ATOM     19  C   UNL     1       2.600   3.706  19.022  0.00  0.00    +0.000 A 
ATOM     20  H   UNL     1       4.880   2.117  16.918  0.00  0.00    +0.000 HD
ATOM     21  H   UNL     1       7.324   7.143  19.721  0.00  0.00    +0.000 HD
ENDROOT
TORSDOF 0
ENDMDL
MODEL 6
REMARK VINA RESULT:      -6.5      2.450      3.627
REMARK  Name = 
REMARK  0 active torsions:
REMARK  status: ('A' for Active; 'I' for Inactive)
REMARK                            x       y       z     vdW  Elec       q    Type
REMARK                         _______ _______ _______ _____ _____    ______ ____
ROOT
ATOM      1  O   UNL     1       5.398   2.757  16.399  0.00  0.00    +0.000 OA
ATOM      2  S   UNL     1       5.261   4.148  16.050  0.00  0.00    +0.000 S 
ATOM      3  O   UNL     1       5.456   4.566  14.671  0.00  0.00    +0.000 OA
ATOM      4  N   UNL     1       3.695   4.669  16.426  0.00  0.00    +0.000 NA
ATOM      5  C   UNL     1       2.939   4.357  17.658  0.00  0.00    +0.000 C 
ATOM      6  C   UNL     1       3.653   4.593  19.021  0.00  0.00    +0.000 C 
ATOM      7  C   UNL     1       2.675   4.284  20.208  0.00  0.00    +0.000 C 
ATOM      8  C   UNL     1       1.615   5.334  20.545  0.00  0.00    +0.000 C 
ATOM      9  N   UNL     1       2.117   6.700  20.597  0.00  0.00    +0.000 NA
ATOM     10  C   UNL     1       2.888   7.043  19.416  0.00  0.00    +0.000 C 
ATOM     11  C   UNL     1       4.054   6.081  19.189  0.00  0.00    +0.000 C 
ATOM     12  C   UNL     1       4.771   3.486  19.162  0.00  0.00    +0.000 C 
ATOM     13  O   UNL     1       6.165   3.755  19.066  0.00  0.00    +0.000 OA
ATOM     14  C   UNL     1       6.599   4.830  18.370  0.00  0.00    +0.000 A 
ATOM     15  C   UNL     1       7.402   5.691  19.139  0.00  0.00    +0.000 A 
ATOM     16  C   UNL     1       7.764   6.944  18.654  0.00  0.00    +0.000 A 
ATOM     17  C   UNL     1       7.384   7.316  17.368  0.00  0.00    +0.000 A 
ATOM     18  C   UNL     1       6.672   6.423  16.560  0.00  0.00    +0.000 A 
ATOM     19  C   UNL     1       6.266   5.174  17.065  0.00  0.00    +0.000 A 
ATOM     20  H   UNL     1       3.152   4.717  15.567  0.00  0.00    +0.000 HD
ATOM     21  H   UNL     1       2.689   6.837  21.430  0.00  0.00    +0.000 HD
ENDROOT
TORSDOF 0
ENDMDL
MODEL 7
REMARK VINA RESULT:      -6.4      3.258      5.090
REMARK  Name = 
REMARK  0 active torsions:
REMARK  status: ('A' for Active; 'I' for Inactive)
REMARK                            x       y       z     vdW  Elec       q    Type
REMARK                         _______ _______ _______ _____ _____    ______ ____
ROOT
ATOM      1  O   UNL     1       4.530   3.759  17.336  0.00  0.00    +0.000 OA
ATOM      2  S   UNL     1       4.669   3.940  18.759  0.00  0.00    +0.000 S 
ATOM      3  O   UNL     1       5.796   3.339  19.453  0.00  0.00    +0.000 OA
ATOM      4  N   UNL     1       4.798   5.592  19.104  0.00  0.00    +0.000 NA
ATOM      5  C   UNL     1       3.989   6.678  18.511  0.00  0.00    +0.000 C 
ATOM      6  C   UNL     1       2.442   6.507  18.511  0.00  0.00    +0.000 C 
ATOM      7  C   UNL     1       1.754   7.785  17.917  0.00  0.00    +0.000 C 
ATOM      8  C   UNL     1       1.650   9.018  18.817  0.00  0.00    +0.000 C 
ATOM      9  N   UNL     1       1.195   8.737  20.171  0.00  0.00    +0.000 NA
ATOM     10  C   UNL     1       1.947   7.658  20.786  0.00  0.00    +0.000 C 
ATOM     11  C   UNL     1       1.897   6.375  19.956  0.00  0.00    +0.000 C 
ATOM     12  C   UNL     1       2.095   5.377  17.464  0.00  0.00    +0.000 C 
ATOM     13  O   UNL     1       1.639   4.078  17.826  0.00  0.00    +0.000 OA
ATOM     14  C   UNL     1       1.945   3.570  19.041  0.00  0.00    +0.000 A 
ATOM     15  C   UNL     1       0.807   3.190  19.776  0.00  0.00    +0.000 A 
ATOM     16  C   UNL     1       0.915   2.842  21.118  0.00  0.00    +0.000 A 
ATOM     17  C   UNL     1       2.171   2.803  21.717  0.00  0.00    +0.000 A 
ATOM     18  C   UNL     1       3.317   3.081  20.963  0.00  0.00    +0.000 A 
ATOM     19  C   UNL     1       3.205   3.477  19.618  0.00  0.00    +0.000 A 
ATOM     20  H   UNL     1       5.774   5.810  19.291  0.00  0.00    +0.000 HD
ATOM     21  H   UNL     1       0.202   8.506  20.172  0.00  0.00    +0.000 HD
ENDROOT
TORSDOF 0
ENDMDL
MODEL 8
REMARK VINA RESULT:      -6.1      2.903      3.902
REMARK  Name = 
REMARK  0 active torsions:
REMARK  status: ('A' for Active; 'I' for Inactive)
REMARK                            x       y       z     vdW  Elec       q    Type
REMARK                         _______ _______ _______ _____ _____    ______ ____
ROOT
ATOM      1  O   UNL     1       3.029   2.538  19.130  0.00  0.00    +0.000 OA
ATOM      2  S   UNL     1       2.951   3.068  17.793  0.00  0.00    +0.000 S 
ATOM      3  O   UNL     1       2.660   2.177  16.682  0.00  0.00    +0.000 OA
ATOM      4  N   UNL     1       1.728   4.236  17.723  0.00  0.00    +0.000 NA
ATOM      5  C   UNL     1       1.463   5.290  18.725  0.00  0.00    +0.000 C 
ATOM      6  C   UNL     1       2.666   6.165  19.185  0.00  0.00    +0.000 C 
ATOM      7  C   UNL     1       2.181   7.273  20.185  0.00  0.00    +0.000 C 
ATOM      8  C   UNL     1       1.475   8.496  19.597  0.00  0.00    +0.000 C 
ATOM      9  N   UNL     1       2.132   9.068  18.430  0.00  0.00    +0.000 NA
ATOM     10  C   UNL     1       2.434   8.062  17.428  0.00  0.00    +0.000 C 
ATOM     11  C   UNL     1       3.290   6.928  17.989  0.00  0.00    +0.000 C 
ATOM     12  C   UNL     1       3.600   5.249  20.071  0.00  0.00    +0.000 C 
ATOM     13  O   UNL     1       4.875   4.779  19.649  0.00  0.00    +0.000 OA
ATOM     14  C   UNL     1       5.147   4.659  18.329  0.00  0.00    +0.000 A 
ATOM     15  C   UNL     1       6.287   5.384  17.938  0.00  0.00    +0.000 A 
ATOM     16  C   UNL     1       6.597   5.545  16.592  0.00  0.00    +0.000 A 
ATOM     17  C   UNL     1       5.808   4.922  15.629  0.00  0.00    +0.000 A 
ATOM     18  C   UNL     1       4.732   4.115  16.016  0.00  0.00    +0.000 A 
ATOM     19  C   UNL     1       4.391   3.988  17.375  0.00  0.00    +0.000 A 
ATOM     20  H   UNL     1       0.910   3.825  17.278  0.00  0.00    +0.000 HD
ATOM     21  H   UNL     1       2.990   9.546  18.704  0.00  0.00    +0.000 HD
ENDROOT
TORSDOF 0
ENDMDL
MODEL 9
REMARK VINA RESULT:      -5.6      8.561     10.783
REMARK  Name = 
REMARK  0 active torsions:
REMARK  status: ('A' for Active; 'I' for Inactive)
REMARK                            x       y       z     vdW  Elec       q    Type
REMARK                         _______ _______ _______ _____ _____    ______ ____
ROOT
ATOM      1  O   UNL     1       2.081  13.063  21.200  0.00  0.00    +0.000 OA
ATOM      2  S   UNL     1       0.852  13.805  21.081  0.00  0.00    +0.000 S 
ATOM      3  O   UNL     1       0.848  15.235  21.342  0.00  0.00    +0.000 OA
ATOM      4  N   UNL     1       0.265  13.668  19.499  0.00  0.00    +0.000 NA
ATOM      5  C   UNL     1       0.217  12.435  18.685  0.00  0.00    +0.000 C 
ATOM      6  C   UNL     1      -0.412  11.167  19.334  0.00  0.00    +0.000 C 
ATOM      7  C   UNL     1      -0.446   9.987  18.300  0.00  0.00    +0.000 C 
ATOM      8  C   UNL     1      -1.535  10.017  17.227  0.00  0.00    +0.000 C 
ATOM      9  N   UNL     1      -2.864  10.339  17.727  0.00  0.00    +0.000 NA
ATOM     10  C   UNL     1      -2.862  11.532  18.554  0.00  0.00    +0.000 C 
ATOM     11  C   UNL     1      -1.890  11.418  19.728  0.00  0.00    +0.000 C 
ATOM     12  C   UNL     1       0.593  10.660  20.443  0.00  0.00    +0.000 C 
ATOM     13  O   UNL     1       0.346  10.766  21.840  0.00  0.00    +0.000 OA
ATOM     14  C   UNL     1      -0.488  11.723  22.307  0.00  0.00    +0.000 A 
ATOM     15  C   UNL     1      -1.544  11.199  23.074  0.00  0.00    +0.000 A 
ATOM     16  C   UNL     1      -2.608  12.008  23.460  0.00  0.00    +0.000 A 
ATOM     17  C   UNL     1      -2.588  13.363  23.142  0.00  0.00    +0.000 A 
ATOM     18  C   UNL     1      -1.491  13.910  22.468  0.00  0.00    +0.000 A 
ATOM     19  C   UNL     1      -0.437  13.085  22.038  0.00  0.00    +0.000 A 
ATOM     20  H   UNL     1       0.474  14.528  18.998  0.00  0.00    +0.000 HD
ATOM     21  H   UNL     1      -3.243   9.555  18.259  0.00  0.00    +0.000 HD
ENDROOT
TORSDOF 0
ENDMDL
