MODEL 1
REMARK VINA RESULT:      -7.2      0.000      0.000
REMARK  Name = 
REMARK  6 active torsions:
REMARK  status: ('A' for Active; 'I' for Inactive)
REMARK    1  A    between atoms: N_2  and  C_4
REMARK    2  A    between atoms: C_9  and  N_10
REMARK    3  A    between atoms: N_13  and  C_14
REMARK    4  A    between atoms: C_14  and  C_15
REMARK    5  A    between atoms: C_15  and  S_16
REMARK    6  A    between atoms: S_16  and  C_17
REMARK                            x       y       z     vdW  Elec       q    Type
REMARK                         _______ _______ _______ _____ _____    ______ ____
ROOT
ATOM      1  N   UNL     1       4.295   6.176  18.186  0.00  0.00    +0.000 N 
ATOM      2  C   UNL     1       3.828   7.550  17.905  0.00  0.00    +0.000 C 
ATOM      3  C   UNL     1       2.281   7.610  17.949  0.00  0.00    +0.000 C 
ATOM      4  N   UNL     1       1.671   7.104  19.202  0.00  0.00    +0.000 NA
ATOM      5  C   UNL     1       2.191   5.730  19.429  0.00  0.00    +0.000 C 
ATOM      6  C   UNL     1       3.735   5.589  19.417  0.00  0.00    +0.000 C 
ENDROOT
BRANCH   1  12
ATOM      7  C   UNL     1       6.592   5.365  17.610  0.00  0.00    +0.000 A 
ATOM      8  C   UNL     1       7.448   4.659  16.739  0.00  0.00    +0.000 A 
ATOM      9  C   UNL     1       6.936   4.091  15.582  0.00  0.00    +0.000 A 
ATOM     10  C   UNL     1       5.586   4.220  15.303  0.00  0.00    +0.000 A 
ATOM     11  C   UNL     1       4.747   4.919  16.184  0.00  0.00    +0.000 A 
ATOM     12  C   UNL     1       5.208   5.530  17.372  0.00  0.00    +0.000 A 
BRANCH   7  14
ATOM     13  O   UNL     1       7.137   5.355  19.839  0.00  0.00    +0.000 OA
ATOM     14  N   UNL     1       7.250   5.957  18.758  0.00  0.00    +0.000 N 
ATOM     15  O   UNL     1       7.910   6.990  18.585  0.00  0.00    +0.000 OA
ENDBRANCH   7  14
ENDBRANCH   1  12
BRANCH   4  16
ATOM     16  C   UNL     1       1.947   7.957  20.379  0.00  0.00    +0.000 C 
BRANCH  16  17
ATOM     17  C   UNL     1       0.794   8.899  20.761  0.00  0.00    +0.000 C 
BRANCH  17  18
ATOM     18  S   UNL     1       1.040  10.522  19.962  0.00  0.00    +0.000 S 
BRANCH  18  19
ATOM     19  C   UNL     1      -0.464  10.680  19.080  0.00  0.00    +0.000 A 
ATOM     20  N   UNL     1      -0.654  10.083  17.927  0.00  0.00    +0.000 NA
ATOM     21  C   UNL     1      -1.905  10.411  17.435  0.00  0.00    +0.000 A 
ATOM     22  C   UNL     1      -2.449   9.969  16.213  0.00  0.00    +0.000 A 
ATOM     23  C   UNL     1      -3.721  10.398  15.822  0.00  0.00    +0.000 A 
ATOM     24  C   UNL     1      -4.457  11.254  16.636  0.00  0.00    +0.000 A 
ATOM     25  C   UNL     1      -3.945  11.697  17.860  0.00  0.00    +0.000 A 
ATOM     26  C   UNL     1      -2.663  11.264  18.241  0.00  0.00    +0.000 A 
ATOM     27  S   UNL     1      -1.762  11.632  19.661  0.00  0.00    +0.000 S 
ENDBRANCH  18  19
ENDBRANCH  17  18
ENDBRANCH  16  17
ENDBRANCH   4  16
TORSDOF 6
ENDMDL
MODEL 2
REMARK VINA RESULT:      -6.9      2.759      3.621
REMARK  Name = 
REMARK  6 active torsions:
REMARK  status: ('A' for Active; 'I' for Inactive)
REMARK    1  A    between atoms: N_2  and  C_4
REMARK    2  A    between atoms: C_9  and  N_10
REMARK    3  A    between atoms: N_13  and  C_14
REMARK    4  A    between atoms: C_14  and  C_15
REMARK    5  A    between atoms: C_15  and  S_16
REMARK    6  A    between atoms: S_16  and  C_17
REMARK                            x       y       z     vdW  Elec       q    Type
REMARK                         _______ _______ _______ _____ _____    ______ ____
ROOT
ATOM      1  N   UNL     1       4.179   3.922  17.160  0.00  0.00    +0.000 N 
ATOM      2  C   UNL     1       3.232   4.957  17.630  0.00  0.00    +0.000 C 
ATOM      3  C   UNL     1       1.778   4.437  17.531  0.00  0.00    +0.000 C 
ATOM      4  N   UNL     1       1.524   3.152  18.226  0.00  0.00    +0.000 NA
ATOM      5  C   UNL     1       2.513   2.166  17.717  0.00  0.00    +0.000 C 
ATOM      6  C   UNL     1       3.998   2.606  17.797  0.00  0.00    +0.000 C 
ENDROOT
BRANCH   1  12
ATOM      7  C   UNL     1       6.435   4.766  16.479  0.00  0.00    +0.000 A 
ATOM      8  C   UNL     1       7.398   4.982  15.472  0.00  0.00    +0.000 A 
ATOM      9  C   UNL     1       7.111   4.633  14.160  0.00  0.00    +0.000 A 
ATOM     10  C   UNL     1       5.883   4.069  13.861  0.00  0.00    +0.000 A 
ATOM     11  C   UNL     1       4.940   3.854  14.877  0.00  0.00    +0.000 A 
ATOM     12  C   UNL     1       5.165   4.198  16.229  0.00  0.00    +0.000 A 
BRANCH   7  14
ATOM     13  O   UNL     1       7.433   4.399  18.513  0.00  0.00    +0.000 OA
ATOM     14  N   UNL     1       6.828   5.217  17.800  0.00  0.00    +0.000 N 
ATOM     15  O   UNL     1       6.577   6.387  18.116  0.00  0.00    +0.000 OA
ENDBRANCH   7  14
ENDBRANCH   1  12
BRANCH   4  16
ATOM     16  C   UNL     1       1.611   3.251  19.700  0.00  0.00    +0.000 C 
BRANCH  16  17
ATOM     17  C   UNL     1       0.988   4.527  20.286  0.00  0.00    +0.000 C 
BRANCH  17  18
ATOM     18  S   UNL     1       2.302   5.588  20.978  0.00  0.00    +0.000 S 
BRANCH  18  19
ATOM     19  C   UNL     1       1.689   7.175  20.563  0.00  0.00    +0.000 A 
ATOM     20  N   UNL     1       2.016   7.769  19.440  0.00  0.00    +0.000 NA
ATOM     21  C   UNL     1       1.429   9.020  19.388  0.00  0.00    +0.000 A 
ATOM     22  C   UNL     1       1.567   9.951  18.339  0.00  0.00    +0.000 A 
ATOM     23  C   UNL     1       0.936  11.196  18.426  0.00  0.00    +0.000 A 
ATOM     24  C   UNL     1       0.166  11.519  19.539  0.00  0.00    +0.000 A 
ATOM     25  C   UNL     1       0.001  10.608  20.587  0.00  0.00    +0.000 A 
ATOM     26  C   UNL     1       0.644   9.362  20.492  0.00  0.00    +0.000 A 
ATOM     27  S   UNL     1       0.647   8.046  21.603  0.00  0.00    +0.000 S 
ENDBRANCH  18  19
ENDBRANCH  17  18
ENDBRANCH  16  17
ENDBRANCH   4  16
TORSDOF 6
ENDMDL
MODEL 3
REMARK VINA RESULT:      -6.9      2.785      3.663
REMARK  Name = 
REMARK  6 active torsions:
REMARK  status: ('A' for Active; 'I' for Inactive)
REMARK    1  A    between atoms: N_2  and  C_4
REMARK    2  A    between atoms: C_9  and  N_10
REMARK    3  A    between atoms: N_13  and  C_14
REMARK    4  A    between atoms: C_14  and  C_15
REMARK    5  A    between atoms: C_15  and  S_16
REMARK    6  A    between atoms: S_16  and  C_17
REMARK                            x       y       z     vdW  Elec       q    Type
REMARK                         _______ _______ _______ _____ _____    ______ ____
ROOT
ATOM      1  N   UNL     1       4.552   4.516  17.808  0.00  0.00    +0.000 N 
ATOM      2  C   UNL     1       3.139   4.951  17.790  0.00  0.00    +0.000 C 
ATOM      3  C   UNL     1       2.233   3.859  18.410  0.00  0.00    +0.000 C 
ATOM      4  N   UNL     1       2.622   3.423  19.773  0.00  0.00    +0.000 NA
ATOM      5  C   UNL     1       4.049   3.012  19.721  0.00  0.00    +0.000 C 
ATOM      6  C   UNL     1       5.025   4.061  19.128  0.00  0.00    +0.000 C 
ENDROOT
BRANCH   1  12
ATOM      7  C   UNL     1       6.718   4.935  16.626  0.00  0.00    +0.000 A 
ATOM      8  C   UNL     1       7.471   4.935  15.434  0.00  0.00    +0.000 A 
ATOM      9  C   UNL     1       6.867   4.571  14.239  0.00  0.00    +0.000 A 
ATOM     10  C   UNL     1       5.532   4.204  14.238  0.00  0.00    +0.000 A 
ATOM     11  C   UNL     1       4.800   4.203  15.435  0.00  0.00    +0.000 A 
ATOM     12  C   UNL     1       5.352   4.574  16.681  0.00  0.00    +0.000 A 
BRANCH   7  14
ATOM     13  O   UNL     1       7.309   6.577  18.117  0.00  0.00    +0.000 OA
ATOM     14  N   UNL     1       7.442   5.383  17.800  0.00  0.00    +0.000 N 
ATOM     15  O   UNL     1       8.105   4.550  18.430  0.00  0.00    +0.000 OA
ENDBRANCH   7  14
ENDBRANCH   1  12
BRANCH   4  16
ATOM     16  C   UNL     1       2.425   4.466  20.804  0.00  0.00    +0.000 C 
BRANCH  16  17
ATOM     17  C   UNL     1       1.486   5.606  20.380  0.00  0.00    +0.000 C 
BRANCH  17  18
ATOM     18  S   UNL     1       2.472   7.067  19.906  0.00  0.00    +0.000 S 
BRANCH  18  19
ATOM     19  C   UNL     1       1.438   8.356  20.486  0.00  0.00    +0.000 A 
ATOM     20  N   UNL     1       1.054   8.423  21.738  0.00  0.00    +0.000 NA
ATOM     21  C   UNL     1       0.215   9.510  21.910  0.00  0.00    +0.000 A 
ATOM     22  C   UNL     1      -0.404   9.889  23.117  0.00  0.00    +0.000 A 
ATOM     23  C   UNL     1      -1.253  10.999  23.146  0.00  0.00    +0.000 A 
ATOM     24  C   UNL     1      -1.485  11.738  21.989  0.00  0.00    +0.000 A 
ATOM     25  C   UNL     1      -0.873  11.391  20.781  0.00  0.00    +0.000 A 
ATOM     26  C   UNL     1      -0.026  10.270  20.762  0.00  0.00    +0.000 A 
ATOM     27  S   UNL     1       0.856   9.588  19.450  0.00  0.00    +0.000 S 
ENDBRANCH  18  19
ENDBRANCH  17  18
ENDBRANCH  16  17
ENDBRANCH   4  16
TORSDOF 6
ENDMDL
MODEL 4
REMARK VINA RESULT:      -6.8      2.444      3.129
REMARK  Name = 
REMARK  6 active torsions:
REMARK  status: ('A' for Active; 'I' for Inactive)
REMARK    1  A    between atoms: N_2  and  C_4
REMARK    2  A    between atoms: C_9  and  N_10
REMARK    3  A    between atoms: N_13  and  C_14
REMARK    4  A    between atoms: C_14  and  C_15
REMARK    5  A    between atoms: C_15  and  S_16
REMARK    6  A    between atoms: S_16  and  C_17
REMARK                            x       y       z     vdW  Elec       q    Type
REMARK                         _______ _______ _______ _____ _____    ______ ____
ROOT
ATOM      1  N   UNL     1       4.426   5.965  17.907  0.00  0.00    +0.000 N 
ATOM      2  C   UNL     1       3.627   7.200  17.751  0.00  0.00    +0.000 C 
ATOM      3  C   UNL     1       2.141   6.923  18.088  0.00  0.00    +0.000 C 
ATOM      4  N   UNL     1       1.904   6.320  19.422  0.00  0.00    +0.000 NA
ATOM      5  C   UNL     1       2.743   5.097  19.515  0.00  0.00    +0.000 C 
ATOM      6  C   UNL     1       4.250   5.294  19.208  0.00  0.00    +0.000 C 
ENDROOT
BRANCH   1  12
ATOM      7  C   UNL     1       6.650   5.857  16.763  0.00  0.00    +0.000 A 
ATOM      8  C   UNL     1       7.467   5.325  15.744  0.00  0.00    +0.000 A 
ATOM      9  C   UNL     1       6.932   4.425  14.834  0.00  0.00    +0.000 A 
ATOM     10  C   UNL     1       5.603   4.055  14.945  0.00  0.00    +0.000 A 
ATOM     11  C   UNL     1       4.806   4.588  15.970  0.00  0.00    +0.000 A 
ATOM     12  C   UNL     1       5.286   5.518  16.920  0.00  0.00    +0.000 A 
BRANCH   7  14
ATOM     13  O   UNL     1       7.352   7.996  17.208  0.00  0.00    +0.000 OA
ATOM     14  N   UNL     1       7.304   6.825  17.621  0.00  0.00    +0.000 N 
ATOM     15  O   UNL     1       7.732   6.439  18.716  0.00  0.00    +0.000 OA
ENDBRANCH   7  14
ENDBRANCH   1  12
BRANCH   4  16
ATOM     16  C   UNL     1       2.206   7.235  20.545  0.00  0.00    +0.000 C 
BRANCH  16  17
ATOM     17  C   UNL     1       1.382   8.532  20.543  0.00  0.00    +0.000 C 
BRANCH  17  18
ATOM     18  S   UNL     1       1.222   9.158  22.250  0.00  0.00    +0.000 S 
BRANCH  18  19
ATOM     19  C   UNL     1      -0.028  10.366  22.036  0.00  0.00    +0.000 A 
ATOM     20  N   UNL     1      -0.645  10.910  23.057  0.00  0.00    +0.000 NA
ATOM     21  C   UNL     1      -1.607  11.794  22.602  0.00  0.00    +0.000 A 
ATOM     22  C   UNL     1      -2.476  12.552  23.412  0.00  0.00    +0.000 A 
ATOM     23  C   UNL     1      -3.423  13.393  22.819  0.00  0.00    +0.000 A 
ATOM     24  C   UNL     1      -3.508  13.492  21.433  0.00  0.00    +0.000 A 
ATOM     25  C   UNL     1      -2.647  12.761  20.608  0.00  0.00    +0.000 A 
ATOM     26  C   UNL     1      -1.703  11.915  21.214  0.00  0.00    +0.000 A 
ATOM     27  S   UNL     1      -0.526  10.891  20.485  0.00  0.00    +0.000 S 
ENDBRANCH  18  19
ENDBRANCH  17  18
ENDBRANCH  16  17
ENDBRANCH   4  16
TORSDOF 6
ENDMDL
MODEL 5
REMARK VINA RESULT:      -6.6      2.540      3.045
REMARK  Name = 
REMARK  6 active torsions:
REMARK  status: ('A' for Active; 'I' for Inactive)
REMARK    1  A    between atoms: N_2  and  C_4
REMARK    2  A    between atoms: C_9  and  N_10
REMARK    3  A    between atoms: N_13  and  C_14
REMARK    4  A    between atoms: C_14  and  C_15
REMARK    5  A    between atoms: C_15  and  S_16
REMARK    6  A    between atoms: S_16  and  C_17
REMARK                            x       y       z     vdW  Elec       q    Type
REMARK                         _______ _______ _______ _____ _____    ______ ____
ROOT
ATOM      1  N   UNL     1       4.517   5.526  17.830  0.00  0.00    +0.000 N 
ATOM      2  C   UNL     1       3.437   6.525  17.684  0.00  0.00    +0.000 C 
ATOM      3  C   UNL     1       2.090   5.932  18.164  0.00  0.00    +0.000 C 
ATOM      4  N   UNL     1       2.103   5.384  19.541  0.00  0.00    +0.000 NA
ATOM      5  C   UNL     1       3.214   4.400  19.620  0.00  0.00    +0.000 C 
ATOM      6  C   UNL     1       4.603   4.923  19.173  0.00  0.00    +0.000 C 
ENDROOT
BRANCH   1  12
ATOM      7  C   UNL     1       6.691   5.732  16.606  0.00  0.00    +0.000 A 
ATOM      8  C   UNL     1       7.523   5.344  15.536  0.00  0.00    +0.000 A 
ATOM      9  C   UNL     1       7.063   4.426  14.604  0.00  0.00    +0.000 A 
ATOM     10  C   UNL     1       5.791   3.896  14.744  0.00  0.00    +0.000 A 
ATOM     11  C   UNL     1       4.979   4.287  15.819  0.00  0.00    +0.000 A 
ATOM     12  C   UNL     1       5.384   5.226  16.794  0.00  0.00    +0.000 A 
BRANCH   7  14
ATOM     13  O   UNL     1       7.812   6.322  18.519  0.00  0.00    +0.000 OA
ATOM     14  N   UNL     1       7.261   6.734  17.485  0.00  0.00    +0.000 N 
ATOM     15  O   UNL     1       7.200   7.920  17.135  0.00  0.00    +0.000 OA
ENDBRANCH   7  14
ENDBRANCH   1  12
BRANCH   4  16
ATOM     16  C   UNL     1       2.259   6.419  20.587  0.00  0.00    +0.000 C 
BRANCH  16  17
ATOM     17  C   UNL     1       1.796   7.821  20.163  0.00  0.00    +0.000 C 
BRANCH  17  18
ATOM     18  S   UNL     1       1.114   8.703  21.609  0.00  0.00    +0.000 S 
BRANCH  18  19
ATOM     19  C   UNL     1       0.799  10.277  20.908  0.00  0.00    +0.000 A 
ATOM     20  N   UNL     1       0.594  11.336  21.654  0.00  0.00    +0.000 NA
ATOM     21  C   UNL     1       0.330  12.429  20.847  0.00  0.00    +0.000 A 
ATOM     22  C   UNL     1       0.047  13.734  21.297  0.00  0.00    +0.000 A 
ATOM     23  C   UNL     1      -0.228  14.744  20.370  0.00  0.00    +0.000 A 
ATOM     24  C   UNL     1      -0.217  14.471  19.005  0.00  0.00    +0.000 A 
ATOM     25  C   UNL     1       0.075  13.187  18.533  0.00  0.00    +0.000 A 
ATOM     26  C   UNL     1       0.344  12.178  19.473  0.00  0.00    +0.000 A 
ATOM     27  S   UNL     1       0.723  10.518  19.215  0.00  0.00    +0.000 S 
ENDBRANCH  18  19
ENDBRANCH  17  18
ENDBRANCH  16  17
ENDBRANCH   4  16
TORSDOF 6
ENDMDL
MODEL 6
REMARK VINA RESULT:      -6.5      1.824      2.344
REMARK  Name = 
REMARK  6 active torsions:
REMARK  status: ('A' for Active; 'I' for Inactive)
REMARK    1  A    between atoms: N_2  and  C_4
REMARK    2  A    between atoms: C_9  and  N_10
REMARK    3  A    between atoms: N_13  and  C_14
REMARK    4  A    between atoms: C_14  and  C_15
REMARK    5  A    between atoms: C_15  and  S_16
REMARK    6  A    between atoms: S_16  and  C_17
REMARK                            x       y       z     vdW  Elec       q    Type
REMARK                         _______ _______ _______ _____ _____    ______ ____
ROOT
ATOM      1  N   UNL     1       4.450   4.933  17.832  0.00  0.00    +0.000 N 
ATOM      2  C   UNL     1       3.276   5.831  17.805  0.00  0.00    +0.000 C 
ATOM      3  C   UNL     1       1.999   5.056  18.212  0.00  0.00    +0.000 C 
ATOM      4  N   UNL     1       2.082   4.354  19.515  0.00  0.00    +0.000 NA
ATOM      5  C   UNL     1       3.285   3.481  19.477  0.00  0.00    +0.000 C 
ATOM      6  C   UNL     1       4.611   4.188  19.094  0.00  0.00    +0.000 C 
ENDROOT
BRANCH   1  12
ATOM      7  C   UNL     1       6.716   5.128  16.783  0.00  0.00    +0.000 A 
ATOM      8  C   UNL     1       7.549   4.976  15.656  0.00  0.00    +0.000 A 
ATOM      9  C   UNL     1       7.010   4.532  14.457  0.00  0.00    +0.000 A 
ATOM     10  C   UNL     1       5.660   4.236  14.388  0.00  0.00    +0.000 A 
ATOM     11  C   UNL     1       4.846   4.385  15.521  0.00  0.00    +0.000 A 
ATOM     12  C   UNL     1       5.330   4.844  16.768  0.00  0.00    +0.000 A 
BRANCH   7  14
ATOM     13  O   UNL     1       7.903   4.813  18.721  0.00  0.00    +0.000 OA
ATOM     14  N   UNL     1       7.380   5.646  17.963  0.00  0.00    +0.000 N 
ATOM     15  O   UNL     1       7.420   6.874  18.118  0.00  0.00    +0.000 OA
ENDBRANCH   7  14
ENDBRANCH   1  12
BRANCH   4  16
ATOM     16  C   UNL     1       2.149   5.269  20.675  0.00  0.00    +0.000 C 
BRANCH  16  17
ATOM     17  C   UNL     1       1.146   6.432  20.622  0.00  0.00    +0.000 C 
BRANCH  17  18
ATOM     18  S   UNL     1       1.885   7.913  21.393  0.00  0.00    +0.000 S 
BRANCH  18  19
ATOM     19  C   UNL     1       0.738   9.141  20.900  0.00  0.00    +0.000 A 
ATOM     20  N   UNL     1       0.412   9.316  19.642  0.00  0.00    +0.000 NA
ATOM     21  C   UNL     1      -0.475  10.372  19.534  0.00  0.00    +0.000 A 
ATOM     22  C   UNL     1      -1.031  10.860  18.335  0.00  0.00    +0.000 A 
ATOM     23  C   UNL     1      -1.899  11.956  18.366  0.00  0.00    +0.000 A 
ATOM     24  C   UNL     1      -2.223  12.564  19.576  0.00  0.00    +0.000 A 
ATOM     25  C   UNL     1      -1.695  12.090  20.781  0.00  0.00    +0.000 A 
ATOM     26  C   UNL     1      -0.820  10.992  20.738  0.00  0.00    +0.000 A 
ATOM     27  S   UNL     1      -0.007  10.191  22.027  0.00  0.00    +0.000 S 
ENDBRANCH  18  19
ENDBRANCH  17  18
ENDBRANCH  16  17
ENDBRANCH   4  16
TORSDOF 6
ENDMDL
MODEL 7
REMARK VINA RESULT:      -6.4      4.782      9.971
REMARK  Name = 
REMARK  6 active torsions:
REMARK  status: ('A' for Active; 'I' for Inactive)
REMARK    1  A    between atoms: N_2  and  C_4
REMARK    2  A    between atoms: C_9  and  N_10
REMARK    3  A    between atoms: N_13  and  C_14
REMARK    4  A    between atoms: C_14  and  C_15
REMARK    5  A    between atoms: C_15  and  S_16
REMARK    6  A    between atoms: S_16  and  C_17
REMARK                            x       y       z     vdW  Elec       q    Type
REMARK                         _______ _______ _______ _____ _____    ______ ____
ROOT
ATOM      1  N   UNL     1      -1.246  12.082  21.343  0.00  0.00    +0.000 N 
ATOM      2  C   UNL     1      -1.843  11.981  19.994  0.00  0.00    +0.000 C 
ATOM      3  C   UNL     1      -0.799  12.358  18.916  0.00  0.00    +0.000 C 
ATOM      4  N   UNL     1       0.469  11.591  18.977  0.00  0.00    +0.000 NA
ATOM      5  C   UNL     1       1.006  11.725  20.356  0.00  0.00    +0.000 C 
ATOM      6  C   UNL     1       0.024  11.349  21.496  0.00  0.00    +0.000 C 
ENDROOT
BRANCH   1  12
ATOM      7  C   UNL     1      -1.562  14.088  22.807  0.00  0.00    +0.000 A 
ATOM      8  C   UNL     1      -2.266  14.737  23.842  0.00  0.00    +0.000 A 
ATOM      9  C   UNL     1      -3.306  14.080  24.483  0.00  0.00    +0.000 A 
ATOM     10  C   UNL     1      -3.643  12.796  24.090  0.00  0.00    +0.000 A 
ATOM     11  C   UNL     1      -2.937  12.169  23.053  0.00  0.00    +0.000 A 
ATOM     12  C   UNL     1      -1.861  12.778  22.369  0.00  0.00    +0.000 A 
BRANCH   7  14
ATOM     13  O   UNL     1       0.471  15.132  23.016  0.00  0.00    +0.000 OA
ATOM     14  N   UNL     1      -0.465  14.853  22.247  0.00  0.00    +0.000 N 
ATOM     15  O   UNL     1      -0.507  15.141  21.044  0.00  0.00    +0.000 OA
ENDBRANCH   7  14
ENDBRANCH   1  12
BRANCH   4  16
ATOM     16  C   UNL     1       0.312  10.162  18.625  0.00  0.00    +0.000 C 
BRANCH  16  17
ATOM     17  C   UNL     1       1.634   9.429  18.352  0.00  0.00    +0.000 C 
BRANCH  17  18
ATOM     18  S   UNL     1       1.812   8.034  19.515  0.00  0.00    +0.000 S 
BRANCH  18  19
ATOM     19  C   UNL     1       2.807   6.948  18.568  0.00  0.00    +0.000 A 
ATOM     20  N   UNL     1       3.624   7.390  17.643  0.00  0.00    +0.000 NA
ATOM     21  C   UNL     1       4.250   6.322  17.025  0.00  0.00    +0.000 A 
ATOM     22  C   UNL     1       5.184   6.411  15.974  0.00  0.00    +0.000 A 
ATOM     23  C   UNL     1       5.723   5.245  15.422  0.00  0.00    +0.000 A 
ATOM     24  C   UNL     1       5.348   3.996  15.909  0.00  0.00    +0.000 A 
ATOM     25  C   UNL     1       4.434   3.881  16.961  0.00  0.00    +0.000 A 
ATOM     26  C   UNL     1       3.894   5.058  17.505  0.00  0.00    +0.000 A 
ATOM     27  S   UNL     1       2.754   5.250  18.781  0.00  0.00    +0.000 S 
ENDBRANCH  18  19
ENDBRANCH  17  18
ENDBRANCH  16  17
ENDBRANCH   4  16
TORSDOF 6
ENDMDL
MODEL 8
REMARK VINA RESULT:      -6.4      4.314      9.118
REMARK  Name = 
REMARK  6 active torsions:
REMARK  status: ('A' for Active; 'I' for Inactive)
REMARK    1  A    between atoms: N_2  and  C_4
REMARK    2  A    between atoms: C_9  and  N_10
REMARK    3  A    between atoms: N_13  and  C_14
REMARK    4  A    between atoms: C_14  and  C_15
REMARK    5  A    between atoms: C_15  and  S_16
REMARK    6  A    between atoms: S_16  and  C_17
REMARK                            x       y       z     vdW  Elec       q    Type
REMARK                         _______ _______ _______ _____ _____    ______ ____
ROOT
ATOM      1  N   UNL     1       1.791   8.446  19.981  0.00  0.00    +0.000 N 
ATOM      2  C   UNL     1       2.349   7.140  20.394  0.00  0.00    +0.000 C 
ATOM      3  C   UNL     1       2.120   6.085  19.285  0.00  0.00    +0.000 C 
ATOM      4  N   UNL     1       2.631   6.464  17.946  0.00  0.00    +0.000 NA
ATOM      5  C   UNL     1       2.042   7.784  17.600  0.00  0.00    +0.000 C 
ATOM      6  C   UNL     1       2.244   8.903  18.655  0.00  0.00    +0.000 C 
ENDROOT
BRANCH   1  12
ATOM      7  C   UNL     1       0.061  10.205  20.408  0.00  0.00    +0.000 A 
ATOM      8  C   UNL     1      -0.791  10.876  21.308  0.00  0.00    +0.000 A 
ATOM      9  C   UNL     1      -0.778  10.535  22.653  0.00  0.00    +0.000 A 
ATOM     10  C   UNL     1       0.069   9.531  23.090  0.00  0.00    +0.000 A 
ATOM     11  C   UNL     1       0.905   8.868  22.179  0.00  0.00    +0.000 A 
ATOM     12  C   UNL     1       0.948   9.176  20.801  0.00  0.00    +0.000 A 
BRANCH   7  14
ATOM     13  O   UNL     1       0.733  11.638  18.747  0.00  0.00    +0.000 OA
ATOM     14  N   UNL     1      -0.004  10.682  19.041  0.00  0.00    +0.000 N 
ATOM     15  O   UNL     1      -0.748  10.089  18.250  0.00  0.00    +0.000 OA
ENDBRANCH   7  14
ENDBRANCH   1  12
BRANCH   4  16
ATOM     16  C   UNL     1       4.108   6.527  17.873  0.00  0.00    +0.000 C 
BRANCH  16  17
ATOM     17  C   UNL     1       4.826   5.385  18.609  0.00  0.00    +0.000 C 
BRANCH  17  18
ATOM     18  S   UNL     1       6.610   5.438  18.228  0.00  0.00    +0.000 S 
BRANCH  18  19
ATOM     19  C   UNL     1       6.597   4.957  16.544  0.00  0.00    +0.000 A 
ATOM     20  N   UNL     1       7.423   5.481  15.670  0.00  0.00    +0.000 NA
ATOM     21  C   UNL     1       7.168   4.954  14.416  0.00  0.00    +0.000 A 
ATOM     22  C   UNL     1       7.847   5.292  13.229  0.00  0.00    +0.000 A 
ATOM     23  C   UNL     1       7.469   4.701  12.019  0.00  0.00    +0.000 A 
ATOM     24  C   UNL     1       6.430   3.775  11.982  0.00  0.00    +0.000 A 
ATOM     25  C   UNL     1       5.750   3.412  13.149  0.00  0.00    +0.000 A 
ATOM     26  C   UNL     1       6.134   4.016  14.358  0.00  0.00    +0.000 A 
ATOM     27  S   UNL     1       5.496   3.794  15.942  0.00  0.00    +0.000 S 
ENDBRANCH  18  19
ENDBRANCH  17  18
ENDBRANCH  16  17
ENDBRANCH   4  16
TORSDOF 6
ENDMDL
MODEL 9
REMARK VINA RESULT:      -6.4      4.889      7.077
REMARK  Name = 
REMARK  6 active torsions:
REMARK  status: ('A' for Active; 'I' for Inactive)
REMARK    1  A    between atoms: N_2  and  C_4
REMARK    2  A    between atoms: C_9  and  N_10
REMARK    3  A    between atoms: N_13  and  C_14
REMARK    4  A    between atoms: C_14  and  C_15
REMARK    5  A    between atoms: C_15  and  S_16
REMARK    6  A    between atoms: S_16  and  C_17
REMARK                            x       y       z     vdW  Elec       q    Type
REMARK                         _______ _______ _______ _____ _____    ______ ____
ROOT
ATOM      1  N   UNL     1       0.308  10.889  19.607  0.00  0.00    +0.000 N 
ATOM      2  C   UNL     1       0.848  12.012  20.404  0.00  0.00    +0.000 C 
ATOM      3  C   UNL     1       0.660  13.347  19.644  0.00  0.00    +0.000 C 
ATOM      4  N   UNL     1      -0.731  13.636  19.221  0.00  0.00    +0.000 NA
ATOM      5  C   UNL     1      -1.213  12.468  18.439  0.00  0.00    +0.000 C 
ATOM      6  C   UNL     1      -1.075  11.091  19.140  0.00  0.00    +0.000 C 
ENDROOT
BRANCH   1  12
ATOM      7  C   UNL     1       1.271   8.673  20.263  0.00  0.00    +0.000 A 
ATOM      8  C   UNL     1       2.005   7.519  19.921  0.00  0.00    +0.000 A 
ATOM      9  C   UNL     1       2.546   7.399  18.649  0.00  0.00    +0.000 A 
ATOM     10  C   UNL     1       2.348   8.415  17.730  0.00  0.00    +0.000 A 
ATOM     11  C   UNL     1       1.608   9.553  18.084  0.00  0.00    +0.000 A 
ATOM     12  C   UNL     1       1.042   9.741  19.365  0.00  0.00    +0.000 A 
BRANCH   7  14
ATOM     13  O   UNL     1       1.575   9.186  22.479  0.00  0.00    +0.000 OA
ATOM     14  N   UNL     1       0.800   8.708  21.634  0.00  0.00    +0.000 N 
ATOM     15  O   UNL     1      -0.346   8.303  21.868  0.00  0.00    +0.000 OA
ENDBRANCH   7  14
ENDBRANCH   1  12
BRANCH   4  16
ATOM     16  C   UNL     1      -1.647  13.909  20.351  0.00  0.00    +0.000 C 
BRANCH  16  17
ATOM     17  C   UNL     1      -1.069  14.850  21.420  0.00  0.00    +0.000 C 
BRANCH  17  18
ATOM     18  S   UNL     1      -1.189  14.060  23.061  0.00  0.00    +0.000 S 
BRANCH  18  19
ATOM     19  C   UNL     1      -2.909  14.196  23.361  0.00  0.00    +0.000 A 
ATOM     20  N   UNL     1      -3.648  13.146  23.629  0.00  0.00    +0.000 NA
ATOM     21  C   UNL     1      -4.967  13.533  23.780  0.00  0.00    +0.000 A 
ATOM     22  C   UNL     1      -6.049  12.675  24.059  0.00  0.00    +0.000 A 
ATOM     23  C   UNL     1      -7.343  13.196  24.162  0.00  0.00    +0.000 A 
ATOM     24  C   UNL     1      -7.567  14.560  23.997  0.00  0.00    +0.000 A 
ATOM     25  C   UNL     1      -6.509  15.435  23.733  0.00  0.00    +0.000 A 
ATOM     26  C   UNL     1      -5.214  14.900  23.626  0.00  0.00    +0.000 A 
ATOM     27  S   UNL     1      -3.724  15.700  23.304  0.00  0.00    +0.000 S 
ENDBRANCH  18  19
ENDBRANCH  17  18
ENDBRANCH  16  17
ENDBRANCH   4  16
TORSDOF 6
ENDMDL
