MODEL 1
REMARK VINA RESULT:      -7.0      0.000      0.000
REMARK  Name = 
REMARK  5 active torsions:
REMARK  status: ('A' for Active; 'I' for Inactive)
REMARK    1  A    between atoms: N_1  and  S_2
REMARK    2  A    between atoms: S_2  and  C_5
REMARK    3  A    between atoms: C_8  and  N_9
REMARK    4  A    between atoms: C_10  and  C_12
REMARK    5  A    between atoms: C_12  and  N_13
REMARK                            x       y       z     vdW  Elec       q    Type
REMARK                         _______ _______ _______ _____ _____    ______ ____
ROOT
ATOM      1  C   UNL     1       1.002   9.692  19.069  0.00  0.00    +0.000 A 
ATOM      2  C   UNL     1       1.673   9.360  17.896  0.00  0.00    +0.000 A 
ATOM      3  C   UNL     1       2.445   8.195  17.853  0.00  0.00    +0.000 A 
ATOM      4  C   UNL     1       2.563   7.361  18.972  0.00  0.00    +0.000 A 
ATOM      5  C   UNL     1       1.855   7.692  20.136  0.00  0.00    +0.000 A 
ATOM      6  C   UNL     1       1.091   8.863  20.193  0.00  0.00    +0.000 A 
ENDROOT
BRANCH   4   7
ATOM      7  N   UNL     1       3.379   6.203  18.990  0.00  0.00    +0.000 N 
ATOM      8  C   UNL     1       3.081   5.003  18.354  0.00  0.00    +0.000 C 
ATOM      9  O   UNL     1       2.053   4.767  17.721  0.00  0.00    +0.000 OA
ATOM     10  H   UNL     1       4.294   6.295  19.421  0.00  0.00    +0.000 HD
BRANCH   8  11
ATOM     11  C   UNL     1       4.134   3.912  18.533  0.00  0.00    +0.000 C 
BRANCH  11  12
ATOM     12  N   UNL     1       5.369   4.358  17.926  0.00  0.00    +0.000 N 
ATOM     13  C   UNL     1       5.635   4.281  16.591  0.00  0.00    +0.000 C 
ATOM     14  O   UNL     1       4.885   3.886  15.715  0.00  0.00    +0.000 OA
ATOM     15  C   UNL     1       7.015   4.815  16.341  0.00  0.00    +0.000 C 
ATOM     16  C   UNL     1       7.524   5.219  17.715  0.00  0.00    +0.000 C 
ATOM     17  C   UNL     1       6.380   4.922  18.637  0.00  0.00    +0.000 C 
ATOM     18  O   UNL     1       6.370   5.147  19.839  0.00  0.00    +0.000 OA
ENDBRANCH  11  12
ENDBRANCH   8  11
ENDBRANCH   4   7
BRANCH   1  19
ATOM     19  S   UNL     1       0.086  11.203  19.169  0.00  0.00    +0.000 S 
ATOM     20  O   UNL     1       0.972  12.318  18.967  0.00  0.00    +0.000 OA
ATOM     21  O   UNL     1      -0.829  11.123  20.286  0.00  0.00    +0.000 OA
BRANCH  19  22
ATOM     22  N   UNL     1      -0.871  11.113  17.792  0.00  0.00    +0.000 NA
ATOM     23  H   UNL     1      -0.745  11.963  17.241  0.00  0.00    +0.000 HD
ATOM     24  H   UNL     1      -1.839  10.928  18.046  0.00  0.00    +0.000 HD
ENDBRANCH  19  22
ENDBRANCH   1  19
TORSDOF 5
ENDMDL
MODEL 2
REMARK VINA RESULT:      -6.9      1.531      1.748
REMARK  Name = 
REMARK  5 active torsions:
REMARK  status: ('A' for Active; 'I' for Inactive)
REMARK    1  A    between atoms: N_1  and  S_2
REMARK    2  A    between atoms: S_2  and  C_5
REMARK    3  A    between atoms: C_8  and  N_9
REMARK    4  A    between atoms: C_10  and  C_12
REMARK    5  A    between atoms: C_12  and  N_13
REMARK                            x       y       z     vdW  Elec       q    Type
REMARK                         _______ _______ _______ _____ _____    ______ ____
ROOT
ATOM      1  C   UNL     1       0.837   9.396  19.957  0.00  0.00    +0.000 A 
ATOM      2  C   UNL     1       1.058   9.580  18.596  0.00  0.00    +0.000 A 
ATOM      3  C   UNL     1       1.861   8.669  17.901  0.00  0.00    +0.000 A 
ATOM      4  C   UNL     1       2.453   7.580  18.553  0.00  0.00    +0.000 A 
ATOM      5  C   UNL     1       2.194   7.390  19.917  0.00  0.00    +0.000 A 
ATOM      6  C   UNL     1       1.404   8.304  20.623  0.00  0.00    +0.000 A 
ENDROOT
BRANCH   4   7
ATOM      7  N   UNL     1       3.317   6.666  17.901  0.00  0.00    +0.000 N 
ATOM      8  C   UNL     1       3.129   5.291  17.839  0.00  0.00    +0.000 C 
ATOM      9  O   UNL     1       2.211   4.671  18.374  0.00  0.00    +0.000 OA
ATOM     10  H   UNL     1       4.077   7.064  17.356  0.00  0.00    +0.000 HD
BRANCH   8  11
ATOM     11  C   UNL     1       4.212   4.535  17.072  0.00  0.00    +0.000 C 
BRANCH  11  12
ATOM     12  N   UNL     1       5.494   5.135  17.372  0.00  0.00    +0.000 N 
ATOM     13  C   UNL     1       6.083   6.101  16.611  0.00  0.00    +0.000 C 
ATOM     14  O   UNL     1       5.620   6.636  15.618  0.00  0.00    +0.000 OA
ATOM     15  C   UNL     1       7.407   6.458  17.220  0.00  0.00    +0.000 C 
ATOM     16  C   UNL     1       7.516   5.569  18.447  0.00  0.00    +0.000 C 
ATOM     17  C   UNL     1       6.227   4.803  18.467  0.00  0.00    +0.000 C 
ATOM     18  O   UNL     1       5.900   4.000  19.330  0.00  0.00    +0.000 OA
ENDBRANCH  11  12
ENDBRANCH   8  11
ENDBRANCH   4   7
BRANCH   1  19
ATOM     19  S   UNL     1      -0.108  10.581  20.870  0.00  0.00    +0.000 S 
ATOM     20  O   UNL     1      -0.543   9.998  22.111  0.00  0.00    +0.000 OA
ATOM     21  O   UNL     1      -1.010  11.259  19.965  0.00  0.00    +0.000 OA
BRANCH  19  22
ATOM     22  N   UNL     1       1.064  11.714  21.274  0.00  0.00    +0.000 NA
ATOM     23  H   UNL     1       1.264  12.293  20.459  0.00  0.00    +0.000 HD
ATOM     24  H   UNL     1       1.884  11.250  21.660  0.00  0.00    +0.000 HD
ENDBRANCH  19  22
ENDBRANCH   1  19
TORSDOF 5
ENDMDL
MODEL 3
REMARK VINA RESULT:      -6.9      1.598      2.223
REMARK  Name = 
REMARK  5 active torsions:
REMARK  status: ('A' for Active; 'I' for Inactive)
REMARK    1  A    between atoms: N_1  and  S_2
REMARK    2  A    between atoms: S_2  and  C_5
REMARK    3  A    between atoms: C_8  and  N_9
REMARK    4  A    between atoms: C_10  and  C_12
REMARK    5  A    between atoms: C_12  and  N_13
REMARK                            x       y       z     vdW  Elec       q    Type
REMARK                         _______ _______ _______ _____ _____    ______ ____
ROOT
ATOM      1  C   UNL     1       0.704   9.637  20.028  0.00  0.00    +0.000 A 
ATOM      2  C   UNL     1       0.932   9.842  18.670  0.00  0.00    +0.000 A 
ATOM      3  C   UNL     1       1.737   8.940  17.966  0.00  0.00    +0.000 A 
ATOM      4  C   UNL     1       2.323   7.840  18.603  0.00  0.00    +0.000 A 
ATOM      5  C   UNL     1       2.057   7.629  19.963  0.00  0.00    +0.000 A 
ATOM      6  C   UNL     1       1.265   8.534  20.680  0.00  0.00    +0.000 A 
ENDROOT
BRANCH   4   7
ATOM      7  N   UNL     1       3.189   6.935  17.942  0.00  0.00    +0.000 N 
ATOM      8  C   UNL     1       3.105   5.549  18.013  0.00  0.00    +0.000 C 
ATOM      9  O   UNL     1       2.295   4.917  18.689  0.00  0.00    +0.000 OA
ATOM     10  H   UNL     1       3.858   7.335  17.291  0.00  0.00    +0.000 HD
BRANCH   8  11
ATOM     11  C   UNL     1       4.164   4.807  17.201  0.00  0.00    +0.000 C 
BRANCH  11  12
ATOM     12  N   UNL     1       5.457   5.390  17.486  0.00  0.00    +0.000 N 
ATOM     13  C   UNL     1       6.249   5.019  18.533  0.00  0.00    +0.000 C 
ATOM     14  O   UNL     1       6.029   4.133  19.341  0.00  0.00    +0.000 OA
ATOM     15  C   UNL     1       7.494   5.856  18.518  0.00  0.00    +0.000 C 
ATOM     16  C   UNL     1       7.327   6.771  17.317  0.00  0.00    +0.000 C 
ATOM     17  C   UNL     1       6.018   6.357  16.713  0.00  0.00    +0.000 C 
ATOM     18  O   UNL     1       5.535   6.827  15.693  0.00  0.00    +0.000 OA
ENDBRANCH  11  12
ENDBRANCH   8  11
ENDBRANCH   4   7
BRANCH   1  19
ATOM     19  S   UNL     1      -0.244  10.810  20.954  0.00  0.00    +0.000 S 
ATOM     20  O   UNL     1      -0.680  10.211  22.187  0.00  0.00    +0.000 OA
ATOM     21  O   UNL     1      -1.145  11.498  20.056  0.00  0.00    +0.000 OA
BRANCH  19  22
ATOM     22  N   UNL     1       0.927  11.939  21.374  0.00  0.00    +0.000 NA
ATOM     23  H   UNL     1       1.807  11.690  20.924  0.00  0.00    +0.000 HD
ATOM     24  H   UNL     1       0.991  12.019  22.387  0.00  0.00    +0.000 HD
ENDBRANCH  19  22
ENDBRANCH   1  19
TORSDOF 5
ENDMDL
MODEL 4
REMARK VINA RESULT:      -6.8      1.074      1.103
REMARK  Name = 
REMARK  5 active torsions:
REMARK  status: ('A' for Active; 'I' for Inactive)
REMARK    1  A    between atoms: N_1  and  S_2
REMARK    2  A    between atoms: S_2  and  C_5
REMARK    3  A    between atoms: C_8  and  N_9
REMARK    4  A    between atoms: C_10  and  C_12
REMARK    5  A    between atoms: C_12  and  N_13
REMARK                            x       y       z     vdW  Elec       q    Type
REMARK                         _______ _______ _______ _____ _____    ______ ____
ROOT
ATOM      1  C   UNL     1       1.300   9.171  19.619  0.00  0.00    +0.000 A 
ATOM      2  C   UNL     1       1.757   9.084  18.307  0.00  0.00    +0.000 A 
ATOM      3  C   UNL     1       2.445   7.938  17.894  0.00  0.00    +0.000 A 
ATOM      4  C   UNL     1       2.689   6.880  18.779  0.00  0.00    +0.000 A 
ATOM      5  C   UNL     1       2.194   6.968  20.087  0.00  0.00    +0.000 A 
ATOM      6  C   UNL     1       1.517   8.117  20.513  0.00  0.00    +0.000 A 
ENDROOT
BRANCH   4   7
ATOM      7  N   UNL     1       3.429   5.728  18.419  0.00  0.00    +0.000 N 
ATOM      8  C   UNL     1       2.907   4.605  17.786  0.00  0.00    +0.000 C 
ATOM      9  O   UNL     1       1.725   4.440  17.487  0.00  0.00    +0.000 OA
ATOM     10  H   UNL     1       4.436   5.771  18.547  0.00  0.00    +0.000 HD
BRANCH   8  11
ATOM     11  C   UNL     1       3.924   3.500  17.510  0.00  0.00    +0.000 C 
BRANCH  11  12
ATOM     12  N   UNL     1       5.203   4.112  17.222  0.00  0.00    +0.000 N 
ATOM     13  C   UNL     1       5.625   4.447  15.969  0.00  0.00    +0.000 C 
ATOM     14  O   UNL     1       4.997   4.337  14.930  0.00  0.00    +0.000 OA
ATOM     15  C   UNL     1       7.003   5.034  16.063  0.00  0.00    +0.000 C 
ATOM     16  C   UNL     1       7.333   5.001  17.545  0.00  0.00    +0.000 C 
ATOM     17  C   UNL     1       6.102   4.435  18.188  0.00  0.00    +0.000 C 
ATOM     18  O   UNL     1       5.945   4.283  19.392  0.00  0.00    +0.000 OA
ENDBRANCH  11  12
ENDBRANCH   8  11
ENDBRANCH   4   7
BRANCH   1  19
ATOM     19  S   UNL     1       0.500  10.645  20.183  0.00  0.00    +0.000 S 
ATOM     20  O   UNL     1       0.986  10.985  21.494  0.00  0.00    +0.000 OA
ATOM     21  O   UNL     1      -0.909  10.563  19.868  0.00  0.00    +0.000 OA
BRANCH  19  22
ATOM     22  N   UNL     1       1.133  11.797  19.139  0.00  0.00    +0.000 NA
ATOM     23  H   UNL     1       1.926  11.396  18.639  0.00  0.00    +0.000 HD
ATOM     24  H   UNL     1       1.357  12.650  19.649  0.00  0.00    +0.000 HD
ENDBRANCH  19  22
ENDBRANCH   1  19
TORSDOF 5
ENDMDL
MODEL 5
REMARK VINA RESULT:      -6.8      0.897      2.109
REMARK  Name = 
REMARK  5 active torsions:
REMARK  status: ('A' for Active; 'I' for Inactive)
REMARK    1  A    between atoms: N_1  and  S_2
REMARK    2  A    between atoms: S_2  and  C_5
REMARK    3  A    between atoms: C_8  and  N_9
REMARK    4  A    between atoms: C_10  and  C_12
REMARK    5  A    between atoms: C_12  and  N_13
REMARK                            x       y       z     vdW  Elec       q    Type
REMARK                         _______ _______ _______ _____ _____    ______ ____
ROOT
ATOM      1  C   UNL     1       1.298   9.337  19.216  0.00  0.00    +0.000 A 
ATOM      2  C   UNL     1       1.455   8.353  20.188  0.00  0.00    +0.000 A 
ATOM      3  C   UNL     1       2.192   7.203  19.888  0.00  0.00    +0.000 A 
ATOM      4  C   UNL     1       2.768   7.019  18.625  0.00  0.00    +0.000 A 
ATOM      5  C   UNL     1       2.629   8.034  17.668  0.00  0.00    +0.000 A 
ATOM      6  C   UNL     1       1.882   9.182  17.954  0.00  0.00    +0.000 A 
ENDROOT
BRANCH   4   7
ATOM      7  N   UNL     1       3.474   5.847  18.261  0.00  0.00    +0.000 N 
ATOM      8  C   UNL     1       2.898   4.696  17.736  0.00  0.00    +0.000 C 
ATOM      9  O   UNL     1       1.695   4.520  17.550  0.00  0.00    +0.000 OA
ATOM     10  H   UNL     1       4.488   5.892  18.299  0.00  0.00    +0.000 HD
BRANCH   8  11
ATOM     11  C   UNL     1       3.888   3.574  17.429  0.00  0.00    +0.000 C 
BRANCH  11  12
ATOM     12  N   UNL     1       5.193   4.157  17.209  0.00  0.00    +0.000 N 
ATOM     13  C   UNL     1       6.083   4.434  18.204  0.00  0.00    +0.000 C 
ATOM     14  O   UNL     1       5.952   4.197  19.393  0.00  0.00    +0.000 OA
ATOM     15  C   UNL     1       7.310   5.050  17.599  0.00  0.00    +0.000 C 
ATOM     16  C   UNL     1       7.020   5.096  16.108  0.00  0.00    +0.000 C 
ATOM     17  C   UNL     1       5.667   4.465  15.973  0.00  0.00    +0.000 C 
ATOM     18  O   UNL     1       5.084   4.271  14.916  0.00  0.00    +0.000 OA
ENDBRANCH  11  12
ENDBRANCH   8  11
ENDBRANCH   4   7
BRANCH   1  19
ATOM     19  S   UNL     1       0.302  10.761  19.549  0.00  0.00    +0.000 S 
ATOM     20  O   UNL     1       0.792  11.428  20.726  0.00  0.00    +0.000 OA
ATOM     21  O   UNL     1      -1.090  10.411  19.370  0.00  0.00    +0.000 OA
BRANCH  19  22
ATOM     22  N   UNL     1       0.689  11.758  18.254  0.00  0.00    +0.000 NA
ATOM     23  H   UNL     1       1.222  11.223  17.568  0.00  0.00    +0.000 HD
ATOM     24  H   UNL     1       1.165  12.595  18.584  0.00  0.00    +0.000 HD
ENDBRANCH  19  22
ENDBRANCH   1  19
TORSDOF 5
ENDMDL
MODEL 6
REMARK VINA RESULT:      -6.8      0.870      1.169
REMARK  Name = 
REMARK  5 active torsions:
REMARK  status: ('A' for Active; 'I' for Inactive)
REMARK    1  A    between atoms: N_1  and  S_2
REMARK    2  A    between atoms: S_2  and  C_5
REMARK    3  A    between atoms: C_8  and  N_9
REMARK    4  A    between atoms: C_10  and  C_12
REMARK    5  A    between atoms: C_12  and  N_13
REMARK                            x       y       z     vdW  Elec       q    Type
REMARK                         _______ _______ _______ _____ _____    ______ ____
ROOT
ATOM      1  C   UNL     1       1.099   9.639  19.385  0.00  0.00    +0.000 A 
ATOM      2  C   UNL     1       1.728   9.394  18.169  0.00  0.00    +0.000 A 
ATOM      3  C   UNL     1       2.465   8.217  18.002  0.00  0.00    +0.000 A 
ATOM      4  C   UNL     1       2.588   7.284  19.039  0.00  0.00    +0.000 A 
ATOM      5  C   UNL     1       1.920   7.529  20.247  0.00  0.00    +0.000 A 
ATOM      6  C   UNL     1       1.193   8.711  20.429  0.00  0.00    +0.000 A 
ENDROOT
BRANCH   4   7
ATOM      7  N   UNL     1       3.369   6.108  18.931  0.00  0.00    +0.000 N 
ATOM      8  C   UNL     1       3.002   4.964  18.232  0.00  0.00    +0.000 C 
ATOM      9  O   UNL     1       1.936   4.798  17.643  0.00  0.00    +0.000 OA
ATOM     10  H   UNL     1       4.309   6.146  19.315  0.00  0.00    +0.000 HD
BRANCH   8  11
ATOM     11  C   UNL     1       4.031   3.836  18.276  0.00  0.00    +0.000 C 
BRANCH  11  12
ATOM     12  N   UNL     1       5.286   4.335  17.758  0.00  0.00    +0.000 N 
ATOM     13  C   UNL     1       5.607   4.369  16.434  0.00  0.00    +0.000 C 
ATOM     14  O   UNL     1       4.896   4.043  15.498  0.00  0.00    +0.000 OA
ATOM     15  C   UNL     1       6.992   4.928  16.285  0.00  0.00    +0.000 C 
ATOM     16  C   UNL     1       7.441   5.221  17.706  0.00  0.00    +0.000 C 
ATOM     17  C   UNL     1       6.263   4.845  18.554  0.00  0.00    +0.000 C 
ATOM     18  O   UNL     1       6.202   4.971  19.769  0.00  0.00    +0.000 OA
ENDBRANCH  11  12
ENDBRANCH   8  11
ENDBRANCH   4   7
BRANCH   1  19
ATOM     19  S   UNL     1       0.230  11.159  19.644  0.00  0.00    +0.000 S 
ATOM     20  O   UNL     1      -1.158  10.882  19.904  0.00  0.00    +0.000 OA
ATOM     21  O   UNL     1       0.665  12.121  18.656  0.00  0.00    +0.000 OA
BRANCH  19  22
ATOM     22  N   UNL     1       0.882  11.680  21.102  0.00  0.00    +0.000 NA
ATOM     23  H   UNL     1       0.597  11.040  21.843  0.00  0.00    +0.000 HD
ATOM     24  H   UNL     1       0.626  12.650  21.275  0.00  0.00    +0.000 HD
ENDBRANCH  19  22
ENDBRANCH   1  19
TORSDOF 5
ENDMDL
MODEL 7
REMARK VINA RESULT:      -6.8      1.715      2.994
REMARK  Name = 
REMARK  5 active torsions:
REMARK  status: ('A' for Active; 'I' for Inactive)
REMARK    1  A    between atoms: N_1  and  S_2
REMARK    2  A    between atoms: S_2  and  C_5
REMARK    3  A    between atoms: C_8  and  N_9
REMARK    4  A    between atoms: C_10  and  C_12
REMARK    5  A    between atoms: C_12  and  N_13
REMARK                            x       y       z     vdW  Elec       q    Type
REMARK                         _______ _______ _______ _____ _____    ______ ____
ROOT
ATOM      1  C   UNL     1       1.077   9.784  19.620  0.00  0.00    +0.000 A 
ATOM      2  C   UNL     1       1.377   8.722  20.469  0.00  0.00    +0.000 A 
ATOM      3  C   UNL     1       1.974   7.572  19.943  0.00  0.00    +0.000 A 
ATOM      4  C   UNL     1       2.268   7.465  18.578  0.00  0.00    +0.000 A 
ATOM      5  C   UNL     1       1.990   8.556  17.743  0.00  0.00    +0.000 A 
ATOM      6  C   UNL     1       1.380   9.706  18.257  0.00  0.00    +0.000 A 
ENDROOT
BRANCH   4   7
ATOM      7  N   UNL     1       2.820   6.298  17.996  0.00  0.00    +0.000 N 
ATOM      8  C   UNL     1       4.119   6.179  17.518  0.00  0.00    +0.000 C 
ATOM      9  O   UNL     1       4.958   7.079  17.498  0.00  0.00    +0.000 OA
ATOM     10  H   UNL     1       2.247   5.459  18.022  0.00  0.00    +0.000 HD
BRANCH   8  11
ATOM     11  C   UNL     1       4.460   4.808  16.938  0.00  0.00    +0.000 C 
BRANCH  11  12
ATOM     12  N   UNL     1       4.095   3.795  17.904  0.00  0.00    +0.000 N 
ATOM     13  C   UNL     1       4.847   3.475  18.996  0.00  0.00    +0.000 C 
ATOM     14  O   UNL     1       5.885   4.006  19.353  0.00  0.00    +0.000 OA
ATOM     15  C   UNL     1       4.164   2.371  19.747  0.00  0.00    +0.000 C 
ATOM     16  C   UNL     1       2.905   2.084  18.947  0.00  0.00    +0.000 C 
ATOM     17  C   UNL     1       2.945   3.076  17.823  0.00  0.00    +0.000 C 
ATOM     18  O   UNL     1       2.080   3.205  16.968  0.00  0.00    +0.000 OA
ENDBRANCH  11  12
ENDBRANCH   8  11
ENDBRANCH   4   7
BRANCH   1  19
ATOM     19  S   UNL     1       0.249  11.215  20.250  0.00  0.00    +0.000 S 
ATOM     20  O   UNL     1       0.796  11.562  21.535  0.00  0.00    +0.000 OA
ATOM     21  O   UNL     1      -1.172  11.075  20.016  0.00  0.00    +0.000 OA
BRANCH  19  22
ATOM     22  N   UNL     1       0.768  12.406  19.186  0.00  0.00    +0.000 NA
ATOM     23  H   UNL     1       0.423  13.312  19.504  0.00  0.00    +0.000 HD
ATOM     24  H   UNL     1       0.494  12.173  18.234  0.00  0.00    +0.000 HD
ENDBRANCH  19  22
ENDBRANCH   1  19
TORSDOF 5
ENDMDL
MODEL 8
REMARK VINA RESULT:      -6.8      1.705      2.830
REMARK  Name = 
REMARK  5 active torsions:
REMARK  status: ('A' for Active; 'I' for Inactive)
REMARK    1  A    between atoms: N_1  and  S_2
REMARK    2  A    between atoms: S_2  and  C_5
REMARK    3  A    between atoms: C_8  and  N_9
REMARK    4  A    between atoms: C_10  and  C_12
REMARK    5  A    between atoms: C_12  and  N_13
REMARK                            x       y       z     vdW  Elec       q    Type
REMARK                         _______ _______ _______ _____ _____    ______ ____
ROOT
ATOM      1  C   UNL     1       1.128   9.703  19.644  0.00  0.00    +0.000 A 
ATOM      2  C   UNL     1       1.337   9.660  18.268  0.00  0.00    +0.000 A 
ATOM      3  C   UNL     1       1.888   8.511  17.693  0.00  0.00    +0.000 A 
ATOM      4  C   UNL     1       2.242   7.406  18.476  0.00  0.00    +0.000 A 
ATOM      5  C   UNL     1       1.994   7.451  19.855  0.00  0.00    +0.000 A 
ATOM      6  C   UNL     1       1.456   8.602  20.442  0.00  0.00    +0.000 A 
ENDROOT
BRANCH   4   7
ATOM      7  N   UNL     1       2.854   6.245  17.943  0.00  0.00    +0.000 N 
ATOM      8  C   UNL     1       4.155   6.177  17.459  0.00  0.00    +0.000 C 
ATOM      9  O   UNL     1       4.942   7.120  17.390  0.00  0.00    +0.000 OA
ATOM     10  H   UNL     1       2.330   5.378  18.012  0.00  0.00    +0.000 HD
BRANCH   8  11
ATOM     11  C   UNL     1       4.568   4.801  16.939  0.00  0.00    +0.000 C 
BRANCH  11  12
ATOM     12  N   UNL     1       4.179   3.805  17.913  0.00  0.00    +0.000 N 
ATOM     13  C   UNL     1       4.891   3.520  19.041  0.00  0.00    +0.000 C 
ATOM     14  O   UNL     1       5.906   4.074  19.427  0.00  0.00    +0.000 OA
ATOM     15  C   UNL     1       4.194   2.422  19.789  0.00  0.00    +0.000 C 
ATOM     16  C   UNL     1       2.972   2.100  18.946  0.00  0.00    +0.000 C 
ATOM     17  C   UNL     1       3.043   3.067  17.803  0.00  0.00    +0.000 C 
ATOM     18  O   UNL     1       2.212   3.164  16.911  0.00  0.00    +0.000 OA
ENDBRANCH  11  12
ENDBRANCH   8  11
ENDBRANCH   4   7
BRANCH   1  19
ATOM     19  S   UNL     1       0.507  11.177  20.401  0.00  0.00    +0.000 S 
ATOM     20  O   UNL     1       1.168  11.385  21.662  0.00  0.00    +0.000 OA
ATOM     21  O   UNL     1      -0.932  11.207  20.258  0.00  0.00    +0.000 OA
BRANCH  19  22
ATOM     22  N   UNL     1       1.091  12.364  19.367  0.00  0.00    +0.000 NA
ATOM     23  H   UNL     1       1.331  11.938  18.471  0.00  0.00    +0.000 HD
ATOM     24  H   UNL     1       1.863  12.864  19.804  0.00  0.00    +0.000 HD
ENDBRANCH  19  22
ENDBRANCH   1  19
TORSDOF 5
ENDMDL
MODEL 9
REMARK VINA RESULT:      -6.7      0.806      2.214
REMARK  Name = 
REMARK  5 active torsions:
REMARK  status: ('A' for Active; 'I' for Inactive)
REMARK    1  A    between atoms: N_1  and  S_2
REMARK    2  A    between atoms: S_2  and  C_5
REMARK    3  A    between atoms: C_8  and  N_9
REMARK    4  A    between atoms: C_10  and  C_12
REMARK    5  A    between atoms: C_12  and  N_13
REMARK                            x       y       z     vdW  Elec       q    Type
REMARK                         _______ _______ _______ _____ _____    ______ ____
ROOT
ATOM      1  C   UNL     1       0.894   9.645  19.024  0.00  0.00    +0.000 A 
ATOM      2  C   UNL     1       1.026   8.863  20.167  0.00  0.00    +0.000 A 
ATOM      3  C   UNL     1       1.869   7.747  20.142  0.00  0.00    +0.000 A 
ATOM      4  C   UNL     1       2.577   7.399  18.985  0.00  0.00    +0.000 A 
ATOM      5  C   UNL     1       2.459   8.216  17.852  0.00  0.00    +0.000 A 
ATOM      6  C   UNL     1       1.606   9.325  17.863  0.00  0.00    +0.000 A 
ENDROOT
BRANCH   4   7
ATOM      7  N   UNL     1       3.397   6.247  18.898  0.00  0.00    +0.000 N 
ATOM      8  C   UNL     1       3.041   5.055  18.277  0.00  0.00    +0.000 C 
ATOM      9  O   UNL     1       1.954   4.820  17.752  0.00  0.00    +0.000 OA
ATOM     10  H   UNL     1       4.352   6.339  19.231  0.00  0.00    +0.000 HD
BRANCH   8  11
ATOM     11  C   UNL     1       4.114   3.969  18.327  0.00  0.00    +0.000 C 
BRANCH  11  12
ATOM     12  N   UNL     1       5.346   4.514  17.802  0.00  0.00    +0.000 N 
ATOM     13  C   UNL     1       6.335   5.050  18.574  0.00  0.00    +0.000 C 
ATOM     14  O   UNL     1       6.364   5.109  19.792  0.00  0.00    +0.000 OA
ATOM     15  C   UNL     1       7.441   5.529  17.681  0.00  0.00    +0.000 C 
ATOM     16  C   UNL     1       6.968   5.200  16.275  0.00  0.00    +0.000 C 
ATOM     17  C   UNL     1       5.647   4.520  16.477  0.00  0.00    +0.000 C 
ATOM     18  O   UNL     1       4.951   4.057  15.584  0.00  0.00    +0.000 OA
ENDBRANCH  11  12
ENDBRANCH   8  11
ENDBRANCH   4   7
BRANCH   1  19
ATOM     19  S   UNL     1      -0.230  11.012  19.011  0.00  0.00    +0.000 S 
ATOM     20  O   UNL     1      -1.420  10.650  18.287  0.00  0.00    +0.000 OA
ATOM     21  O   UNL     1       0.510  12.225  18.743  0.00  0.00    +0.000 OA
BRANCH  19  22
ATOM     22  N   UNL     1      -0.678  11.102  20.627  0.00  0.00    +0.000 NA
ATOM     23  H   UNL     1      -1.557  10.602  20.758  0.00  0.00    +0.000 HD
ATOM     24  H   UNL     1      -0.707  12.073  20.931  0.00  0.00    +0.000 HD
ENDBRANCH  19  22
ENDBRANCH   1  19
TORSDOF 5
ENDMDL
