MODEL 1
REMARK VINA RESULT:      -9.3      0.000      0.000
REMARK  Name = 
REMARK  7 active torsions:
REMARK  status: ('A' for Active; 'I' for Inactive)
REMARK    1  A    between atoms: C_1  and  C_2
REMARK    2  A    between atoms: C_7  and  C_8
REMARK    3  A    between atoms: C_9  and  N_10
REMARK    4  A    between atoms: C_12  and  C_13
REMARK    5  A    between atoms: N_15  and  C_16
REMARK    6  A    between atoms: C_18  and  C_19
REMARK    7  A    between atoms: C_24  and  C_25
REMARK                            x       y       z     vdW  Elec       q    Type
REMARK                         _______ _______ _______ _____ _____    ______ ____
ROOT
ATOM      1  C   UNL     1       2.064   8.393  18.430  0.00  0.00    +0.000 C 
ATOM      2  O   UNL     1       1.914   8.083  19.610  0.00  0.00    +0.000 OA
ATOM      3  N   UNL     1       2.928   7.766  17.542  0.00  0.00    +0.000 N 
ATOM      4  H   UNL     1       3.111   8.221  16.655  0.00  0.00    +0.000 HD
ENDROOT
BRANCH   1   7
ATOM      5  N   UNL     1       0.431  10.709  19.731  0.00  0.00    +0.000 N 
ATOM      6  C   UNL     1       0.006   9.836  18.664  0.00  0.00    +0.000 C 
ATOM      7  C   UNL     1       1.286   9.591  17.896  0.00  0.00    +0.000 C 
ATOM      8  C   UNL     1       2.045  10.904  18.025  0.00  0.00    +0.000 C 
ATOM      9  C   UNL     1       1.571  11.435  19.357  0.00  0.00    +0.000 C 
ATOM     10  O   UNL     1       2.154  12.295  19.996  0.00  0.00    +0.000 OA
BRANCH   5  19
ATOM     11  C   UNL     1       0.764   9.365  22.341  0.00  0.00    +0.000 C 
ATOM     12  C   UNL     1      -0.303  10.379  22.045  0.00  0.00    +0.000 A 
ATOM     13  C   UNL     1      -1.140  10.732  23.112  0.00  0.00    +0.000 A 
ATOM     14  C   UNL     1      -2.093  11.720  22.957  0.00  0.00    +0.000 A 
ATOM     15  F   UNL     1      -2.877  12.047  23.992  0.00  0.00    +0.000 F 
ATOM     16  C   UNL     1      -2.245  12.374  21.744  0.00  0.00    +0.000 A 
ATOM     17  C   UNL     1      -1.431  12.043  20.645  0.00  0.00    +0.000 A 
ATOM     18  C   UNL     1      -1.719  12.743  19.342  0.00  0.00    +0.000 C 
ATOM     19  C   UNL     1      -0.437  11.046  20.798  0.00  0.00    +0.000 A 
ENDBRANCH   5  19
ENDBRANCH   1   7
BRANCH   3  20
ATOM     20  C   UNL     1       3.694   6.603  17.808  0.00  0.00    +0.000 A 
ATOM     21  C   UNL     1       5.064   6.664  18.008  0.00  0.00    +0.000 A 
ATOM     22  C   UNL     1       5.823   5.519  18.289  0.00  0.00    +0.000 A 
ATOM     23  C   UNL     1       5.180   4.276  18.346  0.00  0.00    +0.000 A 
ATOM     24  C   UNL     1       3.795   4.176  18.152  0.00  0.00    +0.000 A 
ATOM     25  C   UNL     1       3.058   5.356  17.910  0.00  0.00    +0.000 A 
BRANCH  22  26
ATOM     26  C   UNL     1       7.305   5.639  18.548  0.00  0.00    +0.000 C 
ATOM     27  F   UNL     1       7.855   6.785  18.060  0.00  0.00    +0.000 F 
ATOM     28  F   UNL     1       7.592   5.627  19.878  0.00  0.00    +0.000 F 
ATOM     29  F   UNL     1       8.013   4.618  17.998  0.00  0.00    +0.000 F 
ENDBRANCH  22  26
BRANCH  24  30
ATOM     30  C   UNL     1       3.105   2.831  18.199  0.00  0.00    +0.000 C 
ATOM     31  F   UNL     1       1.895   2.820  17.574  0.00  0.00    +0.000 F 
ATOM     32  F   UNL     1       3.837   1.846  17.614  0.00  0.00    +0.000 F 
ATOM     33  F   UNL     1       2.867   2.413  19.474  0.00  0.00    +0.000 F 
ENDBRANCH  24  30
ENDBRANCH   3  20
TORSDOF 5
ENDMDL
MODEL 2
REMARK VINA RESULT:      -9.3      0.421      3.456
REMARK  Name = 
REMARK  7 active torsions:
REMARK  status: ('A' for Active; 'I' for Inactive)
REMARK    1  A    between atoms: C_1  and  C_2
REMARK    2  A    between atoms: C_7  and  C_8
REMARK    3  A    between atoms: C_9  and  N_10
REMARK    4  A    between atoms: C_12  and  C_13
REMARK    5  A    between atoms: N_15  and  C_16
REMARK    6  A    between atoms: C_18  and  C_19
REMARK    7  A    between atoms: C_24  and  C_25
REMARK                            x       y       z     vdW  Elec       q    Type
REMARK                         _______ _______ _______ _____ _____    ______ ____
ROOT
ATOM      1  C   UNL     1       2.039   8.423  18.494  0.00  0.00    +0.000 C 
ATOM      2  O   UNL     1       1.943   8.135  19.686  0.00  0.00    +0.000 OA
ATOM      3  N   UNL     1       2.860   7.778  17.579  0.00  0.00    +0.000 N 
ATOM      4  H   UNL     1       3.003   8.215  16.676  0.00  0.00    +0.000 HD
ENDROOT
BRANCH   1   7
ATOM      5  N   UNL     1       0.417  10.730  19.825  0.00  0.00    +0.000 N 
ATOM      6  C   UNL     1      -0.024   9.850  18.770  0.00  0.00    +0.000 C 
ATOM      7  C   UNL     1       1.239   9.614  17.975  0.00  0.00    +0.000 C 
ATOM      8  C   UNL     1       1.990  10.933  18.082  0.00  0.00    +0.000 C 
ATOM      9  C   UNL     1       1.542  11.464  19.424  0.00  0.00    +0.000 C 
ATOM     10  O   UNL     1       2.132  12.330  20.047  0.00  0.00    +0.000 OA
BRANCH   5  19
ATOM     11  C   UNL     1      -1.663  12.795  19.451  0.00  0.00    +0.000 C 
ATOM     12  C   UNL     1      -1.409  12.078  20.746  0.00  0.00    +0.000 A 
ATOM     13  C   UNL     1      -2.269  12.389  21.808  0.00  0.00    +0.000 A 
ATOM     14  C   UNL     1      -2.167  11.716  23.011  0.00  0.00    +0.000 A 
ATOM     15  F   UNL     1      -3.004  12.024  24.010  0.00  0.00    +0.000 F 
ATOM     16  C   UNL     1      -1.210  10.730  23.193  0.00  0.00    +0.000 A 
ATOM     17  C   UNL     1      -0.321  10.394  22.155  0.00  0.00    +0.000 A 
ATOM     18  C   UNL     1       0.740   9.371  22.463  0.00  0.00    +0.000 C 
ATOM     19  C   UNL     1      -0.429  11.063  20.911  0.00  0.00    +0.000 A 
ENDBRANCH   5  19
ENDBRANCH   1   7
BRANCH   3  20
ATOM     20  C   UNL     1       3.635   6.618  17.830  0.00  0.00    +0.000 A 
ATOM     21  C   UNL     1       3.045   5.395  18.111  0.00  0.00    +0.000 A 
ATOM     22  C   UNL     1       3.806   4.241  18.343  0.00  0.00    +0.000 A 
ATOM     23  C   UNL     1       5.203   4.333  18.313  0.00  0.00    +0.000 A 
ATOM     24  C   UNL     1       5.835   5.551  18.028  0.00  0.00    +0.000 A 
ATOM     25  C   UNL     1       5.035   6.683  17.761  0.00  0.00    +0.000 A 
BRANCH  22  26
ATOM     26  C   UNL     1       3.119   2.921  18.597  0.00  0.00    +0.000 C 
ATOM     27  F   UNL     1       3.695   2.186  19.588  0.00  0.00    +0.000 F 
ATOM     28  F   UNL     1       1.819   3.085  18.964  0.00  0.00    +0.000 F 
ATOM     29  F   UNL     1       3.105   2.123  17.496  0.00  0.00    +0.000 F 
ENDBRANCH  22  26
BRANCH  24  30
ATOM     30  C   UNL     1       7.344   5.651  18.010  0.00  0.00    +0.000 C 
ATOM     31  F   UNL     1       7.890   5.842  19.244  0.00  0.00    +0.000 F 
ATOM     32  F   UNL     1       7.937   4.535  17.508  0.00  0.00    +0.000 F 
ATOM     33  F   UNL     1       7.788   6.687  17.244  0.00  0.00    +0.000 F 
ENDBRANCH  24  30
ENDBRANCH   3  20
TORSDOF 5
ENDMDL
MODEL 3
REMARK VINA RESULT:      -9.2      0.110      1.689
REMARK  Name = 
REMARK  7 active torsions:
REMARK  status: ('A' for Active; 'I' for Inactive)
REMARK    1  A    between atoms: C_1  and  C_2
REMARK    2  A    between atoms: C_7  and  C_8
REMARK    3  A    between atoms: C_9  and  N_10
REMARK    4  A    between atoms: C_12  and  C_13
REMARK    5  A    between atoms: N_15  and  C_16
REMARK    6  A    between atoms: C_18  and  C_19
REMARK    7  A    between atoms: C_24  and  C_25
REMARK                            x       y       z     vdW  Elec       q    Type
REMARK                         _______ _______ _______ _____ _____    ______ ____
ROOT
ATOM      1  C   UNL     1       2.030   8.395  18.456  0.00  0.00    +0.000 C 
ATOM      2  O   UNL     1       1.919   8.096  19.644  0.00  0.00    +0.000 OA
ATOM      3  N   UNL     1       2.868   7.763  17.547  0.00  0.00    +0.000 N 
ATOM      4  H   UNL     1       3.020   8.210  16.651  0.00  0.00    +0.000 HD
ENDROOT
BRANCH   1   7
ATOM      5  N   UNL     1       0.424  10.714  19.787  0.00  0.00    +0.000 N 
ATOM      6  C   UNL     1      -0.027   9.830  18.739  0.00  0.00    +0.000 C 
ATOM      7  C   UNL     1       1.230   9.586  17.936  0.00  0.00    +0.000 C 
ATOM      8  C   UNL     1       1.986  10.903  18.032  0.00  0.00    +0.000 C 
ATOM      9  C   UNL     1       1.549  11.443  19.374  0.00  0.00    +0.000 C 
ATOM     10  O   UNL     1       2.145  12.310  19.988  0.00  0.00    +0.000 OA
BRANCH   5  19
ATOM     11  C   UNL     1      -1.648  12.788  19.418  0.00  0.00    +0.000 C 
ATOM     12  C   UNL     1      -1.390  12.075  20.714  0.00  0.00    +0.000 A 
ATOM     13  C   UNL     1      -2.242  12.394  21.780  0.00  0.00    +0.000 A 
ATOM     14  C   UNL     1      -2.136  11.725  22.985  0.00  0.00    +0.000 A 
ATOM     15  F   UNL     1      -2.965  12.041  23.988  0.00  0.00    +0.000 F 
ATOM     16  C   UNL     1      -1.183  10.735  23.164  0.00  0.00    +0.000 A 
ATOM     17  C   UNL     1      -0.302  10.391  22.122  0.00  0.00    +0.000 A 
ATOM     18  C   UNL     1       0.757   9.364  22.428  0.00  0.00    +0.000 C 
ATOM     19  C   UNL     1      -0.414  11.055  20.876  0.00  0.00    +0.000 A 
ENDBRANCH   5  19
ENDBRANCH   1   7
BRANCH   3  20
ATOM     20  C   UNL     1       3.646   6.606  17.800  0.00  0.00    +0.000 A 
ATOM     21  C   UNL     1       5.024   6.670  17.933  0.00  0.00    +0.000 A 
ATOM     22  C   UNL     1       5.797   5.532  18.200  0.00  0.00    +0.000 A 
ATOM     23  C   UNL     1       5.158   4.290  18.313  0.00  0.00    +0.000 A 
ATOM     24  C   UNL     1       3.766   4.187  18.189  0.00  0.00    +0.000 A 
ATOM     25  C   UNL     1       3.018   5.361  17.958  0.00  0.00    +0.000 A 
BRANCH  22  26
ATOM     26  C   UNL     1       7.290   5.657  18.385  0.00  0.00    +0.000 C 
ATOM     27  F   UNL     1       8.000   4.649  17.808  0.00  0.00    +0.000 F 
ATOM     28  F   UNL     1       7.775   6.809  17.847  0.00  0.00    +0.000 F 
ATOM     29  F   UNL     1       7.651   5.669  19.696  0.00  0.00    +0.000 F 
ENDBRANCH  22  26
BRANCH  24  30
ATOM     30  C   UNL     1       3.080   2.843  18.297  0.00  0.00    +0.000 C 
ATOM     31  F   UNL     1       1.804   2.846  17.820  0.00  0.00    +0.000 F 
ATOM     32  F   UNL     1       3.732   1.866  17.612  0.00  0.00    +0.000 F 
ATOM     33  F   UNL     1       2.995   2.405  19.584  0.00  0.00    +0.000 F 
ENDBRANCH  24  30
ENDBRANCH   3  20
TORSDOF 5
ENDMDL
MODEL 4
REMARK VINA RESULT:      -9.2      0.117      3.116
REMARK  Name = 
REMARK  7 active torsions:
REMARK  status: ('A' for Active; 'I' for Inactive)
REMARK    1  A    between atoms: C_1  and  C_2
REMARK    2  A    between atoms: C_7  and  C_8
REMARK    3  A    between atoms: C_9  and  N_10
REMARK    4  A    between atoms: C_12  and  C_13
REMARK    5  A    between atoms: N_15  and  C_16
REMARK    6  A    between atoms: C_18  and  C_19
REMARK    7  A    between atoms: C_24  and  C_25
REMARK                            x       y       z     vdW  Elec       q    Type
REMARK                         _______ _______ _______ _____ _____    ______ ____
ROOT
ATOM      1  C   UNL     1       2.093   8.320  18.477  0.00  0.00    +0.000 C 
ATOM      2  O   UNL     1       2.059   8.119  19.690  0.00  0.00    +0.000 OA
ATOM      3  N   UNL     1       2.856   7.600  17.567  0.00  0.00    +0.000 N 
ATOM      4  H   UNL     1       2.953   7.970  16.630  0.00  0.00    +0.000 HD
ENDROOT
BRANCH   1   7
ATOM      5  N   UNL     1       0.428  10.640  19.730  0.00  0.00    +0.000 N 
ATOM      6  C   UNL     1       0.007   9.724  18.698  0.00  0.00    +0.000 C 
ATOM      7  C   UNL     1       1.279   9.484  17.918  0.00  0.00    +0.000 C 
ATOM      8  C   UNL     1       2.010  10.816  17.993  0.00  0.00    +0.000 C 
ATOM      9  C   UNL     1       1.545  11.379  19.315  0.00  0.00    +0.000 C 
ATOM     10  O   UNL     1       2.118  12.272  19.917  0.00  0.00    +0.000 OA
BRANCH   5  19
ATOM     11  C   UNL     1       0.793   9.343  22.360  0.00  0.00    +0.000 C 
ATOM     12  C   UNL     1      -0.281  10.347  22.057  0.00  0.00    +0.000 A 
ATOM     13  C   UNL     1      -1.109  10.715  23.126  0.00  0.00    +0.000 A 
ATOM     14  C   UNL     1      -2.069  11.696  22.964  0.00  0.00    +0.000 A 
ATOM     15  F   UNL     1      -2.844  12.037  24.001  0.00  0.00    +0.000 F 
ATOM     16  C   UNL     1      -2.236  12.328  21.741  0.00  0.00    +0.000 A 
ATOM     17  C   UNL     1      -1.431  11.982  20.640  0.00  0.00    +0.000 A 
ATOM     18  C   UNL     1      -1.734  12.658  19.328  0.00  0.00    +0.000 C 
ATOM     19  C   UNL     1      -0.431  10.992  20.800  0.00  0.00    +0.000 A 
ENDBRANCH   5  19
ENDBRANCH   1   7
BRANCH   3  20
ATOM     20  C   UNL     1       3.630   6.449  17.859  0.00  0.00    +0.000 A 
ATOM     21  C   UNL     1       3.062   5.186  17.919  0.00  0.00    +0.000 A 
ATOM     22  C   UNL     1       3.826   4.042  18.190  0.00  0.00    +0.000 A 
ATOM     23  C   UNL     1       5.199   4.185  18.428  0.00  0.00    +0.000 A 
ATOM     24  C   UNL     1       5.809   5.445  18.371  0.00  0.00    +0.000 A 
ATOM     25  C   UNL     1       5.014   6.569  18.058  0.00  0.00    +0.000 A 
BRANCH  22  26
ATOM     26  C   UNL     1       3.173   2.681  18.198  0.00  0.00    +0.000 C 
ATOM     27  F   UNL     1       2.936   2.194  19.447  0.00  0.00    +0.000 F 
ATOM     28  F   UNL     1       1.966   2.691  17.569  0.00  0.00    +0.000 F 
ATOM     29  F   UNL     1       3.923   1.742  17.564  0.00  0.00    +0.000 F 
ENDBRANCH  22  26
BRANCH  24  30
ATOM     30  C   UNL     1       7.289   5.598  18.643  0.00  0.00    +0.000 C 
ATOM     31  F   UNL     1       7.816   6.750  18.141  0.00  0.00    +0.000 F 
ATOM     32  F   UNL     1       7.580   5.602  19.972  0.00  0.00    +0.000 F 
ATOM     33  F   UNL     1       8.024   4.587  18.102  0.00  0.00    +0.000 F 
ENDBRANCH  24  30
ENDBRANCH   3  20
TORSDOF 5
ENDMDL
MODEL 5
REMARK VINA RESULT:      -9.1      0.505      3.115
REMARK  Name = 
REMARK  7 active torsions:
REMARK  status: ('A' for Active; 'I' for Inactive)
REMARK    1  A    between atoms: C_1  and  C_2
REMARK    2  A    between atoms: C_7  and  C_8
REMARK    3  A    between atoms: C_9  and  N_10
REMARK    4  A    between atoms: C_12  and  C_13
REMARK    5  A    between atoms: N_15  and  C_16
REMARK    6  A    between atoms: C_18  and  C_19
REMARK    7  A    between atoms: C_24  and  C_25
REMARK                            x       y       z     vdW  Elec       q    Type
REMARK                         _______ _______ _______ _____ _____    ______ ____
ROOT
ATOM      1  C   UNL     1       1.835   8.540  18.592  0.00  0.00    +0.000 C 
ATOM      2  O   UNL     1       1.817   8.334  19.805  0.00  0.00    +0.000 OA
ATOM      3  N   UNL     1       2.514   7.766  17.660  0.00  0.00    +0.000 N 
ATOM      4  H   UNL     1       2.616   8.134  16.721  0.00  0.00    +0.000 HD
ENDROOT
BRANCH   1   7
ATOM      5  N   UNL     1       0.237  10.881  19.893  0.00  0.00    +0.000 N 
ATOM      6  C   UNL     1      -0.187  10.036  18.803  0.00  0.00    +0.000 C 
ATOM      7  C   UNL     1       1.102   9.767  18.060  0.00  0.00    +0.000 C 
ATOM      8  C   UNL     1       1.894  11.056  18.226  0.00  0.00    +0.000 C 
ATOM      9  C   UNL     1       1.405  11.581  19.555  0.00  0.00    +0.000 C 
ATOM     10  O   UNL     1       1.996  12.414  20.220  0.00  0.00    +0.000 OA
BRANCH   5  19
ATOM     11  C   UNL     1       0.451   9.465  22.477  0.00  0.00    +0.000 C 
ATOM     12  C   UNL     1      -0.569  10.526  22.178  0.00  0.00    +0.000 A 
ATOM     13  C   UNL     1      -1.419  10.886  23.233  0.00  0.00    +0.000 A 
ATOM     14  C   UNL     1      -2.330  11.913  23.078  0.00  0.00    +0.000 A 
ATOM     15  F   UNL     1      -3.128  12.246  24.100  0.00  0.00    +0.000 F 
ATOM     16  C   UNL     1      -2.426  12.600  21.878  0.00  0.00    +0.000 A 
ATOM     17  C   UNL     1      -1.596  12.264  20.791  0.00  0.00    +0.000 A 
ATOM     18  C   UNL     1      -1.823  13.004  19.499  0.00  0.00    +0.000 C 
ATOM     19  C   UNL     1      -0.645  11.226  20.945  0.00  0.00    +0.000 A 
ENDBRANCH   5  19
ENDBRANCH   1   7
BRANCH   3  20
ATOM     20  C   UNL     1       3.201   6.556  17.926  0.00  0.00    +0.000 A 
ATOM     21  C   UNL     1       2.529   5.350  18.052  0.00  0.00    +0.000 A 
ATOM     22  C   UNL     1       3.206   4.147  18.298  0.00  0.00    +0.000 A 
ATOM     23  C   UNL     1       4.599   4.170  18.442  0.00  0.00    +0.000 A 
ATOM     24  C   UNL     1       5.313   5.370  18.316  0.00  0.00    +0.000 A 
ATOM     25  C   UNL     1       4.601   6.554  18.030  0.00  0.00    +0.000 A 
BRANCH  22  26
ATOM     26  C   UNL     1       2.437   2.851  18.381  0.00  0.00    +0.000 C 
ATOM     27  F   UNL     1       2.720   1.981  17.371  0.00  0.00    +0.000 F 
ATOM     28  F   UNL     1       2.697   2.177  19.534  0.00  0.00    +0.000 F 
ATOM     29  F   UNL     1       1.092   3.042  18.347  0.00  0.00    +0.000 F 
ENDBRANCH  22  26
BRANCH  24  30
ATOM     30  C   UNL     1       6.816   5.394  18.486  0.00  0.00    +0.000 C 
ATOM     31  F   UNL     1       7.440   4.309  17.948  0.00  0.00    +0.000 F 
ATOM     32  F   UNL     1       7.390   6.482  17.906  0.00  0.00    +0.000 F 
ATOM     33  F   UNL     1       7.190   5.426  19.795  0.00  0.00    +0.000 F 
ENDBRANCH  24  30
ENDBRANCH   3  20
TORSDOF 5
ENDMDL
MODEL 6
REMARK VINA RESULT:      -9.0      0.604      3.489
REMARK  Name = 
REMARK  7 active torsions:
REMARK  status: ('A' for Active; 'I' for Inactive)
REMARK    1  A    between atoms: C_1  and  C_2
REMARK    2  A    between atoms: C_7  and  C_8
REMARK    3  A    between atoms: C_9  and  N_10
REMARK    4  A    between atoms: C_12  and  C_13
REMARK    5  A    between atoms: N_15  and  C_16
REMARK    6  A    between atoms: C_18  and  C_19
REMARK    7  A    between atoms: C_24  and  C_25
REMARK                            x       y       z     vdW  Elec       q    Type
REMARK                         _______ _______ _______ _____ _____    ______ ____
ROOT
ATOM      1  C   UNL     1       1.796   8.735  18.514  0.00  0.00    +0.000 C 
ATOM      2  O   UNL     1       1.662   8.369  19.680  0.00  0.00    +0.000 OA
ATOM      3  N   UNL     1       2.605   8.118  17.569  0.00  0.00    +0.000 N 
ATOM      4  H   UNL     1       2.786   8.611  16.703  0.00  0.00    +0.000 HD
ENDROOT
BRANCH   1   7
ATOM      5  N   UNL     1       0.243  11.009  19.978  0.00  0.00    +0.000 N 
ATOM      6  C   UNL     1      -0.209  10.231  18.851  0.00  0.00    +0.000 C 
ATOM      7  C   UNL     1       1.062   9.996  18.067  0.00  0.00    +0.000 C 
ATOM      8  C   UNL     1       1.868  11.268  18.290  0.00  0.00    +0.000 C 
ATOM      9  C   UNL     1       1.410  11.719  19.657  0.00  0.00    +0.000 C 
ATOM     10  O   UNL     1       2.021  12.509  20.356  0.00  0.00    +0.000 OA
BRANCH   5  19
ATOM     11  C   UNL     1      -1.795  13.127  19.681  0.00  0.00    +0.000 C 
ATOM     12  C   UNL     1      -1.575  12.340  20.940  0.00  0.00    +0.000 A 
ATOM     13  C   UNL     1      -2.447  12.609  22.004  0.00  0.00    +0.000 A 
ATOM     14  C   UNL     1      -2.375  11.873  23.171  0.00  0.00    +0.000 A 
ATOM     15  F   UNL     1      -3.223  12.142  24.172  0.00  0.00    +0.000 F 
ATOM     16  C   UNL     1      -1.438  10.862  23.315  0.00  0.00    +0.000 A 
ATOM     17  C   UNL     1      -0.538  10.565  22.275  0.00  0.00    +0.000 A 
ATOM     18  C   UNL     1       0.501   9.509  22.545  0.00  0.00    +0.000 C 
ATOM     19  C   UNL     1      -0.615  11.300  21.066  0.00  0.00    +0.000 A 
ENDBRANCH   5  19
ENDBRANCH   1   7
BRANCH   3  20
ATOM     20  C   UNL     1       3.321   6.908  17.750  0.00  0.00    +0.000 A 
ATOM     21  C   UNL     1       2.670   5.707  17.984  0.00  0.00    +0.000 A 
ATOM     22  C   UNL     1       3.372   4.503  18.147  0.00  0.00    +0.000 A 
ATOM     23  C   UNL     1       4.772   4.523  18.093  0.00  0.00    +0.000 A 
ATOM     24  C   UNL     1       5.463   5.718  17.855  0.00  0.00    +0.000 A 
ATOM     25  C   UNL     1       4.721   6.903  17.657  0.00  0.00    +0.000 A 
BRANCH  22  26
ATOM     26  C   UNL     1       2.620   3.211  18.351  0.00  0.00    +0.000 C 
ATOM     27  F   UNL     1       1.266   3.348  18.285  0.00  0.00    +0.000 F 
ATOM     28  F   UNL     1       2.944   2.279  17.415  0.00  0.00    +0.000 F 
ATOM     29  F   UNL     1       2.882   2.644  19.558  0.00  0.00    +0.000 F 
ENDBRANCH  22  26
BRANCH  24  30
ATOM     30  C   UNL     1       6.975   5.739  17.812  0.00  0.00    +0.000 C 
ATOM     31  F   UNL     1       7.528   4.517  17.573  0.00  0.00    +0.000 F 
ATOM     32  F   UNL     1       7.461   6.564  16.846  0.00  0.00    +0.000 F 
ATOM     33  F   UNL     1       7.522   6.171  18.983  0.00  0.00    +0.000 F 
ENDBRANCH  24  30
ENDBRANCH   3  20
TORSDOF 5
ENDMDL
MODEL 7
REMARK VINA RESULT:      -8.6      2.845      4.884
REMARK  Name = 
REMARK  7 active torsions:
REMARK  status: ('A' for Active; 'I' for Inactive)
REMARK    1  A    between atoms: C_1  and  C_2
REMARK    2  A    between atoms: C_7  and  C_8
REMARK    3  A    between atoms: C_9  and  N_10
REMARK    4  A    between atoms: C_12  and  C_13
REMARK    5  A    between atoms: N_15  and  C_16
REMARK    6  A    between atoms: C_18  and  C_19
REMARK    7  A    between atoms: C_24  and  C_25
REMARK                            x       y       z     vdW  Elec       q    Type
REMARK                         _______ _______ _______ _____ _____    ______ ____
ROOT
ATOM      1  C   UNL     1       0.454   8.286  21.567  0.00  0.00    +0.000 C 
ATOM      2  O   UNL     1      -0.581   7.671  21.316  0.00  0.00    +0.000 OA
ATOM      3  N   UNL     1       1.735   7.870  21.227  0.00  0.00    +0.000 N 
ATOM      4  H   UNL     1       2.519   8.354  21.647  0.00  0.00    +0.000 HD
ENDROOT
BRANCH   1   7
ATOM      5  N   UNL     1       0.605  11.317  20.851  0.00  0.00    +0.000 N 
ATOM      6  C   UNL     1       1.331  10.631  21.892  0.00  0.00    +0.000 C 
ATOM      7  C   UNL     1       0.344   9.585  22.360  0.00  0.00    +0.000 C 
ATOM      8  C   UNL     1      -1.008  10.266  22.210  0.00  0.00    +0.000 C 
ATOM      9  C   UNL     1      -0.779  11.215  21.057  0.00  0.00    +0.000 C 
ATOM     10  O   UNL     1      -1.673  11.722  20.402  0.00  0.00    +0.000 OA
BRANCH   5  19
ATOM     11  C   UNL     1       1.751  10.446  18.271  0.00  0.00    +0.000 C 
ATOM     12  C   UNL     1       1.818  11.853  18.792  0.00  0.00    +0.000 A 
ATOM     13  C   UNL     1       2.417  12.800  17.950  0.00  0.00    +0.000 A 
ATOM     14  C   UNL     1       2.446  14.135  18.307  0.00  0.00    +0.000 A 
ATOM     15  F   UNL     1       3.016  15.024  17.485  0.00  0.00    +0.000 F 
ATOM     16  C   UNL     1       1.893  14.560  19.504  0.00  0.00    +0.000 A 
ATOM     17  C   UNL     1       1.290  13.640  20.382  0.00  0.00    +0.000 A 
ATOM     18  C   UNL     1       0.788  14.173  21.698  0.00  0.00    +0.000 C 
ATOM     19  C   UNL     1       1.236  12.272  20.018  0.00  0.00    +0.000 A 
ENDBRANCH   5  19
ENDBRANCH   1   7
BRANCH   3  20
ATOM     20  C   UNL     1       2.059   6.735  20.442  0.00  0.00    +0.000 A 
ATOM     21  C   UNL     1       1.542   5.481  20.727  0.00  0.00    +0.000 A 
ATOM     22  C   UNL     1       1.845   4.359  19.944  0.00  0.00    +0.000 A 
ATOM     23  C   UNL     1       2.714   4.507  18.855  0.00  0.00    +0.000 A 
ATOM     24  C   UNL     1       3.254   5.760  18.534  0.00  0.00    +0.000 A 
ATOM     25  C   UNL     1       2.894   6.874  19.323  0.00  0.00    +0.000 A 
BRANCH  22  26
ATOM     26  C   UNL     1       1.220   3.023  20.263  0.00  0.00    +0.000 C 
ATOM     27  F   UNL     1       0.798   2.909  21.553  0.00  0.00    +0.000 F 
ATOM     28  F   UNL     1       0.127   2.774  19.492  0.00  0.00    +0.000 F 
ATOM     29  F   UNL     1       2.075   1.987  20.055  0.00  0.00    +0.000 F 
ENDBRANCH  22  26
BRANCH  24  30
ATOM     30  C   UNL     1       4.203   5.915  17.367  0.00  0.00    +0.000 C 
ATOM     31  F   UNL     1       4.142   4.885  16.477  0.00  0.00    +0.000 F 
ATOM     32  F   UNL     1       3.970   7.045  16.648  0.00  0.00    +0.000 F 
ATOM     33  F   UNL     1       5.505   5.986  17.763  0.00  0.00    +0.000 F 
ENDBRANCH  24  30
ENDBRANCH   3  20
TORSDOF 5
ENDMDL
MODEL 8
REMARK VINA RESULT:      -8.6      2.849      4.146
REMARK  Name = 
REMARK  7 active torsions:
REMARK  status: ('A' for Active; 'I' for Inactive)
REMARK    1  A    between atoms: C_1  and  C_2
REMARK    2  A    between atoms: C_7  and  C_8
REMARK    3  A    between atoms: C_9  and  N_10
REMARK    4  A    between atoms: C_12  and  C_13
REMARK    5  A    between atoms: N_15  and  C_16
REMARK    6  A    between atoms: C_18  and  C_19
REMARK    7  A    between atoms: C_24  and  C_25
REMARK                            x       y       z     vdW  Elec       q    Type
REMARK                         _______ _______ _______ _____ _____    ______ ____
ROOT
ATOM      1  C   UNL     1       0.435   8.313  21.537  0.00  0.00    +0.000 C 
ATOM      2  O   UNL     1      -0.599   7.699  21.280  0.00  0.00    +0.000 OA
ATOM      3  N   UNL     1       1.716   7.901  21.193  0.00  0.00    +0.000 N 
ATOM      4  H   UNL     1       2.500   8.382  21.618  0.00  0.00    +0.000 HD
ENDROOT
BRANCH   1   7
ATOM      5  N   UNL     1       0.591  11.350  20.850  0.00  0.00    +0.000 N 
ATOM      6  C   UNL     1       1.312  10.653  21.887  0.00  0.00    +0.000 C 
ATOM      7  C   UNL     1       0.324   9.604  22.341  0.00  0.00    +0.000 C 
ATOM      8  C   UNL     1      -1.028  10.287  22.193  0.00  0.00    +0.000 C 
ATOM      9  C   UNL     1      -0.794  11.248  21.051  0.00  0.00    +0.000 C 
ATOM     10  O   UNL     1      -1.685  11.761  20.397  0.00  0.00    +0.000 OA
BRANCH   5  19
ATOM     11  C   UNL     1       1.722  10.508  18.254  0.00  0.00    +0.000 C 
ATOM     12  C   UNL     1       1.801  11.907  18.794  0.00  0.00    +0.000 A 
ATOM     13  C   UNL     1       2.403  12.862  17.963  0.00  0.00    +0.000 A 
ATOM     14  C   UNL     1       2.442  14.191  18.339  0.00  0.00    +0.000 A 
ATOM     15  F   UNL     1       3.016  15.088  17.528  0.00  0.00    +0.000 F 
ATOM     16  C   UNL     1       1.896  14.603  19.545  0.00  0.00    +0.000 A 
ATOM     17  C   UNL     1       1.290  13.675  20.412  0.00  0.00    +0.000 A 
ATOM     18  C   UNL     1       0.797  14.193  21.737  0.00  0.00    +0.000 C 
ATOM     19  C   UNL     1       1.226  12.313  20.028  0.00  0.00    +0.000 A 
ENDBRANCH   5  19
ENDBRANCH   1   7
BRANCH   3  20
ATOM     20  C   UNL     1       2.042   6.774  20.398  0.00  0.00    +0.000 A 
ATOM     21  C   UNL     1       2.894   6.873  19.310  0.00  0.00    +0.000 A 
ATOM     22  C   UNL     1       3.234   5.758  18.530  0.00  0.00    +0.000 A 
ATOM     23  C   UNL     1       2.677   4.513  18.849  0.00  0.00    +0.000 A 
ATOM     24  C   UNL     1       1.815   4.374  19.945  0.00  0.00    +0.000 A 
ATOM     25  C   UNL     1       1.527   5.511  20.730  0.00  0.00    +0.000 A 
BRANCH  22  26
ATOM     26  C   UNL     1       4.204   5.905  17.383  0.00  0.00    +0.000 C 
ATOM     27  F   UNL     1       5.510   5.926  17.769  0.00  0.00    +0.000 F 
ATOM     28  F   UNL     1       4.097   4.883  16.491  0.00  0.00    +0.000 F 
ATOM     29  F   UNL     1       4.003   7.048  16.676  0.00  0.00    +0.000 F 
ENDBRANCH  22  26
BRANCH  24  30
ATOM     30  C   UNL     1       1.203   3.031  20.279  0.00  0.00    +0.000 C 
ATOM     31  F   UNL     1       0.922   2.877  21.603  0.00  0.00    +0.000 F 
ATOM     32  F   UNL     1       0.033   2.811  19.621  0.00  0.00    +0.000 F 
ATOM     33  F   UNL     1       2.020   1.992  19.949  0.00  0.00    +0.000 F 
ENDBRANCH  24  30
ENDBRANCH   3  20
TORSDOF 5
ENDMDL
MODEL 9
REMARK VINA RESULT:      -8.6      1.402      1.779
REMARK  Name = 
REMARK  7 active torsions:
REMARK  status: ('A' for Active; 'I' for Inactive)
REMARK    1  A    between atoms: C_1  and  C_2
REMARK    2  A    between atoms: C_7  and  C_8
REMARK    3  A    between atoms: C_9  and  N_10
REMARK    4  A    between atoms: C_12  and  C_13
REMARK    5  A    between atoms: N_15  and  C_16
REMARK    6  A    between atoms: C_18  and  C_19
REMARK    7  A    between atoms: C_24  and  C_25
REMARK                            x       y       z     vdW  Elec       q    Type
REMARK                         _______ _______ _______ _____ _____    ______ ____
ROOT
ATOM      1  C   UNL     1       1.565   8.874  18.916  0.00  0.00    +0.000 C 
ATOM      2  O   UNL     1       1.479   8.623  20.116  0.00  0.00    +0.000 OA
ATOM      3  N   UNL     1       2.212   8.082  17.977  0.00  0.00    +0.000 N 
ATOM      4  H   UNL     1       2.386   8.476  17.060  0.00  0.00    +0.000 HD
ENDROOT
BRANCH   1   7
ATOM      5  N   UNL     1       0.037  11.249  20.239  0.00  0.00    +0.000 N 
ATOM      6  C   UNL     1      -0.357  10.503  19.068  0.00  0.00    +0.000 C 
ATOM      7  C   UNL     1       0.966  10.183  18.410  0.00  0.00    +0.000 C 
ATOM      8  C   UNL     1       1.830  11.397  18.718  0.00  0.00    +0.000 C 
ATOM      9  C   UNL     1       1.274  11.877  20.038  0.00  0.00    +0.000 C 
ATOM     10  O   UNL     1       1.867  12.623  20.797  0.00  0.00    +0.000 OA
BRANCH   5  19
ATOM     11  C   UNL     1       0.003   9.728  22.772  0.00  0.00    +0.000 C 
ATOM     12  C   UNL     1      -0.944  10.848  22.448  0.00  0.00    +0.000 A 
ATOM     13  C   UNL     1      -1.849  11.209  23.455  0.00  0.00    +0.000 A 
ATOM     14  C   UNL     1      -2.700  12.284  23.279  0.00  0.00    +0.000 A 
ATOM     15  F   UNL     1      -3.552  12.617  24.257  0.00  0.00    +0.000 F 
ATOM     16  C   UNL     1      -2.678  13.020  22.104  0.00  0.00    +0.000 A 
ATOM     17  C   UNL     1      -1.791  12.685  21.065  0.00  0.00    +0.000 A 
ATOM     18  C   UNL     1      -1.891  13.483  19.792  0.00  0.00    +0.000 C 
ATOM     19  C   UNL     1      -0.901  11.597  21.241  0.00  0.00    +0.000 A 
ENDBRANCH   5  19
ENDBRANCH   1   7
BRANCH   3  20
ATOM     20  C   UNL     1       2.779   6.805  18.216  0.00  0.00    +0.000 A 
ATOM     21  C   UNL     1       3.917   6.377  17.549  0.00  0.00    +0.000 A 
ATOM     22  C   UNL     1       4.492   5.122  17.795  0.00  0.00    +0.000 A 
ATOM     23  C   UNL     1       3.885   4.269  18.725  0.00  0.00    +0.000 A 
ATOM     24  C   UNL     1       2.737   4.669  19.422  0.00  0.00    +0.000 A 
ATOM     25  C   UNL     1       2.209   5.955  19.176  0.00  0.00    +0.000 A 
BRANCH  22  26
ATOM     26  C   UNL     1       5.758   4.718  17.080  0.00  0.00    +0.000 C 
ATOM     27  F   UNL     1       6.232   5.667  16.226  0.00  0.00    +0.000 F 
ATOM     28  F   UNL     1       6.773   4.460  17.949  0.00  0.00    +0.000 F 
ATOM     29  F   UNL     1       5.598   3.591  16.338  0.00  0.00    +0.000 F 
ENDBRANCH  22  26
BRANCH  24  30
ATOM     30  C   UNL     1       2.075   3.740  20.416  0.00  0.00    +0.000 C 
ATOM     31  F   UNL     1       2.346   4.052  21.714  0.00  0.00    +0.000 F 
ATOM     32  F   UNL     1       0.719   3.737  20.307  0.00  0.00    +0.000 F 
ATOM     33  F   UNL     1       2.466   2.445  20.257  0.00  0.00    +0.000 F 
ENDBRANCH  24  30
ENDBRANCH   3  20
TORSDOF 5
ENDMDL
