MODEL 1
REMARK VINA RESULT:      -7.9      0.000      0.000
REMARK  Name = 
REMARK  5 active torsions:
REMARK  status: ('A' for Active; 'I' for Inactive)
REMARK    1  A    between atoms: C_2  and  C_3
REMARK    2  A    between atoms: C_3  and  N_4
REMARK    3  A    between atoms: C_5  and  C_7
REMARK    4  A    between atoms: N_13  and  N_14
REMARK    5  A    between atoms: C_15  and  C_16
REMARK                            x       y       z     vdW  Elec       q    Type
REMARK                         _______ _______ _______ _____ _____    ______ ____
ROOT
ATOM      1  O   UNL     1       7.953   6.114  18.933  0.00  0.00    +0.000 OA
ATOM      2  C   UNL     1       7.345   6.557  17.958  0.00  0.00    +0.000 C 
ATOM      3  N   UNL     1       7.526   7.816  17.399  0.00  0.00    +0.000 N 
ATOM      4  H   UNL     1       7.136   8.021  16.480  0.00  0.00    +0.000 HD
ENDROOT
BRANCH   3   5
ATOM      5  N   UNL     1       8.392   8.688  17.989  0.00  0.00    +0.000 NA
ATOM      6  C   UNL     1       8.093   9.946  17.905  0.00  0.00    +0.000 C 
BRANCH   6   7
ATOM      7  C   UNL     1       8.978  10.982  18.493  0.00  0.00    +0.000 A 
ATOM      8  C   UNL     1       9.947  10.591  19.430  0.00  0.00    +0.000 A 
ATOM      9  C   UNL     1      10.809  11.532  19.998  0.00  0.00    +0.000 A 
ATOM     10  C   UNL     1      10.713  12.872  19.635  0.00  0.00    +0.000 A 
ATOM     11  C   UNL     1       9.750  13.272  18.706  0.00  0.00    +0.000 A 
ATOM     12  C   UNL     1       8.882  12.333  18.134  0.00  0.00    +0.000 A 
ATOM     13 CL   UNL     1       7.718  12.924  17.000  0.00  0.00    +0.000 Cl
ENDBRANCH   6   7
ENDBRANCH   3   5
BRANCH   2  14
ATOM     14  C   UNL     1       6.342   5.697  17.197  0.00  0.00    +0.000 C 
BRANCH  14  15
ATOM     15  N   UNL     1       5.235   5.302  18.047  0.00  0.00    +0.000 N 
ATOM     16  C   UNL     1       4.238   4.476  17.577  0.00  0.00    +0.000 C 
ATOM     17  O   UNL     1       4.263   4.003  16.445  0.00  0.00    +0.000 OA
ATOM     18  H   UNL     1       5.228   5.649  18.996  0.00  0.00    +0.000 HD
BRANCH  16  19
ATOM     19  C   UNL     1       3.092   4.214  18.494  0.00  0.00    +0.000 A 
ATOM     20  C   UNL     1       2.220   3.162  18.178  0.00  0.00    +0.000 A 
ATOM     21  C   UNL     1       1.111   2.896  18.984  0.00  0.00    +0.000 A 
ATOM     22  C   UNL     1       0.870   3.673  20.116  0.00  0.00    +0.000 A 
ATOM     23  C   UNL     1       1.743   4.708  20.449  0.00  0.00    +0.000 A 
ATOM     24  C   UNL     1       2.854   4.979  19.644  0.00  0.00    +0.000 A 
ENDBRANCH  16  19
ENDBRANCH  14  15
ENDBRANCH   2  14
TORSDOF 5
ENDMDL
MODEL 2
REMARK VINA RESULT:      -7.8      1.433      1.919
REMARK  Name = 
REMARK  5 active torsions:
REMARK  status: ('A' for Active; 'I' for Inactive)
REMARK    1  A    between atoms: C_2  and  C_3
REMARK    2  A    between atoms: C_3  and  N_4
REMARK    3  A    between atoms: C_5  and  C_7
REMARK    4  A    between atoms: N_13  and  N_14
REMARK    5  A    between atoms: C_15  and  C_16
REMARK                            x       y       z     vdW  Elec       q    Type
REMARK                         _______ _______ _______ _____ _____    ______ ____
ROOT
ATOM      1  O   UNL     1       7.882   6.409  17.942  0.00  0.00    +0.000 OA
ATOM      2  C   UNL     1       7.112   7.248  17.475  0.00  0.00    +0.000 C 
ATOM      3  N   UNL     1       7.326   8.621  17.462  0.00  0.00    +0.000 N 
ATOM      4  H   UNL     1       6.742   9.218  16.878  0.00  0.00    +0.000 HD
ENDROOT
BRANCH   3   5
ATOM      5  N   UNL     1       8.440   9.126  18.065  0.00  0.00    +0.000 NA
ATOM      6  C   UNL     1       8.602  10.410  17.997  0.00  0.00    +0.000 C 
BRANCH   6   7
ATOM      7  C   UNL     1       9.790  11.062  18.600  0.00  0.00    +0.000 A 
ATOM      8  C   UNL     1      10.799  11.547  17.753  0.00  0.00    +0.000 A 
ATOM      9  C   UNL     1      11.928  12.179  18.279  0.00  0.00    +0.000 A 
ATOM     10  C   UNL     1      12.061  12.334  19.656  0.00  0.00    +0.000 A 
ATOM     11  C   UNL     1      11.065  11.851  20.508  0.00  0.00    +0.000 A 
ATOM     12  C   UNL     1       9.930  11.215  19.986  0.00  0.00    +0.000 A 
ATOM     13 CL   UNL     1       8.756  10.645  21.119  0.00  0.00    +0.000 Cl
ENDBRANCH   6   7
ENDBRANCH   3   5
BRANCH   2  14
ATOM     14  C   UNL     1       5.824   6.832  16.772  0.00  0.00    +0.000 C 
BRANCH  14  15
ATOM     15  N   UNL     1       4.830   6.370  17.722  0.00  0.00    +0.000 N 
ATOM     16  C   UNL     1       4.138   5.198  17.513  0.00  0.00    +0.000 C 
ATOM     17  O   UNL     1       4.359   4.473  16.549  0.00  0.00    +0.000 OA
ATOM     18  H   UNL     1       4.673   6.936  18.545  0.00  0.00    +0.000 HD
BRANCH  16  19
ATOM     19  C   UNL     1       3.065   4.866  18.495  0.00  0.00    +0.000 A 
ATOM     20  C   UNL     1       3.054   5.550  19.719  0.00  0.00    +0.000 A 
ATOM     21  C   UNL     1       2.092   5.252  20.687  0.00  0.00    +0.000 A 
ATOM     22  C   UNL     1       1.129   4.276  20.435  0.00  0.00    +0.000 A 
ATOM     23  C   UNL     1       1.121   3.605  19.213  0.00  0.00    +0.000 A 
ATOM     24  C   UNL     1       2.083   3.899  18.241  0.00  0.00    +0.000 A 
ENDBRANCH  16  19
ENDBRANCH  14  15
ENDBRANCH   2  14
TORSDOF 5
ENDMDL
MODEL 3
REMARK VINA RESULT:      -7.7      1.435      1.629
REMARK  Name = 
REMARK  5 active torsions:
REMARK  status: ('A' for Active; 'I' for Inactive)
REMARK    1  A    between atoms: C_2  and  C_3
REMARK    2  A    between atoms: C_3  and  N_4
REMARK    3  A    between atoms: C_5  and  C_7
REMARK    4  A    between atoms: N_13  and  N_14
REMARK    5  A    between atoms: C_15  and  C_16
REMARK                            x       y       z     vdW  Elec       q    Type
REMARK                         _______ _______ _______ _____ _____    ______ ____
ROOT
ATOM      1  O   UNL     1       7.992   6.317  17.746  0.00  0.00    +0.000 OA
ATOM      2  C   UNL     1       7.144   7.147  17.418  0.00  0.00    +0.000 C 
ATOM      3  N   UNL     1       7.280   8.525  17.528  0.00  0.00    +0.000 N 
ATOM      4  H   UNL     1       6.622   9.137  17.047  0.00  0.00    +0.000 HD
ENDROOT
BRANCH   3   5
ATOM      5  N   UNL     1       8.405   9.039  18.103  0.00  0.00    +0.000 NA
ATOM      6  C   UNL     1       8.543  10.327  18.051  0.00  0.00    +0.000 C 
BRANCH   6   7
ATOM      7  C   UNL     1       9.740  10.989  18.625  0.00  0.00    +0.000 A 
ATOM      8  C   UNL     1      10.717  11.495  17.754  0.00  0.00    +0.000 A 
ATOM      9  C   UNL     1      11.852  12.137  18.253  0.00  0.00    +0.000 A 
ATOM     10  C   UNL     1      12.023  12.282  19.627  0.00  0.00    +0.000 A 
ATOM     11  C   UNL     1      11.059  11.779  20.503  0.00  0.00    +0.000 A 
ATOM     12  C   UNL     1       9.918  11.133  20.008  0.00  0.00    +0.000 A 
ATOM     13 CL   UNL     1       8.784  10.538  21.169  0.00  0.00    +0.000 Cl
ENDBRANCH   6   7
ENDBRANCH   3   5
BRANCH   2  14
ATOM     14  C   UNL     1       5.834   6.720  16.765  0.00  0.00    +0.000 C 
BRANCH  14  15
ATOM     15  N   UNL     1       4.860   6.308  17.758  0.00  0.00    +0.000 N 
ATOM     16  C   UNL     1       4.107   5.168  17.584  0.00  0.00    +0.000 C 
ATOM     17  O   UNL     1       4.255   4.430  16.616  0.00  0.00    +0.000 OA
ATOM     18  H   UNL     1       4.762   6.884  18.582  0.00  0.00    +0.000 HD
BRANCH  16  19
ATOM     19  C   UNL     1       3.061   4.889  18.610  0.00  0.00    +0.000 A 
ATOM     20  C   UNL     1       2.205   3.798  18.401  0.00  0.00    +0.000 A 
ATOM     21  C   UNL     1       1.186   3.513  19.313  0.00  0.00    +0.000 A 
ATOM     22  C   UNL     1       1.021   4.311  20.444  0.00  0.00    +0.000 A 
ATOM     23  C   UNL     1       1.880   5.386  20.670  0.00  0.00    +0.000 A 
ATOM     24  C   UNL     1       2.901   5.676  19.759  0.00  0.00    +0.000 A 
ENDBRANCH  16  19
ENDBRANCH  14  15
ENDBRANCH   2  14
TORSDOF 5
ENDMDL
MODEL 4
REMARK VINA RESULT:      -7.7      1.298      1.652
REMARK  Name = 
REMARK  5 active torsions:
REMARK  status: ('A' for Active; 'I' for Inactive)
REMARK    1  A    between atoms: C_2  and  C_3
REMARK    2  A    between atoms: C_3  and  N_4
REMARK    3  A    between atoms: C_5  and  C_7
REMARK    4  A    between atoms: N_13  and  N_14
REMARK    5  A    between atoms: C_15  and  C_16
REMARK                            x       y       z     vdW  Elec       q    Type
REMARK                         _______ _______ _______ _____ _____    ______ ____
ROOT
ATOM      1  O   UNL     1       7.923   6.332  18.869  0.00  0.00    +0.000 OA
ATOM      2  C   UNL     1       7.566   6.918  17.847  0.00  0.00    +0.000 C 
ATOM      3  N   UNL     1       7.867   8.236  17.526  0.00  0.00    +0.000 N 
ATOM      4  H   UNL     1       7.710   8.573  16.577  0.00  0.00    +0.000 HD
ENDROOT
BRANCH   3   5
ATOM      5  N   UNL     1       8.560   8.997  18.421  0.00  0.00    +0.000 NA
ATOM      6  C   UNL     1       8.659  10.261  18.150  0.00  0.00    +0.000 C 
BRANCH   6   7
ATOM      7  C   UNL     1       9.409  11.176  19.045  0.00  0.00    +0.000 A 
ATOM      8  C   UNL     1       9.278  11.023  20.434  0.00  0.00    +0.000 A 
ATOM      9  C   UNL     1       9.977  11.854  21.311  0.00  0.00    +0.000 A 
ATOM     10  C   UNL     1      10.815  12.847  20.810  0.00  0.00    +0.000 A 
ATOM     11  C   UNL     1      10.949  13.011  19.430  0.00  0.00    +0.000 A 
ATOM     12  C   UNL     1      10.249  12.180  18.545  0.00  0.00    +0.000 A 
ATOM     13 CL   UNL     1      10.474  12.464  16.855  0.00  0.00    +0.000 Cl
ENDBRANCH   6   7
ENDBRANCH   3   5
BRANCH   2  14
ATOM     14  C   UNL     1       6.782   6.196  16.757  0.00  0.00    +0.000 C 
BRANCH  14  15
ATOM     15  N   UNL     1       5.593   5.562  17.294  0.00  0.00    +0.000 N 
ATOM     16  C   UNL     1       5.157   4.347  16.815  0.00  0.00    +0.000 C 
ATOM     17  O   UNL     1       5.772   3.728  15.952  0.00  0.00    +0.000 OA
ATOM     18  H   UNL     1       5.104   6.042  18.038  0.00  0.00    +0.000 HD
BRANCH  16  19
ATOM     19  C   UNL     1       3.868   3.831  17.359  0.00  0.00    +0.000 A 
ATOM     20  C   UNL     1       2.826   4.746  17.569  0.00  0.00    +0.000 A 
ATOM     21  C   UNL     1       1.610   4.322  18.110  0.00  0.00    +0.000 A 
ATOM     22  C   UNL     1       1.424   2.979  18.436  0.00  0.00    +0.000 A 
ATOM     23  C   UNL     1       2.447   2.059  18.212  0.00  0.00    +0.000 A 
ATOM     24  C   UNL     1       3.667   2.480  17.672  0.00  0.00    +0.000 A 
ENDBRANCH  16  19
ENDBRANCH  14  15
ENDBRANCH   2  14
TORSDOF 5
ENDMDL
MODEL 5
REMARK VINA RESULT:      -7.7      3.154      4.637
REMARK  Name = 
REMARK  5 active torsions:
REMARK  status: ('A' for Active; 'I' for Inactive)
REMARK    1  A    between atoms: C_2  and  C_3
REMARK    2  A    between atoms: C_3  and  N_4
REMARK    3  A    between atoms: C_5  and  C_7
REMARK    4  A    between atoms: N_13  and  N_14
REMARK    5  A    between atoms: C_15  and  C_16
REMARK                            x       y       z     vdW  Elec       q    Type
REMARK                         _______ _______ _______ _____ _____    ______ ____
ROOT
ATOM      1  O   UNL     1       8.123   6.462  18.756  0.00  0.00    +0.000 OA
ATOM      2  C   UNL     1       7.379   7.179  18.086  0.00  0.00    +0.000 C 
ATOM      3  N   UNL     1       7.625   8.504  17.748  0.00  0.00    +0.000 N 
ATOM      4  H   UNL     1       7.063   8.954  17.026  0.00  0.00    +0.000 HD
ENDROOT
BRANCH   3   5
ATOM      5  N   UNL     1       8.743   9.117  18.232  0.00  0.00    +0.000 NA
ATOM      6  C   UNL     1       8.761  10.412  18.177  0.00  0.00    +0.000 C 
BRANCH   6   7
ATOM      7  C   UNL     1       9.937  11.179  18.656  0.00  0.00    +0.000 A 
ATOM      8  C   UNL     1      10.879  11.630  17.717  0.00  0.00    +0.000 A 
ATOM      9  C   UNL     1      11.993  12.367  18.124  0.00  0.00    +0.000 A 
ATOM     10  C   UNL     1      12.178  12.662  19.472  0.00  0.00    +0.000 A 
ATOM     11  C   UNL     1      11.250  12.215  20.414  0.00  0.00    +0.000 A 
ATOM     12  C   UNL     1      10.130  11.474  20.012  0.00  0.00    +0.000 A 
ATOM     13 CL   UNL     1       9.040  10.958  21.250  0.00  0.00    +0.000 Cl
ENDBRANCH   6   7
ENDBRANCH   3   5
BRANCH   2  14
ATOM     14  C   UNL     1       6.090   6.631  17.481  0.00  0.00    +0.000 C 
BRANCH  14  15
ATOM     15  N   UNL     1       6.297   6.182  16.118  0.00  0.00    +0.000 N 
ATOM     16  C   UNL     1       5.885   4.932  15.712  0.00  0.00    +0.000 C 
ATOM     17  O   UNL     1       5.289   4.166  16.462  0.00  0.00    +0.000 OA
ATOM     18  H   UNL     1       6.746   6.823  15.479  0.00  0.00    +0.000 HD
BRANCH  16  19
ATOM     19  C   UNL     1       6.238   4.526  14.321  0.00  0.00    +0.000 A 
ATOM     20  C   UNL     1       7.387   5.082  13.742  0.00  0.00    +0.000 A 
ATOM     21  C   UNL     1       7.744   4.761  12.430  0.00  0.00    +0.000 A 
ATOM     22  C   UNL     1       6.960   3.877  11.691  0.00  0.00    +0.000 A 
ATOM     23  C   UNL     1       5.826   3.304  12.266  0.00  0.00    +0.000 A 
ATOM     24  C   UNL     1       5.465   3.623  13.579  0.00  0.00    +0.000 A 
ENDBRANCH  16  19
ENDBRANCH  14  15
ENDBRANCH   2  14
TORSDOF 5
ENDMDL
MODEL 6
REMARK VINA RESULT:      -7.7      1.709      1.971
REMARK  Name = 
REMARK  5 active torsions:
REMARK  status: ('A' for Active; 'I' for Inactive)
REMARK    1  A    between atoms: C_2  and  C_3
REMARK    2  A    between atoms: C_3  and  N_4
REMARK    3  A    between atoms: C_5  and  C_7
REMARK    4  A    between atoms: N_13  and  N_14
REMARK    5  A    between atoms: C_15  and  C_16
REMARK                            x       y       z     vdW  Elec       q    Type
REMARK                         _______ _______ _______ _____ _____    ______ ____
ROOT
ATOM      1  O   UNL     1       7.177   7.506  16.922  0.00  0.00    +0.000 OA
ATOM      2  C   UNL     1       7.767   7.144  17.940  0.00  0.00    +0.000 C 
ATOM      3  N   UNL     1       8.488   7.971  18.792  0.00  0.00    +0.000 N 
ATOM      4  H   UNL     1       8.766   7.630  19.711  0.00  0.00    +0.000 HD
ENDROOT
BRANCH   3   5
ATOM      5  N   UNL     1       8.633   9.289  18.474  0.00  0.00    +0.000 NA
ATOM      6  C   UNL     1       9.328  10.009  19.298  0.00  0.00    +0.000 C 
BRANCH   6   7
ATOM      7  C   UNL     1       9.530  11.459  19.060  0.00  0.00    +0.000 A 
ATOM      8  C   UNL     1       9.977  11.883  17.798  0.00  0.00    +0.000 A 
ATOM      9  C   UNL     1      10.167  13.239  17.528  0.00  0.00    +0.000 A 
ATOM     10  C   UNL     1       9.912  14.188  18.514  0.00  0.00    +0.000 A 
ATOM     11  C   UNL     1       9.471  13.778  19.774  0.00  0.00    +0.000 A 
ATOM     12  C   UNL     1       9.279  12.417  20.052  0.00  0.00    +0.000 A 
ATOM     13 CL   UNL     1       8.738  12.006  21.641  0.00  0.00    +0.000 Cl
ENDBRANCH   6   7
ENDBRANCH   3   5
BRANCH   2  14
ATOM     14  C   UNL     1       7.697   5.698  18.419  0.00  0.00    +0.000 C 
BRANCH  14  15
ATOM     15  N   UNL     1       6.347   5.334  18.805  0.00  0.00    +0.000 N 
ATOM     16  C   UNL     1       5.542   4.597  17.966  0.00  0.00    +0.000 C 
ATOM     17  O   UNL     1       5.939   4.178  16.883  0.00  0.00    +0.000 OA
ATOM     18  H   UNL     1       6.025   5.635  19.715  0.00  0.00    +0.000 HD
BRANCH  16  19
ATOM     19  C   UNL     1       4.137   4.366  18.411  0.00  0.00    +0.000 A 
ATOM     20  C   UNL     1       3.101   4.694  17.525  0.00  0.00    +0.000 A 
ATOM     21  C   UNL     1       1.767   4.530  17.904  0.00  0.00    +0.000 A 
ATOM     22  C   UNL     1       1.459   4.028  19.168  0.00  0.00    +0.000 A 
ATOM     23  C   UNL     1       2.483   3.680  20.048  0.00  0.00    +0.000 A 
ATOM     24  C   UNL     1       3.820   3.844  19.672  0.00  0.00    +0.000 A 
ENDBRANCH  16  19
ENDBRANCH  14  15
ENDBRANCH   2  14
TORSDOF 5
ENDMDL
MODEL 7
REMARK VINA RESULT:      -7.7      1.766      2.100
REMARK  Name = 
REMARK  5 active torsions:
REMARK  status: ('A' for Active; 'I' for Inactive)
REMARK    1  A    between atoms: C_2  and  C_3
REMARK    2  A    between atoms: C_3  and  N_4
REMARK    3  A    between atoms: C_5  and  C_7
REMARK    4  A    between atoms: N_13  and  N_14
REMARK    5  A    between atoms: C_15  and  C_16
REMARK                            x       y       z     vdW  Elec       q    Type
REMARK                         _______ _______ _______ _____ _____    ______ ____
ROOT
ATOM      1  O   UNL     1       6.775   7.304  17.122  0.00  0.00    +0.000 OA
ATOM      2  C   UNL     1       7.586   6.991  17.993  0.00  0.00    +0.000 C 
ATOM      3  N   UNL     1       8.470   7.859  18.621  0.00  0.00    +0.000 N 
ATOM      4  H   UNL     1       8.956   7.561  19.466  0.00  0.00    +0.000 HD
ENDROOT
BRANCH   3   5
ATOM      5  N   UNL     1       8.519   9.162  18.222  0.00  0.00    +0.000 NA
ATOM      6  C   UNL     1       9.115   9.990  19.023  0.00  0.00    +0.000 C 
BRANCH   6   7
ATOM      7  C   UNL     1       9.206  11.434  18.697  0.00  0.00    +0.000 A 
ATOM      8  C   UNL     1       8.319  11.972  17.751  0.00  0.00    +0.000 A 
ATOM      9  C   UNL     1       8.362  13.329  17.425  0.00  0.00    +0.000 A 
ATOM     10  C   UNL     1       9.290  14.163  18.042  0.00  0.00    +0.000 A 
ATOM     11  C   UNL     1      10.179  13.638  18.981  0.00  0.00    +0.000 A 
ATOM     12  C   UNL     1      10.141  12.277  19.312  0.00  0.00    +0.000 A 
ATOM     13 CL   UNL     1      11.286  11.718  20.480  0.00  0.00    +0.000 Cl
ENDBRANCH   6   7
ENDBRANCH   3   5
BRANCH   2  14
ATOM     14  C   UNL     1       7.650   5.567  18.537  0.00  0.00    +0.000 C 
BRANCH  14  15
ATOM     15  N   UNL     1       6.440   5.225  19.260  0.00  0.00    +0.000 N 
ATOM     16  C   UNL     1       5.400   4.573  18.637  0.00  0.00    +0.000 C 
ATOM     17  O   UNL     1       5.463   4.215  17.465  0.00  0.00    +0.000 OA
ATOM     18  H   UNL     1       6.396   5.474  20.239  0.00  0.00    +0.000 HD
BRANCH  16  19
ATOM     19  C   UNL     1       4.161   4.360  19.439  0.00  0.00    +0.000 A 
ATOM     20  C   UNL     1       3.852   3.053  19.843  0.00  0.00    +0.000 A 
ATOM     21  C   UNL     1       2.686   2.793  20.567  0.00  0.00    +0.000 A 
ATOM     22  C   UNL     1       1.825   3.837  20.899  0.00  0.00    +0.000 A 
ATOM     23  C   UNL     1       2.134   5.143  20.519  0.00  0.00    +0.000 A 
ATOM     24  C   UNL     1       3.300   5.408  19.793  0.00  0.00    +0.000 A 
ENDBRANCH  16  19
ENDBRANCH  14  15
ENDBRANCH   2  14
TORSDOF 5
ENDMDL
MODEL 8
REMARK VINA RESULT:      -7.6      5.301      7.264
REMARK  Name = 
REMARK  5 active torsions:
REMARK  status: ('A' for Active; 'I' for Inactive)
REMARK    1  A    between atoms: C_2  and  C_3
REMARK    2  A    between atoms: C_3  and  N_4
REMARK    3  A    between atoms: C_5  and  C_7
REMARK    4  A    between atoms: N_13  and  N_14
REMARK    5  A    between atoms: C_15  and  C_16
REMARK                            x       y       z     vdW  Elec       q    Type
REMARK                         _______ _______ _______ _____ _____    ______ ____
ROOT
ATOM      1  O   UNL     1       0.860   3.925  19.963  0.00  0.00    +0.000 OA
ATOM      2  C   UNL     1       2.041   4.208  20.164  0.00  0.00    +0.000 C 
ATOM      3  N   UNL     1       2.510   5.432  20.627  0.00  0.00    +0.000 N 
ATOM      4  H   UNL     1       3.470   5.512  20.959  0.00  0.00    +0.000 HD
ENDROOT
BRANCH   3   5
ATOM      5  N   UNL     1       1.625   6.450  20.826  0.00  0.00    +0.000 NA
ATOM      6  C   UNL     1       1.944   7.600  20.318  0.00  0.00    +0.000 C 
BRANCH   6   7
ATOM      7  C   UNL     1       1.064   8.781  20.494  0.00  0.00    +0.000 A 
ATOM      8  C   UNL     1       0.470   9.003  21.747  0.00  0.00    +0.000 A 
ATOM      9  C   UNL     1      -0.353  10.110  21.959  0.00  0.00    +0.000 A 
ATOM     10  C   UNL     1      -0.593  11.008  20.922  0.00  0.00    +0.000 A 
ATOM     11  C   UNL     1      -0.011  10.795  19.671  0.00  0.00    +0.000 A 
ATOM     12  C   UNL     1       0.817   9.685  19.452  0.00  0.00    +0.000 A 
ATOM     13 CL   UNL     1       1.486   9.501  17.869  0.00  0.00    +0.000 Cl
ENDBRANCH   6   7
ENDBRANCH   3   5
BRANCH   2  14
ATOM     14  C   UNL     1       3.144   3.171  19.980  0.00  0.00    +0.000 C 
BRANCH  14  15
ATOM     15  N   UNL     1       3.828   3.346  18.714  0.00  0.00    +0.000 N 
ATOM     16  C   UNL     1       4.993   4.075  18.631  0.00  0.00    +0.000 C 
ATOM     17  O   UNL     1       5.527   4.567  19.620  0.00  0.00    +0.000 OA
ATOM     18  H   UNL     1       3.422   2.907  17.899  0.00  0.00    +0.000 HD
BRANCH  16  19
ATOM     19  C   UNL     1       5.561   4.285  17.268  0.00  0.00    +0.000 A 
ATOM     20  C   UNL     1       6.918   4.624  17.163  0.00  0.00    +0.000 A 
ATOM     21  C   UNL     1       7.492   4.864  15.912  0.00  0.00    +0.000 A 
ATOM     22  C   UNL     1       6.717   4.760  14.758  0.00  0.00    +0.000 A 
ATOM     23  C   UNL     1       5.372   4.404  14.852  0.00  0.00    +0.000 A 
ATOM     24  C   UNL     1       4.793   4.163  16.102  0.00  0.00    +0.000 A 
ENDBRANCH  16  19
ENDBRANCH  14  15
ENDBRANCH   2  14
TORSDOF 5
ENDMDL
MODEL 9
REMARK VINA RESULT:      -7.5      2.068      2.531
REMARK  Name = 
REMARK  5 active torsions:
REMARK  status: ('A' for Active; 'I' for Inactive)
REMARK    1  A    between atoms: C_2  and  C_3
REMARK    2  A    between atoms: C_3  and  N_4
REMARK    3  A    between atoms: C_5  and  C_7
REMARK    4  A    between atoms: N_13  and  N_14
REMARK    5  A    between atoms: C_15  and  C_16
REMARK                            x       y       z     vdW  Elec       q    Type
REMARK                         _______ _______ _______ _____ _____    ______ ____
ROOT
ATOM      1  O   UNL     1       7.256   8.210  16.865  0.00  0.00    +0.000 OA
ATOM      2  C   UNL     1       7.816   7.828  17.893  0.00  0.00    +0.000 C 
ATOM      3  N   UNL     1       8.641   8.603  18.698  0.00  0.00    +0.000 N 
ATOM      4  H   UNL     1       8.892   8.274  19.629  0.00  0.00    +0.000 HD
ENDROOT
BRANCH   3   5
ATOM      5  N   UNL     1       8.930   9.881  18.318  0.00  0.00    +0.000 NA
ATOM      6  C   UNL     1       9.471  10.642  19.218  0.00  0.00    +0.000 C 
BRANCH   6   7
ATOM      7  C   UNL     1       9.806  12.056  18.918  0.00  0.00    +0.000 A 
ATOM      8  C   UNL     1       8.833  12.871  18.319  0.00  0.00    +0.000 A 
ATOM      9  C   UNL     1       9.103  14.210  18.032  0.00  0.00    +0.000 A 
ATOM     10  C   UNL     1      10.348  14.750  18.342  0.00  0.00    +0.000 A 
ATOM     11  C   UNL     1      11.325  13.948  18.934  0.00  0.00    +0.000 A 
ATOM     12  C   UNL     1      11.060  12.602  19.223  0.00  0.00    +0.000 A 
ATOM     13 CL   UNL     1      12.333  11.687  19.950  0.00  0.00    +0.000 Cl
ENDBRANCH   6   7
ENDBRANCH   3   5
BRANCH   2  14
ATOM     14  C   UNL     1       7.589   6.422  18.438  0.00  0.00    +0.000 C 
BRANCH  14  15
ATOM     15  N   UNL     1       6.242   5.960  18.161  0.00  0.00    +0.000 N 
ATOM     16  C   UNL     1       5.642   5.005  18.952  0.00  0.00    +0.000 C 
ATOM     17  O   UNL     1       6.193   4.539  19.944  0.00  0.00    +0.000 OA
ATOM     18  H   UNL     1       5.761   6.371  17.373  0.00  0.00    +0.000 HD
BRANCH  16  19
ATOM     19  C   UNL     1       4.298   4.522  18.522  0.00  0.00    +0.000 A 
ATOM     20  C   UNL     1       4.127   3.146  18.311  0.00  0.00    +0.000 A 
ATOM     21  C   UNL     1       2.899   2.645  17.875  0.00  0.00    +0.000 A 
ATOM     22  C   UNL     1       1.831   3.513  17.654  0.00  0.00    +0.000 A 
ATOM     23  C   UNL     1       1.986   4.880  17.880  0.00  0.00    +0.000 A 
ATOM     24  C   UNL     1       3.214   5.387  18.316  0.00  0.00    +0.000 A 
ENDBRANCH  16  19
ENDBRANCH  14  15
ENDBRANCH   2  14
TORSDOF 5
ENDMDL
