MODEL 1
REMARK VINA RESULT:      -7.7      0.000      0.000
REMARK  Name = 
REMARK  3 active torsions:
REMARK  status: ('A' for Active; 'I' for Inactive)
REMARK    1  A    between atoms: C_1  and  C_2
REMARK    2  A    between atoms: C_6  and  C_7
REMARK    3  A    between atoms: C_7  and  C_8
REMARK                            x       y       z     vdW  Elec       q    Type
REMARK                         _______ _______ _______ _____ _____    ______ ____
ROOT
ATOM      1  C   UNL     1       2.736   7.752  18.332  0.00  0.00    +0.000 A 
ATOM      2  C   UNL     1       2.019   8.845  17.856  0.00  0.00    +0.000 A 
ATOM      3  C   UNL     1       1.061   9.453  18.674  0.00  0.00    +0.000 A 
ATOM      4  C   UNL     1       0.824   8.985  19.966  0.00  0.00    +0.000 A 
ATOM      5  N   UNL     1      -0.175   9.509  20.762  0.00  0.00    +0.000 N 
ATOM      6  C   UNL     1      -0.598  10.913  20.702  0.00  0.00    +0.000 C 
ATOM      7  C   UNL     1      -0.157  11.671  21.967  0.00  0.00    +0.000 C 
ATOM      8  O   UNL     1      -0.595  11.013  23.166  0.00  0.00    +0.000 OA
ATOM      9  C   UNL     1      -0.042   9.687  23.227  0.00  0.00    +0.000 C 
ATOM     10  C   UNL     1      -0.501   8.839  22.033  0.00  0.00    +0.000 C 
ATOM     11  N   UNL     1       1.540   7.938  20.434  0.00  0.00    +0.000 NA
ATOM     12  C   UNL     1       2.460   7.353  19.629  0.00  0.00    +0.000 A 
ENDROOT
BRANCH   1  13
ATOM     13  C   UNL     1       3.769   7.049  17.494  0.00  0.00    +0.000 C 
BRANCH  13  19
ATOM     14  C   UNL     1       2.385   2.209  17.793  0.00  0.00    +0.000 C 
ATOM     15  C   UNL     1       3.354   3.309  18.086  0.00  0.00    +0.000 A 
ATOM     16  C   UNL     1       4.485   3.100  18.864  0.00  0.00    +0.000 A 
ATOM     17  N   UNL     1       5.374   4.065  19.185  0.00  0.00    +0.000 NA
ATOM     18  C   UNL     1       5.115   5.307  18.720  0.00  0.00    +0.000 A 
ATOM     19  C   UNL     1       4.019   5.633  17.929  0.00  0.00    +0.000 A 
ATOM     20  C   UNL     1       3.132   4.601  17.604  0.00  0.00    +0.000 A 
ENDBRANCH  13  19
ENDBRANCH   1  13
TORSDOF 2
ENDMDL
MODEL 2
REMARK VINA RESULT:      -7.6      2.199      2.595
REMARK  Name = 
REMARK  3 active torsions:
REMARK  status: ('A' for Active; 'I' for Inactive)
REMARK    1  A    between atoms: C_1  and  C_2
REMARK    2  A    between atoms: C_6  and  C_7
REMARK    3  A    between atoms: C_7  and  C_8
REMARK                            x       y       z     vdW  Elec       q    Type
REMARK                         _______ _______ _______ _____ _____    ______ ____
ROOT
ATOM      1  C   UNL     1       2.397   7.597  18.806  0.00  0.00    +0.000 A 
ATOM      2  C   UNL     1       2.224   8.507  17.768  0.00  0.00    +0.000 A 
ATOM      3  C   UNL     1       1.458   9.658  17.978  0.00  0.00    +0.000 A 
ATOM      4  C   UNL     1       0.876   9.913  19.219  0.00  0.00    +0.000 A 
ATOM      5  N   UNL     1       0.045  10.995  19.430  0.00  0.00    +0.000 N 
ATOM      6  C   UNL     1       0.198  12.275  18.727  0.00  0.00    +0.000 C 
ATOM      7  C   UNL     1       0.704  13.367  19.687  0.00  0.00    +0.000 C 
ATOM      8  O   UNL     1      -0.119  13.475  20.858  0.00  0.00    +0.000 OA
ATOM      9  C   UNL     1      -0.125  12.226  21.570  0.00  0.00    +0.000 C 
ATOM     10  C   UNL     1      -0.690  11.094  20.701  0.00  0.00    +0.000 C 
ATOM     11  N   UNL     1       1.068   9.039  20.233  0.00  0.00    +0.000 NA
ATOM     12  C   UNL     1       1.804   7.924  20.014  0.00  0.00    +0.000 A 
ENDROOT
BRANCH   1  13
ATOM     13  C   UNL     1       3.197   6.335  18.635  0.00  0.00    +0.000 C 
BRANCH  13  19
ATOM     14  C   UNL     1       1.489   2.653  21.629  0.00  0.00    +0.000 C 
ATOM     15  C   UNL     1       1.575   3.311  20.289  0.00  0.00    +0.000 A 
ATOM     16  C   UNL     1       0.997   2.747  19.159  0.00  0.00    +0.000 A 
ATOM     17  N   UNL     1       1.073   3.283  17.921  0.00  0.00    +0.000 NA
ATOM     18  C   UNL     1       1.773   4.431  17.799  0.00  0.00    +0.000 A 
ATOM     19  C   UNL     1       2.389   5.088  18.858  0.00  0.00    +0.000 A 
ATOM     20  C   UNL     1       2.272   4.510  20.127  0.00  0.00    +0.000 A 
ENDBRANCH  13  19
ENDBRANCH   1  13
TORSDOF 2
ENDMDL
MODEL 3
REMARK VINA RESULT:      -7.3      2.415      3.138
REMARK  Name = 
REMARK  3 active torsions:
REMARK  status: ('A' for Active; 'I' for Inactive)
REMARK    1  A    between atoms: C_1  and  C_2
REMARK    2  A    between atoms: C_6  and  C_7
REMARK    3  A    between atoms: C_7  and  C_8
REMARK                            x       y       z     vdW  Elec       q    Type
REMARK                         _______ _______ _______ _____ _____    ______ ____
ROOT
ATOM      1  C   UNL     1       2.364   7.629  18.769  0.00  0.00    +0.000 A 
ATOM      2  C   UNL     1       1.827   7.783  20.043  0.00  0.00    +0.000 A 
ATOM      3  C   UNL     1       1.194   8.982  20.387  0.00  0.00    +0.000 A 
ATOM      4  C   UNL     1       1.081  10.020  19.464  0.00  0.00    +0.000 A 
ATOM      5  N   UNL     1       0.540  11.245  19.802  0.00  0.00    +0.000 N 
ATOM      6  C   UNL     1      -0.525  11.405  20.800  0.00  0.00    +0.000 C 
ATOM      7  C   UNL     1      -1.853  11.791  20.124  0.00  0.00    +0.000 C 
ATOM      8  O   UNL     1      -1.709  12.944  19.280  0.00  0.00    +0.000 OA
ATOM      9  C   UNL     1      -0.746  12.677  18.246  0.00  0.00    +0.000 C 
ATOM     10  C   UNL     1       0.632  12.357  18.841  0.00  0.00    +0.000 C 
ATOM     11  N   UNL     1       1.581   9.857  18.218  0.00  0.00    +0.000 NA
ATOM     12  C   UNL     1       2.200   8.695  17.900  0.00  0.00    +0.000 A 
ENDROOT
BRANCH   1  13
ATOM     13  C   UNL     1       3.068   6.368  18.347  0.00  0.00    +0.000 C 
BRANCH  13  19
ATOM     14  C   UNL     1       1.611   2.843  21.645  0.00  0.00    +0.000 C 
ATOM     15  C   UNL     1       1.609   3.418  20.266  0.00  0.00    +0.000 A 
ATOM     16  C   UNL     1       0.984   2.775  19.205  0.00  0.00    +0.000 A 
ATOM     17  N   UNL     1       0.980   3.236  17.935  0.00  0.00    +0.000 NA
ATOM     18  C   UNL     1       1.646   4.389  17.706  0.00  0.00    +0.000 A 
ATOM     19  C   UNL     1       2.303   5.121  18.688  0.00  0.00    +0.000 A 
ATOM     20  C   UNL     1       2.268   4.620  19.994  0.00  0.00    +0.000 A 
ENDBRANCH  13  19
ENDBRANCH   1  13
TORSDOF 2
ENDMDL
MODEL 4
REMARK VINA RESULT:      -7.2      2.988      6.872
REMARK  Name = 
REMARK  3 active torsions:
REMARK  status: ('A' for Active; 'I' for Inactive)
REMARK    1  A    between atoms: C_1  and  C_2
REMARK    2  A    between atoms: C_6  and  C_7
REMARK    3  A    between atoms: C_7  and  C_8
REMARK                            x       y       z     vdW  Elec       q    Type
REMARK                         _______ _______ _______ _____ _____    ______ ____
ROOT
ATOM      1  C   UNL     1       2.175   8.564  18.501  0.00  0.00    +0.000 A 
ATOM      2  C   UNL     1       2.787   7.710  17.589  0.00  0.00    +0.000 A 
ATOM      3  C   UNL     1       3.012   6.374  17.938  0.00  0.00    +0.000 A 
ATOM      4  C   UNL     1       2.618   5.884  19.182  0.00  0.00    +0.000 A 
ATOM      5  N   UNL     1       2.906   4.595  19.585  0.00  0.00    +0.000 N 
ATOM      6  C   UNL     1       2.991   3.462  18.656  0.00  0.00    +0.000 C 
ATOM      7  C   UNL     1       1.797   2.509  18.847  0.00  0.00    +0.000 C 
ATOM      8  O   UNL     1       1.657   2.092  20.214  0.00  0.00    +0.000 OA
ATOM      9  C   UNL     1       1.449   3.238  21.056  0.00  0.00    +0.000 C 
ATOM     10  C   UNL     1       2.638   4.206  20.980  0.00  0.00    +0.000 C 
ATOM     11  N   UNL     1       2.001   6.711  20.055  0.00  0.00    +0.000 NA
ATOM     12  C   UNL     1       1.796   8.005  19.709  0.00  0.00    +0.000 A 
ENDROOT
BRANCH   1  13
ATOM     13  C   UNL     1       1.919  10.014  18.188  0.00  0.00    +0.000 C 
BRANCH  13  19
ATOM     14  C   UNL     1      -3.049   9.952  17.324  0.00  0.00    +0.000 C 
ATOM     15  C   UNL     1      -1.866  10.435  18.100  0.00  0.00    +0.000 A 
ATOM     16  C   UNL     1      -1.987  11.392  19.099  0.00  0.00    +0.000 A 
ATOM     17  N   UNL     1      -0.947  11.885  19.807  0.00  0.00    +0.000 NA
ATOM     18  C   UNL     1       0.279  11.412  19.493  0.00  0.00    +0.000 A 
ATOM     19  C   UNL     1       0.520  10.452  18.518  0.00  0.00    +0.000 A 
ATOM     20  C   UNL     1      -0.585   9.953  17.820  0.00  0.00    +0.000 A 
ENDBRANCH  13  19
ENDBRANCH   1  13
TORSDOF 2
ENDMDL
MODEL 5
REMARK VINA RESULT:      -7.2      1.615      2.705
REMARK  Name = 
REMARK  3 active torsions:
REMARK  status: ('A' for Active; 'I' for Inactive)
REMARK    1  A    between atoms: C_1  and  C_2
REMARK    2  A    between atoms: C_6  and  C_7
REMARK    3  A    between atoms: C_7  and  C_8
REMARK                            x       y       z     vdW  Elec       q    Type
REMARK                         _______ _______ _______ _____ _____    ______ ____
ROOT
ATOM      1  C   UNL     1       2.809   6.720  18.301  0.00  0.00    +0.000 A 
ATOM      2  C   UNL     1       2.409   7.921  17.722  0.00  0.00    +0.000 A 
ATOM      3  C   UNL     1       1.574   8.787  18.435  0.00  0.00    +0.000 A 
ATOM      4  C   UNL     1       1.149   8.471  19.724  0.00  0.00    +0.000 A 
ATOM      5  N   UNL     1       0.256   9.265  20.416  0.00  0.00    +0.000 N 
ATOM      6  C   UNL     1       0.189  10.724  20.260  0.00  0.00    +0.000 C 
ATOM      7  C   UNL     1       0.717  11.433  21.519  0.00  0.00    +0.000 C 
ATOM      8  O   UNL     1       0.058  10.974  22.709  0.00  0.00    +0.000 OA
ATOM      9  C   UNL     1       0.269   9.561  22.873  0.00  0.00    +0.000 C 
ATOM     10  C   UNL     1      -0.302   8.773  21.687  0.00  0.00    +0.000 C 
ATOM     11  N   UNL     1       1.561   7.316  20.293  0.00  0.00    +0.000 NA
ATOM     12  C   UNL     1       2.362   6.481  19.590  0.00  0.00    +0.000 A 
ENDROOT
BRANCH   1  13
ATOM     13  C   UNL     1       3.695   5.742  17.578  0.00  0.00    +0.000 C 
BRANCH  13  19
ATOM     14  C   UNL     1       8.072   8.245  17.485  0.00  0.00    +0.000 C 
ATOM     15  C   UNL     1       7.253   7.064  17.898  0.00  0.00    +0.000 A 
ATOM     16  C   UNL     1       7.815   5.978  18.556  0.00  0.00    +0.000 A 
ATOM     17  N   UNL     1       7.127   4.874  18.921  0.00  0.00    +0.000 NA
ATOM     18  C   UNL     1       5.815   4.843  18.601  0.00  0.00    +0.000 A 
ATOM     19  C   UNL     1       5.145   5.872  17.949  0.00  0.00    +0.000 A 
ATOM     20  C   UNL     1       5.888   7.005  17.604  0.00  0.00    +0.000 A 
ENDBRANCH  13  19
ENDBRANCH   1  13
TORSDOF 2
ENDMDL
MODEL 6
REMARK VINA RESULT:      -7.1      1.941      2.511
REMARK  Name = 
REMARK  3 active torsions:
REMARK  status: ('A' for Active; 'I' for Inactive)
REMARK    1  A    between atoms: C_1  and  C_2
REMARK    2  A    between atoms: C_6  and  C_7
REMARK    3  A    between atoms: C_7  and  C_8
REMARK                            x       y       z     vdW  Elec       q    Type
REMARK                         _______ _______ _______ _____ _____    ______ ____
ROOT
ATOM      1  C   UNL     1       2.817   6.180  19.101  0.00  0.00    +0.000 A 
ATOM      2  C   UNL     1       2.902   7.038  18.009  0.00  0.00    +0.000 A 
ATOM      3  C   UNL     1       2.277   8.287  18.062  0.00  0.00    +0.000 A 
ATOM      4  C   UNL     1       1.580   8.691  19.200  0.00  0.00    +0.000 A 
ATOM      5  N   UNL     1       0.881   9.881  19.247  0.00  0.00    +0.000 N 
ATOM      6  C   UNL     1       1.293  11.085  18.515  0.00  0.00    +0.000 C 
ATOM      7  C   UNL     1       1.813  12.162  19.484  0.00  0.00    +0.000 C 
ATOM      8  O   UNL     1       0.869  12.446  20.527  0.00  0.00    +0.000 OA
ATOM      9  C   UNL     1       0.606  11.255  21.288  0.00  0.00    +0.000 C 
ATOM     10  C   UNL     1       0.009  10.152  20.402  0.00  0.00    +0.000 C 
ATOM     11  N   UNL     1       1.522   7.865  20.269  0.00  0.00    +0.000 NA
ATOM     12  C   UNL     1       2.125   6.654  20.203  0.00  0.00    +0.000 A 
ENDROOT
BRANCH   1  13
ATOM     13  C   UNL     1       3.457   4.818  19.098  0.00  0.00    +0.000 C 
BRANCH  13  19
ATOM     14  C   UNL     1       6.334   3.939  15.049  0.00  0.00    +0.000 C 
ATOM     15  C   UNL     1       6.182   4.364  16.475  0.00  0.00    +0.000 A 
ATOM     16  C   UNL     1       7.282   4.662  17.270  0.00  0.00    +0.000 A 
ATOM     17  N   UNL     1       7.201   5.019  18.571  0.00  0.00    +0.000 NA
ATOM     18  C   UNL     1       5.965   5.067  19.111  0.00  0.00    +0.000 A 
ATOM     19  C   UNL     1       4.794   4.796  18.412  0.00  0.00    +0.000 A 
ATOM     20  C   UNL     1       4.918   4.447  17.064  0.00  0.00    +0.000 A 
ENDBRANCH  13  19
ENDBRANCH   1  13
TORSDOF 2
ENDMDL
MODEL 7
REMARK VINA RESULT:      -7.0      1.305      1.704
REMARK  Name = 
REMARK  3 active torsions:
REMARK  status: ('A' for Active; 'I' for Inactive)
REMARK    1  A    between atoms: C_1  and  C_2
REMARK    2  A    between atoms: C_6  and  C_7
REMARK    3  A    between atoms: C_7  and  C_8
REMARK                            x       y       z     vdW  Elec       q    Type
REMARK                         _______ _______ _______ _____ _____    ______ ____
ROOT
ATOM      1  C   UNL     1       2.793   7.373  18.384  0.00  0.00    +0.000 A 
ATOM      2  C   UNL     1       2.419   8.507  17.668  0.00  0.00    +0.000 A 
ATOM      3  C   UNL     1       1.547   9.434  18.248  0.00  0.00    +0.000 A 
ATOM      4  C   UNL     1       1.058   9.244  19.540  0.00  0.00    +0.000 A 
ATOM      5  N   UNL     1       0.129  10.097  20.103  0.00  0.00    +0.000 N 
ATOM      6  C   UNL     1       0.066  11.531  19.799  0.00  0.00    +0.000 C 
ATOM      7  C   UNL     1       0.528  12.366  21.006  0.00  0.00    +0.000 C 
ATOM      8  O   UNL     1      -0.190  12.024  22.202  0.00  0.00    +0.000 OA
ATOM      9  C   UNL     1       0.017  10.636  22.516  0.00  0.00    +0.000 C 
ATOM     10  C   UNL     1      -0.491   9.729  21.387  0.00  0.00    +0.000 C 
ATOM     11  N   UNL     1       1.443   8.154  20.241  0.00  0.00    +0.000 NA
ATOM     12  C   UNL     1       2.282   7.259  19.666  0.00  0.00    +0.000 A 
ENDROOT
BRANCH   1  13
ATOM     13  C   UNL     1       3.716   6.334  17.807  0.00  0.00    +0.000 C 
BRANCH  13  19
ATOM     14  C   UNL     1       4.510   1.961  20.191  0.00  0.00    +0.000 C 
ATOM     15  C   UNL     1       3.693   2.822  19.282  0.00  0.00    +0.000 A 
ATOM     16  C   UNL     1       2.570   2.334  18.626  0.00  0.00    +0.000 A 
ATOM     17  N   UNL     1       1.816   3.059  17.771  0.00  0.00    +0.000 NA
ATOM     18  C   UNL     1       2.209   4.332  17.546  0.00  0.00    +0.000 A 
ATOM     19  C   UNL     1       3.310   4.929  18.149  0.00  0.00    +0.000 A 
ATOM     20  C   UNL     1       4.054   4.150  19.042  0.00  0.00    +0.000 A 
ENDBRANCH  13  19
ENDBRANCH   1  13
TORSDOF 2
ENDMDL
MODEL 8
REMARK VINA RESULT:      -7.0      3.316      7.225
REMARK  Name = 
REMARK  3 active torsions:
REMARK  status: ('A' for Active; 'I' for Inactive)
REMARK    1  A    between atoms: C_1  and  C_2
REMARK    2  A    between atoms: C_6  and  C_7
REMARK    3  A    between atoms: C_7  and  C_8
REMARK                            x       y       z     vdW  Elec       q    Type
REMARK                         _______ _______ _______ _____ _____    ______ ____
ROOT
ATOM      1  C   UNL     1       2.194   7.938  18.580  0.00  0.00    +0.000 A 
ATOM      2  C   UNL     1       2.110   7.464  19.885  0.00  0.00    +0.000 A 
ATOM      3  C   UNL     1       2.162   6.087  20.125  0.00  0.00    +0.000 A 
ATOM      4  C   UNL     1       2.311   5.183  19.075  0.00  0.00    +0.000 A 
ATOM      5  N   UNL     1       2.278   3.818  19.273  0.00  0.00    +0.000 N 
ATOM      6  C   UNL     1       2.760   3.172  20.501  0.00  0.00    +0.000 C 
ATOM      7  C   UNL     1       4.063   2.397  20.234  0.00  0.00    +0.000 C 
ATOM      8  O   UNL     1       3.924   1.474  19.143  0.00  0.00    +0.000 OA
ATOM      9  C   UNL     1       3.576   2.184  17.942  0.00  0.00    +0.000 C 
ATOM     10  C   UNL     1       2.242   2.926  18.103  0.00  0.00    +0.000 C 
ATOM     11  N   UNL     1       2.418   5.649  17.810  0.00  0.00    +0.000 NA
ATOM     12  C   UNL     1       2.357   6.984  17.589  0.00  0.00    +0.000 A 
ENDROOT
BRANCH   1  13
ATOM     13  C   UNL     1       2.129   9.407  18.258  0.00  0.00    +0.000 C 
BRANCH  13  19
ATOM     14  C   UNL     1      -2.807  10.006  17.419  0.00  0.00    +0.000 C 
ATOM     15  C   UNL     1      -1.566  10.328  18.189  0.00  0.00    +0.000 A 
ATOM     16  C   UNL     1      -1.554  11.293  19.188  0.00  0.00    +0.000 A 
ATOM     17  N   UNL     1      -0.454  11.643  19.890  0.00  0.00    +0.000 NA
ATOM     18  C   UNL     1       0.696  11.012  19.570  0.00  0.00    +0.000 A 
ATOM     19  C   UNL     1       0.803  10.027  18.595  0.00  0.00    +0.000 A 
ATOM     20  C   UNL     1      -0.362   9.680  17.903  0.00  0.00    +0.000 A 
ENDBRANCH  13  19
ENDBRANCH   1  13
TORSDOF 2
ENDMDL
MODEL 9
REMARK VINA RESULT:      -6.9      4.457      6.145
REMARK  Name = 
REMARK  3 active torsions:
REMARK  status: ('A' for Active; 'I' for Inactive)
REMARK    1  A    between atoms: C_1  and  C_2
REMARK    2  A    between atoms: C_6  and  C_7
REMARK    3  A    between atoms: C_7  and  C_8
REMARK                            x       y       z     vdW  Elec       q    Type
REMARK                         _______ _______ _______ _____ _____    ______ ____
ROOT
ATOM      1  C   UNL     1       5.962   4.857  16.567  0.00  0.00    +0.000 A 
ATOM      2  C   UNL     1       5.488   6.003  17.199  0.00  0.00    +0.000 A 
ATOM      3  C   UNL     1       4.252   5.971  17.852  0.00  0.00    +0.000 A 
ATOM      4  C   UNL     1       3.493   4.802  17.890  0.00  0.00    +0.000 A 
ATOM      5  N   UNL     1       2.232   4.766  18.451  0.00  0.00    +0.000 N 
ATOM      6  C   UNL     1       1.834   5.604  19.589  0.00  0.00    +0.000 C 
ATOM      7  C   UNL     1       1.660   4.753  20.859  0.00  0.00    +0.000 C 
ATOM      8  O   UNL     1       0.766   3.649  20.647  0.00  0.00    +0.000 OA
ATOM      9  C   UNL     1       1.279   2.797  19.608  0.00  0.00    +0.000 C 
ATOM     10  C   UNL     1       1.409   3.557  18.281  0.00  0.00    +0.000 C 
ATOM     11  N   UNL     1       3.968   3.684  17.296  0.00  0.00    +0.000 NA
ATOM     12  C   UNL     1       5.163   3.730  16.660  0.00  0.00    +0.000 A 
ENDROOT
BRANCH   1  13
ATOM     13  C   UNL     1       7.277   4.835  15.837  0.00  0.00    +0.000 C 
BRANCH  13  19
ATOM     14  C   UNL     1       5.281   2.552  11.807  0.00  0.00    +0.000 C 
ATOM     15  C   UNL     1       6.178   3.584  12.410  0.00  0.00    +0.000 A 
ATOM     16  C   UNL     1       6.995   4.391  11.628  0.00  0.00    +0.000 A 
ATOM     17  N   UNL     1       7.845   5.316  12.124  0.00  0.00    +0.000 NA
ATOM     18  C   UNL     1       7.897   5.433  13.469  0.00  0.00    +0.000 A 
ATOM     19  C   UNL     1       7.125   4.685  14.349  0.00  0.00    +0.000 A 
ATOM     20  C   UNL     1       6.243   3.751  13.796  0.00  0.00    +0.000 A 
ENDBRANCH  13  19
ENDBRANCH   1  13
TORSDOF 2
ENDMDL
