MODEL 1
REMARK VINA RESULT:      -7.7      0.000      0.000
REMARK  Name = 
REMARK  5 active torsions:
REMARK  status: ('A' for Active; 'I' for Inactive)
REMARK    1  A    between atoms: C_1  and  O_2
REMARK    2  A    between atoms: O_2  and  C_3
REMARK    3  A    between atoms: C_3  and  C_5
REMARK    4  A    between atoms: C_8  and  C_9
REMARK    5  A    between atoms: C_14  and  N_15
REMARK                            x       y       z     vdW  Elec       q    Type
REMARK                         _______ _______ _______ _____ _____    ______ ____
ROOT
ATOM      1  C   UNL     1       6.338   5.393  17.489  0.00  0.00    +0.000 C 
ATOM      2  O   UNL     1       7.010   4.459  17.044  0.00  0.00    +0.000 OA
ATOM      3  N   UNL     1       4.947   5.274  17.679  0.00  0.00    +0.000 N 
ATOM      4  C   UNL     1       4.395   3.928  17.535  0.00  0.00    +0.000 C 
ATOM      5  C   UNL     1       2.950   3.930  17.048  0.00  0.00    +0.000 C 
ATOM      6  C   UNL     1       2.046   4.758  17.990  0.00  0.00    +0.000 C 
ATOM      7  C   UNL     1       2.620   6.180  17.991  0.00  0.00    +0.000 C 
ATOM      8  C   UNL     1       4.097   6.252  18.362  0.00  0.00    +0.000 C 
ENDROOT
BRANCH   6   9
ATOM      9  N   UNL     1       1.899   4.041  19.279  0.00  0.00    +0.000 N 
ATOM     10  C   UNL     1       1.302   2.778  19.205  0.00  0.00    +0.000 C 
ATOM     11  O   UNL     1       0.728   2.350  18.205  0.00  0.00    +0.000 OA
ATOM     12  C   UNL     1       1.459   1.910  20.453  0.00  0.00    +0.000 C 
ATOM     13  O   UNL     1       1.340   2.595  21.684  0.00  0.00    +0.000 OA
ATOM     14  C   UNL     1       2.153   3.752  21.689  0.00  0.00    +0.000 C 
ATOM     15  C   UNL     1       1.885   4.684  20.508  0.00  0.00    +0.000 C 
ATOM     16  O   UNL     1       1.715   5.888  20.682  0.00  0.00    +0.000 OA
ENDBRANCH   6   9
BRANCH   1  20
ATOM     17  C   UNL     1       8.534   8.980  18.477  0.00  0.00    +0.000 A 
ATOM     18  C   UNL     1       8.716   7.795  19.197  0.00  0.00    +0.000 A 
ATOM     19  C   UNL     1       8.002   6.641  18.843  0.00  0.00    +0.000 A 
ATOM     20  C   UNL     1       7.087   6.657  17.777  0.00  0.00    +0.000 A 
ATOM     21  C   UNL     1       6.861   7.866  17.115  0.00  0.00    +0.000 A 
ATOM     22  C   UNL     1       7.607   9.007  17.430  0.00  0.00    +0.000 A 
BRANCH  17  23
ATOM     23  C   UNL     1       9.312  10.186  18.868  0.00  0.00    +0.000 C 
ATOM     24  O   UNL     1       9.498  10.529  20.022  0.00  0.00    +0.000 OA
BRANCH  23  26
ATOM     25  C   UNL     1       9.725  12.255  17.849  0.00  0.00    +0.000 C 
ATOM     26  O   UNL     1       9.764  10.833  17.762  0.00  0.00    +0.000 OA
ENDBRANCH  23  26
ENDBRANCH  17  23
ENDBRANCH   1  20
TORSDOF 4
ENDMDL
MODEL 2
REMARK VINA RESULT:      -7.5      0.484      1.278
REMARK  Name = 
REMARK  5 active torsions:
REMARK  status: ('A' for Active; 'I' for Inactive)
REMARK    1  A    between atoms: C_1  and  O_2
REMARK    2  A    between atoms: O_2  and  C_3
REMARK    3  A    between atoms: C_3  and  C_5
REMARK    4  A    between atoms: C_8  and  C_9
REMARK    5  A    between atoms: C_14  and  N_15
REMARK                            x       y       z     vdW  Elec       q    Type
REMARK                         _______ _______ _______ _____ _____    ______ ____
ROOT
ATOM      1  C   UNL     1       6.379   5.417  17.593  0.00  0.00    +0.000 C 
ATOM      2  O   UNL     1       7.065   4.489  17.158  0.00  0.00    +0.000 OA
ATOM      3  N   UNL     1       4.984   5.290  17.754  0.00  0.00    +0.000 N 
ATOM      4  C   UNL     1       4.443   3.941  17.591  0.00  0.00    +0.000 C 
ATOM      5  C   UNL     1       3.008   3.939  17.073  0.00  0.00    +0.000 C 
ATOM      6  C   UNL     1       2.080   4.756  18.000  0.00  0.00    +0.000 C 
ATOM      7  C   UNL     1       2.646   6.182  18.021  0.00  0.00    +0.000 C 
ATOM      8  C   UNL     1       4.115   6.259  18.423  0.00  0.00    +0.000 C 
ENDROOT
BRANCH   6   9
ATOM      9  N   UNL     1       1.910   4.032  19.283  0.00  0.00    +0.000 N 
ATOM     10  C   UNL     1       1.294   2.779  19.193  0.00  0.00    +0.000 C 
ATOM     11  O   UNL     1       0.724   2.367  18.184  0.00  0.00    +0.000 OA
ATOM     12  C   UNL     1       1.427   1.899  20.436  0.00  0.00    +0.000 C 
ATOM     13  O   UNL     1       1.306   2.577  21.671  0.00  0.00    +0.000 OA
ATOM     14  C   UNL     1       2.136   3.721  21.693  0.00  0.00    +0.000 C 
ATOM     15  C   UNL     1       1.894   4.666  20.516  0.00  0.00    +0.000 C 
ATOM     16  O   UNL     1       1.740   5.871  20.698  0.00  0.00    +0.000 OA
ENDBRANCH   6   9
BRANCH   1  20
ATOM     17  C   UNL     1       8.457   9.131  18.336  0.00  0.00    +0.000 A 
ATOM     18  C   UNL     1       7.472   9.034  17.348  0.00  0.00    +0.000 A 
ATOM     19  C   UNL     1       6.801   7.820  17.141  0.00  0.00    +0.000 A 
ATOM     20  C   UNL     1       7.114   6.683  17.904  0.00  0.00    +0.000 A 
ATOM     21  C   UNL     1       8.151   6.774  18.835  0.00  0.00    +0.000 A 
ATOM     22  C   UNL     1       8.788   7.995  19.083  0.00  0.00    +0.000 A 
BRANCH  17  23
ATOM     23  C   UNL     1       9.145  10.434  18.541  0.00  0.00    +0.000 C 
ATOM     24  O   UNL     1       9.074  11.368  17.764  0.00  0.00    +0.000 OA
BRANCH  23  26
ATOM     25  C   UNL     1       9.405  11.339  20.686  0.00  0.00    +0.000 C 
ATOM     26  O   UNL     1       9.854  10.413  19.700  0.00  0.00    +0.000 OA
ENDBRANCH  23  26
ENDBRANCH  17  23
ENDBRANCH   1  20
TORSDOF 4
ENDMDL
MODEL 3
REMARK VINA RESULT:      -6.4      4.896      7.355
REMARK  Name = 
REMARK  5 active torsions:
REMARK  status: ('A' for Active; 'I' for Inactive)
REMARK    1  A    between atoms: C_1  and  O_2
REMARK    2  A    between atoms: O_2  and  C_3
REMARK    3  A    between atoms: C_3  and  C_5
REMARK    4  A    between atoms: C_8  and  C_9
REMARK    5  A    between atoms: C_14  and  N_15
REMARK                            x       y       z     vdW  Elec       q    Type
REMARK                         _______ _______ _______ _____ _____    ______ ____
ROOT
ATOM      1  C   UNL     1       2.170   7.268  19.817  0.00  0.00    +0.000 C 
ATOM      2  O   UNL     1       1.896   6.687  20.870  0.00  0.00    +0.000 OA
ATOM      3  N   UNL     1       1.511   8.455  19.439  0.00  0.00    +0.000 N 
ATOM      4  C   UNL     1       0.659   9.066  20.458  0.00  0.00    +0.000 C 
ATOM      5  C   UNL     1      -0.512   9.841  19.864  0.00  0.00    +0.000 C 
ATOM      6  C   UNL     1      -0.018  10.932  18.886  0.00  0.00    +0.000 C 
ATOM      7  C   UNL     1       0.760  10.198  17.786  0.00  0.00    +0.000 C 
ATOM      8  C   UNL     1       1.883   9.310  18.310  0.00  0.00    +0.000 C 
ENDROOT
BRANCH   6   9
ATOM      9  N   UNL     1       0.659  12.004  19.652  0.00  0.00    +0.000 N 
ATOM     10  C   UNL     1      -0.143  12.694  20.568  0.00  0.00    +0.000 C 
ATOM     11  O   UNL     1      -1.369  12.601  20.610  0.00  0.00    +0.000 OA
ATOM     12  C   UNL     1       0.616  13.546  21.585  0.00  0.00    +0.000 C 
ATOM     13  O   UNL     1       1.735  14.244  21.073  0.00  0.00    +0.000 OA
ATOM     14  C   UNL     1       2.563  13.374  20.328  0.00  0.00    +0.000 C 
ATOM     15  C   UNL     1       1.818  12.631  19.219  0.00  0.00    +0.000 C 
ATOM     16  O   UNL     1       2.266  12.594  18.076  0.00  0.00    +0.000 OA
ENDBRANCH   6   9
BRANCH   1  20
ATOM     17  C   UNL     1       5.253   5.327  17.496  0.00  0.00    +0.000 A 
ATOM     18  C   UNL     1       4.953   4.912  18.798  0.00  0.00    +0.000 A 
ATOM     19  C   UNL     1       3.935   5.549  19.522  0.00  0.00    +0.000 A 
ATOM     20  C   UNL     1       3.214   6.618  18.964  0.00  0.00    +0.000 A 
ATOM     21  C   UNL     1       3.575   7.070  17.692  0.00  0.00    +0.000 A 
ATOM     22  C   UNL     1       4.554   6.405  16.945  0.00  0.00    +0.000 A 
BRANCH  17  23
ATOM     23  C   UNL     1       6.331   4.625  16.748  0.00  0.00    +0.000 C 
ATOM     24  O   UNL     1       7.519   4.772  16.972  0.00  0.00    +0.000 OA
BRANCH  23  26
ATOM     25  C   UNL     1       6.336   4.005  14.489  0.00  0.00    +0.000 C 
ATOM     26  O   UNL     1       5.794   3.820  15.794  0.00  0.00    +0.000 OA
ENDBRANCH  23  26
ENDBRANCH  17  23
ENDBRANCH   1  20
TORSDOF 4
ENDMDL
MODEL 4
REMARK VINA RESULT:      -6.3      5.003      7.568
REMARK  Name = 
REMARK  5 active torsions:
REMARK  status: ('A' for Active; 'I' for Inactive)
REMARK    1  A    between atoms: C_1  and  O_2
REMARK    2  A    between atoms: O_2  and  C_3
REMARK    3  A    between atoms: C_3  and  C_5
REMARK    4  A    between atoms: C_8  and  C_9
REMARK    5  A    between atoms: C_14  and  N_15
REMARK                            x       y       z     vdW  Elec       q    Type
REMARK                         _______ _______ _______ _____ _____    ______ ____
ROOT
ATOM      1  C   UNL     1       2.119   7.419  19.585  0.00  0.00    +0.000 C 
ATOM      2  O   UNL     1       2.043   6.833  20.667  0.00  0.00    +0.000 OA
ATOM      3  N   UNL     1       1.404   8.609  19.341  0.00  0.00    +0.000 N 
ATOM      4  C   UNL     1       0.758   9.217  20.504  0.00  0.00    +0.000 C 
ATOM      5  C   UNL     1      -0.501   9.998  20.141  0.00  0.00    +0.000 C 
ATOM      6  C   UNL     1      -0.194  11.092  19.093  0.00  0.00    +0.000 C 
ATOM      7  C   UNL     1       0.365  10.363  17.865  0.00  0.00    +0.000 C 
ATOM      8  C   UNL     1       1.563   9.470  18.167  0.00  0.00    +0.000 C 
ENDROOT
BRANCH   6   9
ATOM      9  N   UNL     1       0.618  12.159  19.726  0.00  0.00    +0.000 N 
ATOM     10  C   UNL     1      -0.037  12.920  20.701  0.00  0.00    +0.000 C 
ATOM     11  O   UNL     1      -1.251  12.887  20.894  0.00  0.00    +0.000 OA
ATOM     12  C   UNL     1       0.876  13.773  21.582  0.00  0.00    +0.000 C 
ATOM     13  O   UNL     1       1.953  14.397  20.910  0.00  0.00    +0.000 OA
ATOM     14  C   UNL     1       2.646  13.461  20.109  0.00  0.00    +0.000 C 
ATOM     15  C   UNL     1       1.741  12.714  19.130  0.00  0.00    +0.000 C 
ATOM     16  O   UNL     1       2.043  12.612  17.944  0.00  0.00    +0.000 OA
ENDBRANCH   6   9
BRANCH   1  20
ATOM     17  C   UNL     1       4.595   5.401  16.677  0.00  0.00    +0.000 A 
ATOM     18  C   UNL     1       3.700   4.693  17.487  0.00  0.00    +0.000 A 
ATOM     19  C   UNL     1       2.897   5.377  18.410  0.00  0.00    +0.000 A 
ATOM     20  C   UNL     1       2.984   6.772  18.550  0.00  0.00    +0.000 A 
ATOM     21  C   UNL     1       3.934   7.456  17.788  0.00  0.00    +0.000 A 
ATOM     22  C   UNL     1       4.703   6.787  16.829  0.00  0.00    +0.000 A 
BRANCH  17  23
ATOM     23  C   UNL     1       5.428   4.650  15.700  0.00  0.00    +0.000 C 
ATOM     24  O   UNL     1       5.314   4.752  14.492  0.00  0.00    +0.000 OA
BRANCH  23  26
ATOM     25  C   UNL     1       7.372   4.541  17.003  0.00  0.00    +0.000 C 
ATOM     26  O   UNL     1       6.310   3.849  16.352  0.00  0.00    +0.000 OA
ENDBRANCH  23  26
ENDBRANCH  17  23
ENDBRANCH   1  20
TORSDOF 4
ENDMDL
MODEL 5
REMARK VINA RESULT:      -6.3      6.339      9.257
REMARK  Name = 
REMARK  5 active torsions:
REMARK  status: ('A' for Active; 'I' for Inactive)
REMARK    1  A    between atoms: C_1  and  O_2
REMARK    2  A    between atoms: O_2  and  C_3
REMARK    3  A    between atoms: C_3  and  C_5
REMARK    4  A    between atoms: C_8  and  C_9
REMARK    5  A    between atoms: C_14  and  N_15
REMARK                            x       y       z     vdW  Elec       q    Type
REMARK                         _______ _______ _______ _____ _____    ______ ____
ROOT
ATOM      1  C   UNL     1       1.114   9.007  21.197  0.00  0.00    +0.000 C 
ATOM      2  O   UNL     1       1.538   8.915  22.351  0.00  0.00    +0.000 OA
ATOM      3  N   UNL     1       0.205  10.017  20.824  0.00  0.00    +0.000 N 
ATOM      4  C   UNL     1      -0.027  11.066  21.815  0.00  0.00    +0.000 C 
ATOM      5  C   UNL     1      -1.423  11.672  21.721  0.00  0.00    +0.000 C 
ATOM      6  C   UNL     1      -1.691  12.234  20.306  0.00  0.00    +0.000 C 
ATOM      7  C   UNL     1      -1.548  11.050  19.342  0.00  0.00    +0.000 C 
ATOM      8  C   UNL     1      -0.215  10.318  19.454  0.00  0.00    +0.000 C 
ENDROOT
BRANCH   6   9
ATOM      9  N   UNL     1      -0.854  13.439  20.093  0.00  0.00    +0.000 N 
ATOM     10  C   UNL     1      -1.056  14.485  21.000  0.00  0.00    +0.000 C 
ATOM     11  O   UNL     1      -1.997  14.532  21.792  0.00  0.00    +0.000 OA
ATOM     12  C   UNL     1       0.023  15.567  20.996  0.00  0.00    +0.000 C 
ATOM     13  O   UNL     1       0.516  15.923  19.719  0.00  0.00    +0.000 OA
ATOM     14  C   UNL     1       0.865  14.769  18.982  0.00  0.00    +0.000 C 
ATOM     15  C   UNL     1      -0.273  13.754  18.873  0.00  0.00    +0.000 C 
ATOM     16  O   UNL     1      -0.580  13.266  17.789  0.00  0.00    +0.000 OA
ENDBRANCH   6   9
BRANCH   1  20
ATOM     17  C   UNL     1       2.549   5.898  18.562  0.00  0.00    +0.000 A 
ATOM     18  C   UNL     1       2.140   5.612  19.869  0.00  0.00    +0.000 A 
ATOM     19  C   UNL     1       1.662   6.639  20.696  0.00  0.00    +0.000 A 
ATOM     20  C   UNL     1       1.600   7.965  20.238  0.00  0.00    +0.000 A 
ATOM     21  C   UNL     1       2.082   8.247  18.957  0.00  0.00    +0.000 A 
ATOM     22  C   UNL     1       2.512   7.221  18.110  0.00  0.00    +0.000 A 
BRANCH  17  23
ATOM     23  C   UNL     1       3.042   4.787  17.704  0.00  0.00    +0.000 C 
ATOM     24  O   UNL     1       4.179   4.714  17.275  0.00  0.00    +0.000 OA
BRANCH  23  26
ATOM     25  C   UNL     1       2.380   2.541  17.773  0.00  0.00    +0.000 C 
ATOM     26  O   UNL     1       2.045   3.894  17.473  0.00  0.00    +0.000 OA
ENDBRANCH  23  26
ENDBRANCH  17  23
ENDBRANCH   1  20
TORSDOF 4
ENDMDL
MODEL 6
REMARK VINA RESULT:      -6.2      7.248      9.668
REMARK  Name = 
REMARK  5 active torsions:
REMARK  status: ('A' for Active; 'I' for Inactive)
REMARK    1  A    between atoms: C_1  and  O_2
REMARK    2  A    between atoms: O_2  and  C_3
REMARK    3  A    between atoms: C_3  and  C_5
REMARK    4  A    between atoms: C_8  and  C_9
REMARK    5  A    between atoms: C_14  and  N_15
REMARK                            x       y       z     vdW  Elec       q    Type
REMARK                         _______ _______ _______ _____ _____    ______ ____
ROOT
ATOM      1  C   UNL     1       0.084  10.466  18.506  0.00  0.00    +0.000 C 
ATOM      2  O   UNL     1      -0.940  10.206  17.870  0.00  0.00    +0.000 OA
ATOM      3  N   UNL     1       0.407  11.788  18.872  0.00  0.00    +0.000 N 
ATOM      4  C   UNL     1      -0.639  12.786  18.653  0.00  0.00    +0.000 C 
ATOM      5  C   UNL     1      -0.080  14.178  18.373  0.00  0.00    +0.000 C 
ATOM      6  C   UNL     1       0.846  14.646  19.519  0.00  0.00    +0.000 C 
ATOM      7  C   UNL     1       1.977  13.615  19.602  0.00  0.00    +0.000 C 
ATOM      8  C   UNL     1       1.494  12.178  19.772  0.00  0.00    +0.000 C 
ENDROOT
BRANCH   6   9
ATOM      9  N   UNL     1       0.029  14.917  20.726  0.00  0.00    +0.000 N 
ATOM     10  C   UNL     1      -1.019  15.827  20.557  0.00  0.00    +0.000 C 
ATOM     11  O   UNL     1      -1.154  16.539  19.562  0.00  0.00    +0.000 OA
ATOM     12  C   UNL     1      -2.054  15.846  21.682  0.00  0.00    +0.000 C 
ATOM     13  O   UNL     1      -1.526  15.724  22.989  0.00  0.00    +0.000 OA
ATOM     14  C   UNL     1      -0.626  14.637  23.061  0.00  0.00    +0.000 C 
ATOM     15  C   UNL     1       0.489  14.705  22.018  0.00  0.00    +0.000 C 
ATOM     16  O   UNL     1       1.664  14.544  22.340  0.00  0.00    +0.000 OA
ENDBRANCH   6   9
BRANCH   1  20
ATOM     17  C   UNL     1       2.635   7.065  19.275  0.00  0.00    +0.000 A 
ATOM     18  C   UNL     1       2.549   7.637  18.001  0.00  0.00    +0.000 A 
ATOM     19  C   UNL     1       1.726   8.751  17.784  0.00  0.00    +0.000 A 
ATOM     20  C   UNL     1       0.966   9.301  18.830  0.00  0.00    +0.000 A 
ATOM     21  C   UNL     1       1.004   8.674  20.078  0.00  0.00    +0.000 A 
ATOM     22  C   UNL     1       1.861   7.595  20.313  0.00  0.00    +0.000 A 
BRANCH  17  23
ATOM     23  C   UNL     1       3.523   5.890  19.478  0.00  0.00    +0.000 C 
ATOM     24  O   UNL     1       4.591   5.740  18.912  0.00  0.00    +0.000 OA
BRANCH  23  26
ATOM     25  C   UNL     1       2.702   3.726  19.844  0.00  0.00    +0.000 C 
ATOM     26  O   UNL     1       2.965   5.026  20.366  0.00  0.00    +0.000 OA
ENDBRANCH  23  26
ENDBRANCH  17  23
ENDBRANCH   1  20
TORSDOF 4
ENDMDL
MODEL 7
REMARK VINA RESULT:      -6.1      7.081     10.088
REMARK  Name = 
REMARK  5 active torsions:
REMARK  status: ('A' for Active; 'I' for Inactive)
REMARK    1  A    between atoms: C_1  and  O_2
REMARK    2  A    between atoms: O_2  and  C_3
REMARK    3  A    between atoms: C_3  and  C_5
REMARK    4  A    between atoms: C_8  and  C_9
REMARK    5  A    between atoms: C_14  and  N_15
REMARK                            x       y       z     vdW  Elec       q    Type
REMARK                         _______ _______ _______ _____ _____    ______ ____
ROOT
ATOM      1  C   UNL     1       0.040  10.980  19.430  0.00  0.00    +0.000 C 
ATOM      2  O   UNL     1      -1.161  10.832  19.671  0.00  0.00    +0.000 OA
ATOM      3  N   UNL     1       0.595  12.256  19.210  0.00  0.00    +0.000 N 
ATOM      4  C   UNL     1      -0.277  13.392  19.504  0.00  0.00    +0.000 C 
ATOM      5  C   UNL     1       0.030  14.612  18.641  0.00  0.00    +0.000 C 
ATOM      6  C   UNL     1       1.506  15.045  18.794  0.00  0.00    +0.000 C 
ATOM      7  C   UNL     1       2.351  13.843  18.353  0.00  0.00    +0.000 C 
ATOM      8  C   UNL     1       2.025  12.551  19.095  0.00  0.00    +0.000 C 
ENDROOT
BRANCH   6   9
ATOM      9  N   UNL     1       1.711  15.609  20.150  0.00  0.00    +0.000 N 
ATOM     10  C   UNL     1       0.889  16.689  20.487  0.00  0.00    +0.000 C 
ATOM     11  O   UNL     1       0.191  17.297  19.677  0.00  0.00    +0.000 OA
ATOM     12  C   UNL     1       0.857  17.043  21.974  0.00  0.00    +0.000 C 
ATOM     13  O   UNL     1       2.102  16.963  22.640  0.00  0.00    +0.000 OA
ATOM     14  C   UNL     1       2.735  15.730  22.362  0.00  0.00    +0.000 C 
ATOM     15  C   UNL     1       2.889  15.453  20.867  0.00  0.00    +0.000 C 
ATOM     16  O   UNL     1       3.966  15.094  20.400  0.00  0.00    +0.000 OA
ENDBRANCH   6   9
BRANCH   1  20
ATOM     17  C   UNL     1       2.348   7.348  19.046  0.00  0.00    +0.000 A 
ATOM     18  C   UNL     1       2.079   8.159  17.938  0.00  0.00    +0.000 A 
ATOM     19  C   UNL     1       1.341   9.341  18.096  0.00  0.00    +0.000 A 
ATOM     20  C   UNL     1       0.850   9.723  19.355  0.00  0.00    +0.000 A 
ATOM     21  C   UNL     1       1.063   8.867  20.438  0.00  0.00    +0.000 A 
ATOM     22  C   UNL     1       1.841   7.713  20.298  0.00  0.00    +0.000 A 
BRANCH  17  23
ATOM     23  C   UNL     1       3.141   6.105  18.851  0.00  0.00    +0.000 C 
ATOM     24  O   UNL     1       4.036   5.747  19.595  0.00  0.00    +0.000 OA
BRANCH  23  26
ATOM     25  C   UNL     1       1.827   4.373  17.980  0.00  0.00    +0.000 C 
ATOM     26  O   UNL     1       2.725   5.452  17.735  0.00  0.00    +0.000 OA
ENDBRANCH  23  26
ENDBRANCH  17  23
ENDBRANCH   1  20
TORSDOF 4
ENDMDL
MODEL 8
REMARK VINA RESULT:      -6.0      5.726      9.106
REMARK  Name = 
REMARK  5 active torsions:
REMARK  status: ('A' for Active; 'I' for Inactive)
REMARK    1  A    between atoms: C_1  and  O_2
REMARK    2  A    between atoms: O_2  and  C_3
REMARK    3  A    between atoms: C_3  and  C_5
REMARK    4  A    between atoms: C_8  and  C_9
REMARK    5  A    between atoms: C_14  and  N_15
REMARK                            x       y       z     vdW  Elec       q    Type
REMARK                         _______ _______ _______ _____ _____    ______ ____
ROOT
ATOM      1  C   UNL     1       1.266   8.698  21.066  0.00  0.00    +0.000 C 
ATOM      2  O   UNL     1       1.318   8.519  22.285  0.00  0.00    +0.000 OA
ATOM      3  N   UNL     1       0.831   9.921  20.519  0.00  0.00    +0.000 N 
ATOM      4  C   UNL     1       0.664  11.022  21.467  0.00  0.00    +0.000 C 
ATOM      5  C   UNL     1      -0.411  12.015  21.037  0.00  0.00    +0.000 C 
ATOM      6  C   UNL     1      -0.111  12.587  19.633  0.00  0.00    +0.000 C 
ATOM      7  C   UNL     1      -0.073  11.385  18.682  0.00  0.00    +0.000 C 
ATOM      8  C   UNL     1       0.903  10.292  19.104  0.00  0.00    +0.000 C 
ENDROOT
BRANCH   6   9
ATOM      9  N   UNL     1       1.069  13.480  19.712  0.00  0.00    +0.000 N 
ATOM     10  C   UNL     1       0.911  14.626  20.499  0.00  0.00    +0.000 C 
ATOM     11  O   UNL     1      -0.174  15.016  20.930  0.00  0.00    +0.000 OA
ATOM     12  C   UNL     1       2.207  15.354  20.856  0.00  0.00    +0.000 C 
ATOM     13  O   UNL     1       3.164  15.427  19.818  0.00  0.00    +0.000 OA
ATOM     14  C   UNL     1       3.368  14.153  19.241  0.00  0.00    +0.000 C 
ATOM     15  C   UNL     1       2.076  13.494  18.758  0.00  0.00    +0.000 C 
ATOM     16  O   UNL     1       2.000  13.006  17.633  0.00  0.00    +0.000 OA
ENDBRANCH   6   9
BRANCH   1  20
ATOM     17  C   UNL     1       2.406   5.229  18.757  0.00  0.00    +0.000 A 
ATOM     18  C   UNL     1       1.833   5.101  20.027  0.00  0.00    +0.000 A 
ATOM     19  C   UNL     1       1.457   6.244  20.746  0.00  0.00    +0.000 A 
ATOM     20  C   UNL     1       1.661   7.529  20.217  0.00  0.00    +0.000 A 
ATOM     21  C   UNL     1       2.301   7.644  18.981  0.00  0.00    +0.000 A 
ATOM     22  C   UNL     1       2.632   6.507  18.236  0.00  0.00    +0.000 A 
BRANCH  17  23
ATOM     23  C   UNL     1       2.786   3.998  18.012  0.00  0.00    +0.000 C 
ATOM     24  O   UNL     1       2.197   3.592  17.026  0.00  0.00    +0.000 OA
BRANCH  23  26
ATOM     25  C   UNL     1       3.711   2.016  18.849  0.00  0.00    +0.000 C 
ATOM     26  O   UNL     1       3.863   3.410  18.595  0.00  0.00    +0.000 OA
ENDBRANCH  23  26
ENDBRANCH  17  23
ENDBRANCH   1  20
TORSDOF 4
ENDMDL
MODEL 9
REMARK VINA RESULT:      -6.0      7.021      9.974
REMARK  Name = 
REMARK  5 active torsions:
REMARK  status: ('A' for Active; 'I' for Inactive)
REMARK    1  A    between atoms: C_1  and  O_2
REMARK    2  A    between atoms: O_2  and  C_3
REMARK    3  A    between atoms: C_3  and  C_5
REMARK    4  A    between atoms: C_8  and  C_9
REMARK    5  A    between atoms: C_14  and  N_15
REMARK                            x       y       z     vdW  Elec       q    Type
REMARK                         _______ _______ _______ _____ _____    ______ ____
ROOT
ATOM      1  C   UNL     1       0.055  10.921  19.284  0.00  0.00    +0.000 C 
ATOM      2  O   UNL     1      -1.134  10.752  19.566  0.00  0.00    +0.000 OA
ATOM      3  N   UNL     1       0.592  12.211  19.103  0.00  0.00    +0.000 N 
ATOM      4  C   UNL     1      -0.274  13.325  19.486  0.00  0.00    +0.000 C 
ATOM      5  C   UNL     1      -0.011  14.587  18.671  0.00  0.00    +0.000 C 
ATOM      6  C   UNL     1       1.467  15.024  18.785  0.00  0.00    +0.000 C 
ATOM      7  C   UNL     1       2.301  13.852  18.253  0.00  0.00    +0.000 C 
ATOM      8  C   UNL     1       2.014  12.524  18.945  0.00  0.00    +0.000 C 
ENDROOT
BRANCH   6   9
ATOM      9  N   UNL     1       1.724  15.525  20.157  0.00  0.00    +0.000 N 
ATOM     10  C   UNL     1       0.908  16.580  20.579  0.00  0.00    +0.000 C 
ATOM     11  O   UNL     1       0.173  17.220  19.828  0.00  0.00    +0.000 OA
ATOM     12  C   UNL     1       0.934  16.863  22.081  0.00  0.00    +0.000 C 
ATOM     13  O   UNL     1       2.205  16.762  22.692  0.00  0.00    +0.000 OA
ATOM     14  C   UNL     1       2.836  15.550  22.329  0.00  0.00    +0.000 C 
ATOM     15  C   UNL     1       2.930  15.346  20.818  0.00  0.00    +0.000 C 
ATOM     16  O   UNL     1       3.991  15.020  20.291  0.00  0.00    +0.000 OA
ENDBRANCH   6   9
BRANCH   1  20
ATOM     17  C   UNL     1       2.437   7.332  18.968  0.00  0.00    +0.000 A 
ATOM     18  C   UNL     1       1.908   7.747  20.194  0.00  0.00    +0.000 A 
ATOM     19  C   UNL     1       1.124   8.908  20.264  0.00  0.00    +0.000 A 
ATOM     20  C   UNL     1       0.870   9.677  19.116  0.00  0.00    +0.000 A 
ATOM     21  C   UNL     1       1.466   9.291  17.913  0.00  0.00    +0.000 A 
ATOM     22  C   UNL     1       2.206   8.107  17.827  0.00  0.00    +0.000 A 
BRANCH  17  23
ATOM     23  C   UNL     1       3.258   6.091  18.922  0.00  0.00    +0.000 C 
ATOM     24  O   UNL     1       3.998   5.801  18.000  0.00  0.00    +0.000 OA
BRANCH  23  26
ATOM     25  C   UNL     1       3.055   3.940  19.826  0.00  0.00    +0.000 C 
ATOM     26  O   UNL     1       3.049   5.349  20.041  0.00  0.00    +0.000 OA
ENDBRANCH  23  26
ENDBRANCH  17  23
ENDBRANCH   1  20
TORSDOF 4
ENDMDL
