MODEL 1
REMARK VINA RESULT:      -6.9      0.000      0.000
REMARK  Name = 
REMARK  10 active torsions:
REMARK  status: ('A' for Active; 'I' for Inactive)
REMARK    1  A    between atoms: C_1  and  C_2
REMARK    2  A    between atoms: N_4  and  C_5
REMARK    3  A    between atoms: C_5  and  C_6
REMARK    4  A    between atoms: C_5  and  C_7
REMARK    5  A    between atoms: C_7  and  O_8
REMARK    6  A    between atoms: C_19  and  C_20
REMARK    7  A    between atoms: C_20  and  N_21
REMARK    8  A    between atoms: N_21  and  C_22
REMARK    9  A    between atoms: N_21  and  C_23
REMARK   10  A    between atoms: C_23  and  C_24
REMARK                            x       y       z     vdW  Elec       q    Type
REMARK                         _______ _______ _______ _____ _____    ______ ____
ROOT
ATOM      1  C   UNL     1       2.840   2.136  16.973  0.00  0.00    +0.000 C 
ATOM      2  C   UNL     1       2.680   3.656  17.165  0.00  0.00    +0.000 C 
ATOM      3  C   UNL     1       1.642   3.932  18.279  0.00  0.00    +0.000 C 
ATOM      4  N   UNL     1       2.125   3.916  19.669  0.00  0.00    +0.000 N 
ATOM      5  C   UNL     1       2.505   5.097  20.326  0.00  0.00    +0.000 C 
ATOM      6  O   UNL     1       2.749   5.187  21.522  0.00  0.00    +0.000 OA
ATOM      7  C   UNL     1       2.626   6.304  19.498  0.00  0.00    +0.000 A 
ATOM      8  C   UNL     1       1.820   7.419  19.702  0.00  0.00    +0.000 A 
ATOM      9  C   UNL     1       1.893   8.458  18.784  0.00  0.00    +0.000 A 
ATOM     10 BR   UNL     1       0.774   9.965  18.953  0.00  0.00    +0.000 Br
ATOM     11  C   UNL     1       2.778   8.352  17.715  0.00  0.00    +0.000 A 
ATOM     12  N   UNL     1       3.583   7.281  17.508  0.00  0.00    +0.000 NA
ATOM     13  C   UNL     1       3.482   6.279  18.404  0.00  0.00    +0.000 A 
ATOM     14  O   UNL     1       4.355   5.232  18.296  0.00  0.00    +0.000 OA
ATOM     15  C   UNL     1       4.102   4.317  17.229  0.00  0.00    +0.000 C 
ENDROOT
BRANCH   4  16
ATOM     16  C   UNL     1       2.062   2.633  20.414  0.00  0.00    +0.000 C 
ATOM     17  C   UNL     1       1.165   2.701  21.652  0.00  0.00    +0.000 C 
BRANCH  16  18
ATOM     18  C   UNL     1       3.453   2.088  20.791  0.00  0.00    +0.000 C 
BRANCH  18  19
ATOM     19  O   UNL     1       4.477   2.798  20.097  0.00  0.00    +0.000 OA
ATOM     20  H   UNL     1       5.198   2.894  20.747  0.00  0.00    +0.000 HD
ENDBRANCH  18  19
ENDBRANCH  16  18
ENDBRANCH   4  16
BRANCH  15  21
ATOM     21  C   UNL     1       4.591   4.835  15.830  0.00  0.00    +0.000 C 
BRANCH  21  22
ATOM     22  N   UNL     1       5.787   4.211  15.207  0.00  0.00    +0.000 NA
ATOM     23  C   UNL     1       5.512   3.727  13.853  0.00  0.00    +0.000 C 
BRANCH  22  24
ATOM     24  C   UNL     1       6.951   5.103  15.271  0.00  0.00    +0.000 C 
BRANCH  24  25
ATOM     25  C   UNL     1       7.358   5.531  16.661  0.00  0.00    +0.000 A 
ATOM     26  C   UNL     1       7.439   6.894  16.976  0.00  0.00    +0.000 A 
ATOM     27  C   UNL     1       7.797   7.266  18.262  0.00  0.00    +0.000 A 
ATOM     28  N   UNL     1       8.081   6.383  19.242  0.00  0.00    +0.000 NA
ATOM     29  C   UNL     1       8.017   5.074  18.914  0.00  0.00    +0.000 A 
ATOM     30  C   UNL     1       7.668   4.602  17.656  0.00  0.00    +0.000 A 
ENDBRANCH  24  25
ENDBRANCH  22  24
ENDBRANCH  21  22
ENDBRANCH  15  21
TORSDOF 7
ENDMDL
MODEL 2
REMARK VINA RESULT:      -6.7      1.555      3.080
REMARK  Name = 
REMARK  10 active torsions:
REMARK  status: ('A' for Active; 'I' for Inactive)
REMARK    1  A    between atoms: C_1  and  C_2
REMARK    2  A    between atoms: N_4  and  C_5
REMARK    3  A    between atoms: C_5  and  C_6
REMARK    4  A    between atoms: C_5  and  C_7
REMARK    5  A    between atoms: C_7  and  O_8
REMARK    6  A    between atoms: C_19  and  C_20
REMARK    7  A    between atoms: C_20  and  N_21
REMARK    8  A    between atoms: N_21  and  C_22
REMARK    9  A    between atoms: N_21  and  C_23
REMARK   10  A    between atoms: C_23  and  C_24
REMARK                            x       y       z     vdW  Elec       q    Type
REMARK                         _______ _______ _______ _____ _____    ______ ____
ROOT
ATOM      1  C   UNL     1       3.666   3.327  16.869  0.00  0.00    +0.000 C 
ATOM      2  C   UNL     1       3.176   4.772  17.085  0.00  0.00    +0.000 C 
ATOM      3  C   UNL     1       1.875   4.759  17.921  0.00  0.00    +0.000 C 
ATOM      4  N   UNL     1       2.016   4.703  19.385  0.00  0.00    +0.000 N 
ATOM      5  C   UNL     1       1.998   5.867  20.168  0.00  0.00    +0.000 C 
ATOM      6  O   UNL     1       1.935   5.891  21.391  0.00  0.00    +0.000 OA
ATOM      7  C   UNL     1       2.073   7.147  19.451  0.00  0.00    +0.000 A 
ATOM      8  C   UNL     1       1.043   8.080  19.502  0.00  0.00    +0.000 A 
ATOM      9  C   UNL     1       1.126   9.195  18.677  0.00  0.00    +0.000 A 
ATOM     10 BR   UNL     1      -0.270  10.460  18.635  0.00  0.00    +0.000 Br
ATOM     11  C   UNL     1       2.238   9.343  17.854  0.00  0.00    +0.000 A 
ATOM     12  N   UNL     1       3.260   8.453  17.803  0.00  0.00    +0.000 NA
ATOM     13  C   UNL     1       3.149   7.372  18.600  0.00  0.00    +0.000 A 
ATOM     14  O   UNL     1       4.207   6.509  18.663  0.00  0.00    +0.000 OA
ATOM     15  C   UNL     1       4.390   5.663  17.526  0.00  0.00    +0.000 C 
ENDROOT
BRANCH   4  16
ATOM     16  C   UNL     1       2.028   3.367  20.033  0.00  0.00    +0.000 C 
ATOM     17  C   UNL     1       3.439   2.805  20.226  0.00  0.00    +0.000 C 
BRANCH  16  18
ATOM     18  C   UNL     1       1.137   2.340  19.308  0.00  0.00    +0.000 C 
BRANCH  18  19
ATOM     19  O   UNL     1       1.923   1.268  18.791  0.00  0.00    +0.000 OA
ATOM     20  H   UNL     1       1.860   1.357  17.822  0.00  0.00    +0.000 HD
ENDBRANCH  18  19
ENDBRANCH  16  18
ENDBRANCH   4  16
BRANCH  15  21
ATOM     21  C   UNL     1       5.082   6.384  16.314  0.00  0.00    +0.000 C 
BRANCH  21  22
ATOM     22  N   UNL     1       6.563   6.344  16.201  0.00  0.00    +0.000 NA
ATOM     23  C   UNL     1       7.220   6.905  17.383  0.00  0.00    +0.000 C 
BRANCH  22  24
ATOM     24  C   UNL     1       7.039   4.996  15.867  0.00  0.00    +0.000 C 
BRANCH  24  25
ATOM     25  C   UNL     1       6.899   4.606  14.414  0.00  0.00    +0.000 A 
ATOM     26  C   UNL     1       7.731   5.191  13.452  0.00  0.00    +0.000 A 
ATOM     27  C   UNL     1       7.599   4.806  12.126  0.00  0.00    +0.000 A 
ATOM     28  N   UNL     1       6.701   3.894  11.701  0.00  0.00    +0.000 NA
ATOM     29  C   UNL     1       5.895   3.355  12.640  0.00  0.00    +0.000 A 
ATOM     30  C   UNL     1       5.950   3.673  13.991  0.00  0.00    +0.000 A 
ENDBRANCH  24  25
ENDBRANCH  22  24
ENDBRANCH  21  22
ENDBRANCH  15  21
TORSDOF 7
ENDMDL
MODEL 3
REMARK VINA RESULT:      -6.5      1.298      2.975
REMARK  Name = 
REMARK  10 active torsions:
REMARK  status: ('A' for Active; 'I' for Inactive)
REMARK    1  A    between atoms: C_1  and  C_2
REMARK    2  A    between atoms: N_4  and  C_5
REMARK    3  A    between atoms: C_5  and  C_6
REMARK    4  A    between atoms: C_5  and  C_7
REMARK    5  A    between atoms: C_7  and  O_8
REMARK    6  A    between atoms: C_19  and  C_20
REMARK    7  A    between atoms: C_20  and  N_21
REMARK    8  A    between atoms: N_21  and  C_22
REMARK    9  A    between atoms: N_21  and  C_23
REMARK   10  A    between atoms: C_23  and  C_24
REMARK                            x       y       z     vdW  Elec       q    Type
REMARK                         _______ _______ _______ _____ _____    ______ ____
ROOT
ATOM      1  C   UNL     1       3.616   3.024  16.791  0.00  0.00    +0.000 C 
ATOM      2  C   UNL     1       3.156   4.456  17.128  0.00  0.00    +0.000 C 
ATOM      3  C   UNL     1       1.962   4.399  18.110  0.00  0.00    +0.000 C 
ATOM      4  N   UNL     1       2.273   4.278  19.543  0.00  0.00    +0.000 N 
ATOM      5  C   UNL     1       2.348   5.406  20.374  0.00  0.00    +0.000 C 
ATOM      6  O   UNL     1       2.429   5.374  21.596  0.00  0.00    +0.000 OA
ATOM      7  C   UNL     1       2.340   6.718  19.711  0.00  0.00    +0.000 A 
ATOM      8  C   UNL     1       1.323   7.642  19.925  0.00  0.00    +0.000 A 
ATOM      9  C   UNL     1       1.310   8.793  19.147  0.00  0.00    +0.000 A 
ATOM     10 BR   UNL     1      -0.080  10.052  19.325  0.00  0.00    +0.000 Br
ATOM     11  C   UNL     1       2.318   8.983  18.207  0.00  0.00    +0.000 A 
ATOM     12  N   UNL     1       3.327   8.101  17.997  0.00  0.00    +0.000 NA
ATOM     13  C   UNL     1       3.309   6.985  18.752  0.00  0.00    +0.000 A 
ATOM     14  O   UNL     1       4.366   6.125  18.651  0.00  0.00    +0.000 OA
ATOM     15  C   UNL     1       4.414   5.332  17.463  0.00  0.00    +0.000 C 
ENDROOT
BRANCH   4  16
ATOM     16  C   UNL     1       2.361   2.915  20.124  0.00  0.00    +0.000 C 
ATOM     17  C   UNL     1       1.234   2.609  21.114  0.00  0.00    +0.000 C 
BRANCH  16  18
ATOM     18  C   UNL     1       3.731   2.623  20.767  0.00  0.00    +0.000 C 
BRANCH  18  19
ATOM     19  O   UNL     1       4.720   2.397  19.766  0.00  0.00    +0.000 OA
ATOM     20  H   UNL     1       4.900   1.439  19.806  0.00  0.00    +0.000 HD
ENDBRANCH  18  19
ENDBRANCH  16  18
ENDBRANCH   4  16
BRANCH  15  21
ATOM     21  C   UNL     1       4.960   6.109  16.213  0.00  0.00    +0.000 C 
BRANCH  21  22
ATOM     22  N   UNL     1       6.422   6.335  16.086  0.00  0.00    +0.000 NA
ATOM     23  C   UNL     1       6.981   6.996  17.266  0.00  0.00    +0.000 C 
BRANCH  22  24
ATOM     24  C   UNL     1       7.128   5.097  15.735  0.00  0.00    +0.000 C 
BRANCH  24  25
ATOM     25  C   UNL     1       6.963   4.645  14.303  0.00  0.00    +0.000 A 
ATOM     26  C   UNL     1       5.996   3.684  13.981  0.00  0.00    +0.000 A 
ATOM     27  C   UNL     1       5.849   3.296  12.659  0.00  0.00    +0.000 A 
ATOM     28  N   UNL     1       6.593   3.792  11.649  0.00  0.00    +0.000 NA
ATOM     29  C   UNL     1       7.533   4.703  11.981  0.00  0.00    +0.000 A 
ATOM     30  C   UNL     1       7.757   5.156  13.275  0.00  0.00    +0.000 A 
ENDBRANCH  24  25
ENDBRANCH  22  24
ENDBRANCH  21  22
ENDBRANCH  15  21
TORSDOF 7
ENDMDL
MODEL 4
REMARK VINA RESULT:      -6.4      0.705      1.226
REMARK  Name = 
REMARK  10 active torsions:
REMARK  status: ('A' for Active; 'I' for Inactive)
REMARK    1  A    between atoms: C_1  and  C_2
REMARK    2  A    between atoms: N_4  and  C_5
REMARK    3  A    between atoms: C_5  and  C_6
REMARK    4  A    between atoms: C_5  and  C_7
REMARK    5  A    between atoms: C_7  and  O_8
REMARK    6  A    between atoms: C_19  and  C_20
REMARK    7  A    between atoms: C_20  and  N_21
REMARK    8  A    between atoms: N_21  and  C_22
REMARK    9  A    between atoms: N_21  and  C_23
REMARK   10  A    between atoms: C_23  and  C_24
REMARK                            x       y       z     vdW  Elec       q    Type
REMARK                         _______ _______ _______ _____ _____    ______ ____
ROOT
ATOM      1  C   UNL     1       2.727   2.356  16.688  0.00  0.00    +0.000 C 
ATOM      2  C   UNL     1       2.629   3.873  16.940  0.00  0.00    +0.000 C 
ATOM      3  C   UNL     1       1.519   4.156  17.980  0.00  0.00    +0.000 C 
ATOM      4  N   UNL     1       1.887   4.053  19.402  0.00  0.00    +0.000 N 
ATOM      5  C   UNL     1       2.272   5.182  20.142  0.00  0.00    +0.000 C 
ATOM      6  O   UNL     1       2.422   5.207  21.357  0.00  0.00    +0.000 OA
ATOM      7  C   UNL     1       2.520   6.416  19.384  0.00  0.00    +0.000 A 
ATOM      8  C   UNL     1       1.757   7.563  19.578  0.00  0.00    +0.000 A 
ATOM      9  C   UNL     1       1.956   8.636  18.719  0.00  0.00    +0.000 A 
ATOM     10 BR   UNL     1       0.905  10.192  18.871  0.00  0.00    +0.000 Br
ATOM     11  C   UNL     1       2.918   8.529  17.719  0.00  0.00    +0.000 A 
ATOM     12  N   UNL     1       3.683   7.425  17.526  0.00  0.00    +0.000 NA
ATOM     13  C   UNL     1       3.460   6.392  18.361  0.00  0.00    +0.000 A 
ATOM     14  O   UNL     1       4.284   5.306  18.273  0.00  0.00    +0.000 OA
ATOM     15  C   UNL     1       4.073   4.452  17.146  0.00  0.00    +0.000 C 
ENDROOT
BRANCH   4  16
ATOM     16  C   UNL     1       1.699   2.745  20.078  0.00  0.00    +0.000 C 
ATOM     17  C   UNL     1       0.612   1.884  19.430  0.00  0.00    +0.000 C 
BRANCH  16  18
ATOM     18  C   UNL     1       1.441   2.883  21.591  0.00  0.00    +0.000 C 
BRANCH  18  19
ATOM     19  O   UNL     1       2.585   2.474  22.336  0.00  0.00    +0.000 OA
ATOM     20  H   UNL     1       3.153   2.015  21.689  0.00  0.00    +0.000 HD
ENDBRANCH  18  19
ENDBRANCH  16  18
ENDBRANCH   4  16
BRANCH  15  21
ATOM     21  C   UNL     1       4.699   5.004  15.817  0.00  0.00    +0.000 C 
BRANCH  21  22
ATOM     22  N   UNL     1       5.887   4.323  15.242  0.00  0.00    +0.000 NA
ATOM     23  C   UNL     1       5.639   3.838  13.883  0.00  0.00    +0.000 C 
BRANCH  22  24
ATOM     24  C   UNL     1       7.086   5.164  15.340  0.00  0.00    +0.000 C 
BRANCH  24  25
ATOM     25  C   UNL     1       7.439   5.623  16.735  0.00  0.00    +0.000 A 
ATOM     26  C   UNL     1       7.668   4.677  17.743  0.00  0.00    +0.000 A 
ATOM     27  C   UNL     1       8.007   5.118  19.013  0.00  0.00    +0.000 A 
ATOM     28  N   UNL     1       8.127   6.420  19.342  0.00  0.00    +0.000 NA
ATOM     29  C   UNL     1       7.884   7.317  18.363  0.00  0.00    +0.000 A 
ATOM     30  C   UNL     1       7.539   6.976  17.062  0.00  0.00    +0.000 A 
ENDBRANCH  24  25
ENDBRANCH  22  24
ENDBRANCH  21  22
ENDBRANCH  15  21
TORSDOF 7
ENDMDL
MODEL 5
REMARK VINA RESULT:      -6.4      3.134      6.524
REMARK  Name = 
REMARK  10 active torsions:
REMARK  status: ('A' for Active; 'I' for Inactive)
REMARK    1  A    between atoms: C_1  and  C_2
REMARK    2  A    between atoms: N_4  and  C_5
REMARK    3  A    between atoms: C_5  and  C_6
REMARK    4  A    between atoms: C_5  and  C_7
REMARK    5  A    between atoms: C_7  and  O_8
REMARK    6  A    between atoms: C_19  and  C_20
REMARK    7  A    between atoms: C_20  and  N_21
REMARK    8  A    between atoms: N_21  and  C_22
REMARK    9  A    between atoms: N_21  and  C_23
REMARK   10  A    between atoms: C_23  and  C_24
REMARK                            x       y       z     vdW  Elec       q    Type
REMARK                         _______ _______ _______ _____ _____    ______ ____
ROOT
ATOM      1  C   UNL     1       4.601   7.133  15.510  0.00  0.00    +0.000 C 
ATOM      2  C   UNL     1       3.842   6.474  16.679  0.00  0.00    +0.000 C 
ATOM      3  C   UNL     1       4.496   5.115  17.021  0.00  0.00    +0.000 C 
ATOM      4  N   UNL     1       5.656   5.135  17.928  0.00  0.00    +0.000 N 
ATOM      5  C   UNL     1       5.510   4.926  19.308  0.00  0.00    +0.000 C 
ATOM      6  O   UNL     1       6.435   4.757  20.093  0.00  0.00    +0.000 OA
ATOM      7  C   UNL     1       4.139   4.925  19.835  0.00  0.00    +0.000 A 
ATOM      8  C   UNL     1       3.583   3.800  20.436  0.00  0.00    +0.000 A 
ATOM      9  C   UNL     1       2.236   3.833  20.771  0.00  0.00    +0.000 A 
ATOM     10 BR   UNL     1       1.397   2.319  21.514  0.00  0.00    +0.000 Br
ATOM     11  C   UNL     1       1.506   4.990  20.513  0.00  0.00    +0.000 A 
ATOM     12  N   UNL     1       2.035   6.102  19.944  0.00  0.00    +0.000 NA
ATOM     13  C   UNL     1       3.339   6.039  19.614  0.00  0.00    +0.000 A 
ATOM     14  O   UNL     1       3.937   7.174  19.142  0.00  0.00    +0.000 OA
ATOM     15  C   UNL     1       3.605   7.544  17.802  0.00  0.00    +0.000 C 
ENDROOT
BRANCH   4  16
ATOM     16  C   UNL     1       7.009   5.235  17.326  0.00  0.00    +0.000 C 
ATOM     17  C   UNL     1       7.522   6.674  17.236  0.00  0.00    +0.000 C 
BRANCH  16  18
ATOM     18  C   UNL     1       7.107   4.546  15.951  0.00  0.00    +0.000 C 
BRANCH  18  19
ATOM     19  O   UNL     1       7.572   5.460  14.960  0.00  0.00    +0.000 OA
ATOM     20  H   UNL     1       6.765   5.890  14.619  0.00  0.00    +0.000 HD
ENDBRANCH  18  19
ENDBRANCH  16  18
ENDBRANCH   4  16
BRANCH  15  21
ATOM     21  C   UNL     1       2.212   8.255  17.675  0.00  0.00    +0.000 C 
BRANCH  21  22
ATOM     22  N   UNL     1       1.920   9.429  18.538  0.00  0.00    +0.000 NA
ATOM     23  C   UNL     1       2.373  10.683  17.932  0.00  0.00    +0.000 C 
BRANCH  22  24
ATOM     24  C   UNL     1       0.508   9.464  18.936  0.00  0.00    +0.000 C 
BRANCH  24  25
ATOM     25  C   UNL     1       0.253   9.865  20.370  0.00  0.00    +0.000 A 
ATOM     26  C   UNL     1      -0.382  11.081  20.652  0.00  0.00    +0.000 A 
ATOM     27  C   UNL     1      -0.623  11.423  21.973  0.00  0.00    +0.000 A 
ATOM     28  N   UNL     1      -0.273  10.646  23.019  0.00  0.00    +0.000 NA
ATOM     29  C   UNL     1       0.356   9.487  22.729  0.00  0.00    +0.000 A 
ATOM     30  C   UNL     1       0.641   9.057  21.440  0.00  0.00    +0.000 A 
ENDBRANCH  24  25
ENDBRANCH  22  24
ENDBRANCH  21  22
ENDBRANCH  15  21
TORSDOF 7
ENDMDL
MODEL 6
REMARK VINA RESULT:      -6.3      3.331      6.715
REMARK  Name = 
REMARK  10 active torsions:
REMARK  status: ('A' for Active; 'I' for Inactive)
REMARK    1  A    between atoms: C_1  and  C_2
REMARK    2  A    between atoms: N_4  and  C_5
REMARK    3  A    between atoms: C_5  and  C_6
REMARK    4  A    between atoms: C_5  and  C_7
REMARK    5  A    between atoms: C_7  and  O_8
REMARK    6  A    between atoms: C_19  and  C_20
REMARK    7  A    between atoms: C_20  and  N_21
REMARK    8  A    between atoms: N_21  and  C_22
REMARK    9  A    between atoms: N_21  and  C_23
REMARK   10  A    between atoms: C_23  and  C_24
REMARK                            x       y       z     vdW  Elec       q    Type
REMARK                         _______ _______ _______ _____ _____    ______ ____
ROOT
ATOM      1  C   UNL     1       1.772   5.875  21.331  0.00  0.00    +0.000 C 
ATOM      2  C   UNL     1       2.750   5.976  20.143  0.00  0.00    +0.000 C 
ATOM      3  C   UNL     1       3.547   4.657  20.014  0.00  0.00    +0.000 C 
ATOM      4  N   UNL     1       2.917   3.560  19.263  0.00  0.00    +0.000 N 
ATOM      5  C   UNL     1       3.189   3.354  17.901  0.00  0.00    +0.000 C 
ATOM      6  O   UNL     1       2.844   2.372  17.257  0.00  0.00    +0.000 OA
ATOM      7  C   UNL     1       3.934   4.415  17.208  0.00  0.00    +0.000 A 
ATOM      8  C   UNL     1       5.188   4.188  16.652  0.00  0.00    +0.000 A 
ATOM      9  C   UNL     1       5.889   5.276  16.149  0.00  0.00    +0.000 A 
ATOM     10 BR   UNL     1       7.626   5.057  15.453  0.00  0.00    +0.000 Br
ATOM     11  C   UNL     1       5.304   6.538  16.204  0.00  0.00    +0.000 A 
ATOM     12  N   UNL     1       4.076   6.776  16.727  0.00  0.00    +0.000 NA
ATOM     13  C   UNL     1       3.423   5.706  17.222  0.00  0.00    +0.000 A 
ATOM     14  O   UNL     1       2.139   5.883  17.656  0.00  0.00    +0.000 OA
ATOM     15  C   UNL     1       1.989   6.565  18.903  0.00  0.00    +0.000 C 
ENDROOT
BRANCH   4  16
ATOM     16  C   UNL     1       2.097   2.579  20.017  0.00  0.00    +0.000 C 
ATOM     17  C   UNL     1       0.594   2.846  19.914  0.00  0.00    +0.000 C 
BRANCH  16  18
ATOM     18  C   UNL     1       2.519   2.455  21.495  0.00  0.00    +0.000 C 
BRANCH  18  19
ATOM     19  O   UNL     1       1.375   2.462  22.347  0.00  0.00    +0.000 OA
ATOM     20  H   UNL     1       1.468   1.660  22.895  0.00  0.00    +0.000 HD
ENDBRANCH  18  19
ENDBRANCH  16  18
ENDBRANCH   4  16
BRANCH  15  21
ATOM     21  C   UNL     1       2.138   8.123  18.787  0.00  0.00    +0.000 C 
BRANCH  21  22
ATOM     22  N   UNL     1       1.043   8.992  19.292  0.00  0.00    +0.000 NA
ATOM     23  C   UNL     1       1.287   9.442  20.663  0.00  0.00    +0.000 C 
BRANCH  22  24
ATOM     24  C   UNL     1       0.767  10.098  18.367  0.00  0.00    +0.000 C 
BRANCH  24  25
ATOM     25  C   UNL     1      -0.684  10.506  18.267  0.00  0.00    +0.000 A 
ATOM     26  C   UNL     1      -1.531   9.854  17.362  0.00  0.00    +0.000 A 
ATOM     27  C   UNL     1      -2.863  10.231  17.297  0.00  0.00    +0.000 A 
ATOM     28  N   UNL     1      -3.400  11.205  18.061  0.00  0.00    +0.000 NA
ATOM     29  C   UNL     1      -2.563  11.835  18.913  0.00  0.00    +0.000 A 
ATOM     30  C   UNL     1      -1.216  11.530  19.051  0.00  0.00    +0.000 A 
ENDBRANCH  24  25
ENDBRANCH  22  24
ENDBRANCH  21  22
ENDBRANCH  15  21
TORSDOF 7
ENDMDL
MODEL 7
REMARK VINA RESULT:      -6.2      3.260      6.375
REMARK  Name = 
REMARK  10 active torsions:
REMARK  status: ('A' for Active; 'I' for Inactive)
REMARK    1  A    between atoms: C_1  and  C_2
REMARK    2  A    between atoms: N_4  and  C_5
REMARK    3  A    between atoms: C_5  and  C_6
REMARK    4  A    between atoms: C_5  and  C_7
REMARK    5  A    between atoms: C_7  and  O_8
REMARK    6  A    between atoms: C_19  and  C_20
REMARK    7  A    between atoms: C_20  and  N_21
REMARK    8  A    between atoms: N_21  and  C_22
REMARK    9  A    between atoms: N_21  and  C_23
REMARK   10  A    between atoms: C_23  and  C_24
REMARK                            x       y       z     vdW  Elec       q    Type
REMARK                         _______ _______ _______ _____ _____    ______ ____
ROOT
ATOM      1  C   UNL     1       2.192   5.769  21.415  0.00  0.00    +0.000 C 
ATOM      2  C   UNL     1       3.065   5.854  20.148  0.00  0.00    +0.000 C 
ATOM      3  C   UNL     1       3.682   4.468  19.850  0.00  0.00    +0.000 C 
ATOM      4  N   UNL     1       2.860   3.513  19.089  0.00  0.00    +0.000 N 
ATOM      5  C   UNL     1       2.982   3.389  17.696  0.00  0.00    +0.000 C 
ATOM      6  O   UNL     1       2.464   2.507  17.022  0.00  0.00    +0.000 OA
ATOM      7  C   UNL     1       3.785   4.410  17.009  0.00  0.00    +0.000 A 
ATOM      8  C   UNL     1       4.948   4.088  16.318  0.00  0.00    +0.000 A 
ATOM      9  C   UNL     1       5.728   5.126  15.826  0.00  0.00    +0.000 A 
ATOM     10 BR   UNL     1       7.356   4.768  14.949  0.00  0.00    +0.000 Br
ATOM     11  C   UNL     1       5.306   6.437  16.025  0.00  0.00    +0.000 A 
ATOM     12  N   UNL     1       4.167   6.771  16.682  0.00  0.00    +0.000 NA
ATOM     13  C   UNL     1       3.437   5.746  17.163  0.00  0.00    +0.000 A 
ATOM     14  O   UNL     1       2.227   6.032  17.732  0.00  0.00    +0.000 OA
ATOM     15  C   UNL     1       2.273   6.624  19.032  0.00  0.00    +0.000 C 
ENDROOT
BRANCH   4  16
ATOM     16  C   UNL     1       1.998   2.574  19.850  0.00  0.00    +0.000 C 
ATOM     17  C   UNL     1       0.532   3.010  19.901  0.00  0.00    +0.000 C 
BRANCH  16  18
ATOM     18  C   UNL     1       2.523   2.296  21.272  0.00  0.00    +0.000 C 
BRANCH  18  19
ATOM     19  O   UNL     1       1.483   2.458  22.234  0.00  0.00    +0.000 OA
ATOM     20  H   UNL     1       1.211   3.392  22.152  0.00  0.00    +0.000 HD
ENDBRANCH  18  19
ENDBRANCH  16  18
ENDBRANCH   4  16
BRANCH  15  21
ATOM     21  C   UNL     1       2.598   8.159  19.011  0.00  0.00    +0.000 C 
BRANCH  21  22
ATOM     22  N   UNL     1       1.479   9.135  19.065  0.00  0.00    +0.000 NA
ATOM     23  C   UNL     1       1.012   9.510  17.729  0.00  0.00    +0.000 C 
BRANCH  22  24
ATOM     24  C   UNL     1       0.397   8.662  19.937  0.00  0.00    +0.000 C 
BRANCH  24  25
ATOM     25  C   UNL     1       0.006   9.608  21.048  0.00  0.00    +0.000 A 
ATOM     26  C   UNL     1      -0.243   9.111  22.333  0.00  0.00    +0.000 A 
ATOM     27  C   UNL     1      -0.584   9.997  23.342  0.00  0.00    +0.000 A 
ATOM     28  N   UNL     1      -0.696  11.329  23.158  0.00  0.00    +0.000 NA
ATOM     29  C   UNL     1      -0.471  11.788  21.908  0.00  0.00    +0.000 A 
ATOM     30  C   UNL     1      -0.124  10.981  20.832  0.00  0.00    +0.000 A 
ENDBRANCH  24  25
ENDBRANCH  22  24
ENDBRANCH  21  22
ENDBRANCH  15  21
TORSDOF 7
ENDMDL
MODEL 8
REMARK VINA RESULT:      -5.8      3.367      6.415
REMARK  Name = 
REMARK  10 active torsions:
REMARK  status: ('A' for Active; 'I' for Inactive)
REMARK    1  A    between atoms: C_1  and  C_2
REMARK    2  A    between atoms: N_4  and  C_5
REMARK    3  A    between atoms: C_5  and  C_6
REMARK    4  A    between atoms: C_5  and  C_7
REMARK    5  A    between atoms: C_7  and  O_8
REMARK    6  A    between atoms: C_19  and  C_20
REMARK    7  A    between atoms: C_20  and  N_21
REMARK    8  A    between atoms: N_21  and  C_22
REMARK    9  A    between atoms: N_21  and  C_23
REMARK   10  A    between atoms: C_23  and  C_24
REMARK                            x       y       z     vdW  Elec       q    Type
REMARK                         _______ _______ _______ _____ _____    ______ ____
ROOT
ATOM      1  C   UNL     1       2.063   6.133  21.337  0.00  0.00    +0.000 C 
ATOM      2  C   UNL     1       2.961   6.151  20.084  0.00  0.00    +0.000 C 
ATOM      3  C   UNL     1       3.595   4.754  19.880  0.00  0.00    +0.000 C 
ATOM      4  N   UNL     1       2.795   3.750  19.160  0.00  0.00    +0.000 N 
ATOM      5  C   UNL     1       2.946   3.546  17.780  0.00  0.00    +0.000 C 
ATOM      6  O   UNL     1       2.450   2.622  17.148  0.00  0.00    +0.000 OA
ATOM      7  C   UNL     1       3.756   4.532  17.051  0.00  0.00    +0.000 A 
ATOM      8  C   UNL     1       4.935   4.179  16.403  0.00  0.00    +0.000 A 
ATOM      9  C   UNL     1       5.717   5.194  15.867  0.00  0.00    +0.000 A 
ATOM     10 BR   UNL     1       7.366   4.799  15.045  0.00  0.00    +0.000 Br
ATOM     11  C   UNL     1       5.282   6.511  15.980  0.00  0.00    +0.000 A 
ATOM     12  N   UNL     1       4.127   6.872  16.593  0.00  0.00    +0.000 NA
ATOM     13  C   UNL     1       3.395   5.872  17.119  0.00  0.00    +0.000 A 
ATOM     14  O   UNL     1       2.172   6.180  17.646  0.00  0.00    +0.000 OA
ATOM     15  C   UNL     1       2.187   6.847  18.910  0.00  0.00    +0.000 C 
ENDROOT
BRANCH   4  16
ATOM     16  C   UNL     1       1.925   2.850  19.958  0.00  0.00    +0.000 C 
ATOM     17  C   UNL     1       0.466   3.312  20.007  0.00  0.00    +0.000 C 
BRANCH  16  18
ATOM     18  C   UNL     1       2.458   2.608  21.383  0.00  0.00    +0.000 C 
BRANCH  18  19
ATOM     19  O   UNL     1       1.384   2.538  22.318  0.00  0.00    +0.000 OA
ATOM     20  H   UNL     1       0.575   2.586  21.773  0.00  0.00    +0.000 HD
ENDBRANCH  18  19
ENDBRANCH  16  18
ENDBRANCH   4  16
BRANCH  15  21
ATOM     21  C   UNL     1       2.500   8.381  18.805  0.00  0.00    +0.000 C 
BRANCH  21  22
ATOM     22  N   UNL     1       1.404   9.359  19.026  0.00  0.00    +0.000 NA
ATOM     23  C   UNL     1       0.434   9.355  17.930  0.00  0.00    +0.000 C 
BRANCH  22  24
ATOM     24  C   UNL     1       0.781   9.176  20.343  0.00  0.00    +0.000 C 
BRANCH  24  25
ATOM     25  C   UNL     1       0.377  10.450  21.046  0.00  0.00    +0.000 A 
ATOM     26  C   UNL     1       0.910  11.676  20.629  0.00  0.00    +0.000 A 
ATOM     27  C   UNL     1       0.513  12.836  21.275  0.00  0.00    +0.000 A 
ATOM     28  N   UNL     1      -0.364  12.856  22.300  0.00  0.00    +0.000 NA
ATOM     29  C   UNL     1      -0.853  11.662  22.701  0.00  0.00    +0.000 A 
ATOM     30  C   UNL     1      -0.518  10.447  22.117  0.00  0.00    +0.000 A 
ENDBRANCH  24  25
ENDBRANCH  22  24
ENDBRANCH  21  22
ENDBRANCH  15  21
TORSDOF 7
ENDMDL
MODEL 9
REMARK VINA RESULT:      -5.7      5.552      8.319
REMARK  Name = 
REMARK  10 active torsions:
REMARK  status: ('A' for Active; 'I' for Inactive)
REMARK    1  A    between atoms: C_1  and  C_2
REMARK    2  A    between atoms: N_4  and  C_5
REMARK    3  A    between atoms: C_5  and  C_6
REMARK    4  A    between atoms: C_5  and  C_7
REMARK    5  A    between atoms: C_7  and  O_8
REMARK    6  A    between atoms: C_19  and  C_20
REMARK    7  A    between atoms: C_20  and  N_21
REMARK    8  A    between atoms: N_21  and  C_22
REMARK    9  A    between atoms: N_21  and  C_23
REMARK   10  A    between atoms: C_23  and  C_24
REMARK                            x       y       z     vdW  Elec       q    Type
REMARK                         _______ _______ _______ _____ _____    ______ ____
ROOT
ATOM      1  C   UNL     1      -1.284   9.640  17.167  0.00  0.00    +0.000 C 
ATOM      2  C   UNL     1      -0.824  10.735  18.149  0.00  0.00    +0.000 C 
ATOM      3  C   UNL     1      -1.773  11.952  18.052  0.00  0.00    +0.000 C 
ATOM      4  N   UNL     1      -3.010  11.907  18.850  0.00  0.00    +0.000 N 
ATOM      5  C   UNL     1      -3.083  12.497  20.121  0.00  0.00    +0.000 C 
ATOM      6  O   UNL     1      -4.113  12.651  20.765  0.00  0.00    +0.000 OA
ATOM      7  C   UNL     1      -1.816  12.946  20.715  0.00  0.00    +0.000 A 
ATOM      8  C   UNL     1      -1.576  14.284  21.009  0.00  0.00    +0.000 A 
ATOM      9  C   UNL     1      -0.302  14.644  21.427  0.00  0.00    +0.000 A 
ATOM     10 BR   UNL     1       0.119  16.450  21.766  0.00  0.00    +0.000 Br
ATOM     11  C   UNL     1       0.671  13.657  21.554  0.00  0.00    +0.000 A 
ATOM     12  N   UNL     1       0.451  12.345  21.288  0.00  0.00    +0.000 NA
ATOM     13  C   UNL     1      -0.789  12.023  20.869  0.00  0.00    +0.000 A 
ATOM     14  O   UNL     1      -1.084  10.700  20.699  0.00  0.00    +0.000 OA
ATOM     15  C   UNL     1      -0.521  10.078  19.542  0.00  0.00    +0.000 C 
ENDROOT
BRANCH   4  16
ATOM     16  C   UNL     1      -4.230  11.350  18.213  0.00  0.00    +0.000 C 
ATOM     17  C   UNL     1      -4.328   9.827  18.331  0.00  0.00    +0.000 C 
BRANCH  16  18
ATOM     18  C   UNL     1      -4.392  11.784  16.743  0.00  0.00    +0.000 C 
BRANCH  18  19
ATOM     19  O   UNL     1      -4.471  10.647  15.888  0.00  0.00    +0.000 OA
ATOM     20  H   UNL     1      -4.928  10.968  15.087  0.00  0.00    +0.000 HD
ENDBRANCH  18  19
ENDBRANCH  16  18
ENDBRANCH   4  16
BRANCH  15  21
ATOM     21  C   UNL     1       0.991   9.692  19.712  0.00  0.00    +0.000 C 
BRANCH  21  22
ATOM     22  N   UNL     1       1.531   8.535  18.953  0.00  0.00    +0.000 NA
ATOM     23  C   UNL     1       2.324   8.956  17.797  0.00  0.00    +0.000 C 
BRANCH  22  24
ATOM     24  C   UNL     1       2.250   7.605  19.833  0.00  0.00    +0.000 C 
BRANCH  24  25
ATOM     25  C   UNL     1       1.977   6.141  19.584  0.00  0.00    +0.000 A 
ATOM     26  C   UNL     1       2.209   5.594  18.315  0.00  0.00    +0.000 A 
ATOM     27  C   UNL     1       1.968   4.245  18.111  0.00  0.00    +0.000 A 
ATOM     28  N   UNL     1       1.513   3.415  19.073  0.00  0.00    +0.000 NA
ATOM     29  C   UNL     1       1.277   3.964  20.284  0.00  0.00    +0.000 A 
ATOM     30  C   UNL     1       1.487   5.303  20.587  0.00  0.00    +0.000 A 
ENDBRANCH  24  25
ENDBRANCH  22  24
ENDBRANCH  21  22
ENDBRANCH  15  21
TORSDOF 7
ENDMDL
