MODEL 1
REMARK VINA RESULT:      -7.5      0.000      0.000
REMARK  Name = 
REMARK  9 active torsions:
REMARK  status: ('A' for Active; 'I' for Inactive)
REMARK    1  A    between atoms: C_1  and  C_2
REMARK    2  A    between atoms: C_2  and  C_3
REMARK    3  A    between atoms: C_2  and  C_4
REMARK    4  A    between atoms: C_4  and  N_5
REMARK    5  A    between atoms: C_4  and  C_6
REMARK    6  A    between atoms: N_8  and  C_9
REMARK    7  A    between atoms: C_9  and  C_10
REMARK    8  A    between atoms: C_15  and  O_16
REMARK    9  A    between atoms: O_16  and  C_17
REMARK                            x       y       z     vdW  Elec       q    Type
REMARK                         _______ _______ _______ _____ _____    ______ ____
ROOT
ATOM      1  C   UNL     1       3.968   3.146  17.621  0.00  0.00    +0.000 C 
ENDROOT
BRANCH   1   2
ATOM      2  C   UNL     1       3.099   3.368  18.843  0.00  0.00    +0.000 A 
ATOM      3  C   UNL     1       2.393   2.302  19.436  0.00  0.00    +0.000 A 
ATOM      4  C   UNL     1       1.701   2.459  20.638  0.00  0.00    +0.000 A 
ATOM      5  C   UNL     1       1.700   3.692  21.277  0.00  0.00    +0.000 A 
ATOM      6  C   UNL     1       2.366   4.772  20.699  0.00  0.00    +0.000 A 
ATOM      7  C   UNL     1       3.038   4.625  19.477  0.00  0.00    +0.000 A 
BRANCH   7   8
ATOM      8  O   UNL     1       3.771   5.702  19.065  0.00  0.00    +0.000 OA
BRANCH   8   9
ATOM      9  C   UNL     1       3.068   6.672  18.295  0.00  0.00    +0.000 C 
ATOM     10  F   UNL     1       2.651   7.739  19.009  0.00  0.00    +0.000 F 
ATOM     11  F   UNL     1       3.845   7.112  17.284  0.00  0.00    +0.000 F 
ATOM     12  F   UNL     1       1.978   6.073  17.760  0.00  0.00    +0.000 F 
ENDBRANCH   8   9
ENDBRANCH   7   8
ENDBRANCH   1   2
BRANCH   1  15
ATOM     13  C   UNL     1       5.837   4.438  16.659  0.00  0.00    +0.000 C 
ATOM     14  O   UNL     1       5.287   4.566  15.567  0.00  0.00    +0.000 OA
ATOM     15  N   UNL     1       5.285   3.734  17.710  0.00  0.00    +0.000 N 
ATOM     16  H   UNL     1       5.672   3.898  18.629  0.00  0.00    +0.000 HD
BRANCH  13  17
ATOM     17  C   UNL     1       7.189   5.100  17.022  0.00  0.00    +0.000 C 
BRANCH  17  19
ATOM     18  C   UNL     1       7.664   5.871  19.414  0.00  0.00    +0.000 C 
ATOM     19  C   UNL     1       7.007   6.219  18.074  0.00  0.00    +0.000 C 
ATOM     20  C   UNL     1       7.609   7.536  17.565  0.00  0.00    +0.000 C 
ENDBRANCH  17  19
BRANCH  17  21
ATOM     21  N   UNL     1       8.087   4.013  17.483  0.00  0.00    +0.000 NA
ATOM     22  H   UNL     1       8.845   4.441  18.020  0.00  0.00    +0.000 HD
ATOM     23  H   UNL     1       8.533   3.573  16.681  0.00  0.00    +0.000 HD
ENDBRANCH  17  21
ENDBRANCH  13  17
ENDBRANCH   1  15
TORSDOF 7
ENDMDL
MODEL 2
REMARK VINA RESULT:      -7.3      0.798      1.182
REMARK  Name = 
REMARK  9 active torsions:
REMARK  status: ('A' for Active; 'I' for Inactive)
REMARK    1  A    between atoms: C_1  and  C_2
REMARK    2  A    between atoms: C_2  and  C_3
REMARK    3  A    between atoms: C_2  and  C_4
REMARK    4  A    between atoms: C_4  and  N_5
REMARK    5  A    between atoms: C_4  and  C_6
REMARK    6  A    between atoms: N_8  and  C_9
REMARK    7  A    between atoms: C_9  and  C_10
REMARK    8  A    between atoms: C_15  and  O_16
REMARK    9  A    between atoms: O_16  and  C_17
REMARK                            x       y       z     vdW  Elec       q    Type
REMARK                         _______ _______ _______ _____ _____    ______ ____
ROOT
ATOM      1  C   UNL     1       3.612   4.002  17.035  0.00  0.00    +0.000 C 
ENDROOT
BRANCH   1   2
ATOM      2  C   UNL     1       2.642   3.959  18.199  0.00  0.00    +0.000 A 
ATOM      3  C   UNL     1       1.857   2.816  18.448  0.00  0.00    +0.000 A 
ATOM      4  C   UNL     1       1.062   2.706  19.591  0.00  0.00    +0.000 A 
ATOM      5  C   UNL     1       1.036   3.743  20.514  0.00  0.00    +0.000 A 
ATOM      6  C   UNL     1       1.781   4.898  20.279  0.00  0.00    +0.000 A 
ATOM      7  C   UNL     1       2.558   5.023  19.118  0.00  0.00    +0.000 A 
BRANCH   7   8
ATOM      8  O   UNL     1       3.353   6.131  19.048  0.00  0.00    +0.000 OA
BRANCH   8   9
ATOM      9  C   UNL     1       2.763   7.281  18.452  0.00  0.00    +0.000 C 
ATOM     10  F   UNL     1       1.712   7.004  17.651  0.00  0.00    +0.000 F 
ATOM     11  F   UNL     1       2.354   8.140  19.409  0.00  0.00    +0.000 F 
ATOM     12  F   UNL     1       3.709   7.899  17.706  0.00  0.00    +0.000 F 
ENDBRANCH   8   9
ENDBRANCH   7   8
ENDBRANCH   1   2
BRANCH   1  15
ATOM     13  C   UNL     1       6.016   4.278  16.553  0.00  0.00    +0.000 C 
ATOM     14  O   UNL     1       5.965   3.605  15.524  0.00  0.00    +0.000 OA
ATOM     15  N   UNL     1       4.927   4.498  17.371  0.00  0.00    +0.000 N 
ATOM     16  H   UNL     1       4.993   5.258  18.034  0.00  0.00    +0.000 HD
BRANCH  13  17
ATOM     17  C   UNL     1       7.288   5.018  17.031  0.00  0.00    +0.000 C 
BRANCH  17  19
ATOM     18  C   UNL     1       7.540   5.842  19.440  0.00  0.00    +0.000 C 
ATOM     19  C   UNL     1       6.948   6.126  18.055  0.00  0.00    +0.000 C 
ATOM     20  C   UNL     1       7.475   7.484  17.571  0.00  0.00    +0.000 C 
ENDBRANCH  17  19
BRANCH  17  21
ATOM     21  N   UNL     1       8.202   3.987  17.578  0.00  0.00    +0.000 NA
ATOM     22  H   UNL     1       9.154   4.230  17.294  0.00  0.00    +0.000 HD
ATOM     23  H   UNL     1       8.007   3.088  17.141  0.00  0.00    +0.000 HD
ENDBRANCH  17  21
ENDBRANCH  13  17
ENDBRANCH   1  15
TORSDOF 7
ENDMDL
MODEL 3
REMARK VINA RESULT:      -7.0      0.786      1.087
REMARK  Name = 
REMARK  9 active torsions:
REMARK  status: ('A' for Active; 'I' for Inactive)
REMARK    1  A    between atoms: C_1  and  C_2
REMARK    2  A    between atoms: C_2  and  C_3
REMARK    3  A    between atoms: C_2  and  C_4
REMARK    4  A    between atoms: C_4  and  N_5
REMARK    5  A    between atoms: C_4  and  C_6
REMARK    6  A    between atoms: N_8  and  C_9
REMARK    7  A    between atoms: C_9  and  C_10
REMARK    8  A    between atoms: C_15  and  O_16
REMARK    9  A    between atoms: O_16  and  C_17
REMARK                            x       y       z     vdW  Elec       q    Type
REMARK                         _______ _______ _______ _____ _____    ______ ____
ROOT
ATOM      1  C   UNL     1       3.863   3.450  17.333  0.00  0.00    +0.000 C 
ENDROOT
BRANCH   1   2
ATOM      2  C   UNL     1       3.049   3.504  18.611  0.00  0.00    +0.000 A 
ATOM      3  C   UNL     1       3.161   2.493  19.586  0.00  0.00    +0.000 A 
ATOM      4  C   UNL     1       2.526   2.595  20.825  0.00  0.00    +0.000 A 
ATOM      5  C   UNL     1       1.764   3.719  21.118  0.00  0.00    +0.000 A 
ATOM      6  C   UNL     1       1.613   4.722  20.162  0.00  0.00    +0.000 A 
ATOM      7  C   UNL     1       2.226   4.608  18.905  0.00  0.00    +0.000 A 
BRANCH   7   8
ATOM      8  O   UNL     1       2.130   5.702  18.093  0.00  0.00    +0.000 OA
BRANCH   8   9
ATOM      9  C   UNL     1       3.068   6.743  18.343  0.00  0.00    +0.000 C 
ATOM     10  F   UNL     1       3.739   7.151  17.244  0.00  0.00    +0.000 F 
ATOM     11  F   UNL     1       2.442   7.811  18.880  0.00  0.00    +0.000 F 
ATOM     12  F   UNL     1       3.971   6.287  19.242  0.00  0.00    +0.000 F 
ENDBRANCH   8   9
ENDBRANCH   7   8
ENDBRANCH   1   2
BRANCH   1  15
ATOM     13  C   UNL     1       5.808   4.677  16.440  0.00  0.00    +0.000 C 
ATOM     14  O   UNL     1       5.279   4.872  15.346  0.00  0.00    +0.000 OA
ATOM     15  N   UNL     1       5.207   3.966  17.457  0.00  0.00    +0.000 N 
ATOM     16  H   UNL     1       5.590   4.076  18.386  0.00  0.00    +0.000 HD
BRANCH  13  17
ATOM     17  C   UNL     1       7.186   5.255  16.841  0.00  0.00    +0.000 C 
BRANCH  17  19
ATOM     18  C   UNL     1       7.807   5.939  19.227  0.00  0.00    +0.000 C 
ATOM     19  C   UNL     1       7.051   6.324  17.950  0.00  0.00    +0.000 C 
ATOM     20  C   UNL     1       7.585   7.677  17.458  0.00  0.00    +0.000 C 
ENDBRANCH  17  19
BRANCH  17  21
ATOM     21  N   UNL     1       8.030   4.105  17.247  0.00  0.00    +0.000 NA
ATOM     22  H   UNL     1       8.773   4.460  17.854  0.00  0.00    +0.000 HD
ATOM     23  H   UNL     1       8.503   3.721  16.431  0.00  0.00    +0.000 HD
ENDBRANCH  17  21
ENDBRANCH  13  17
ENDBRANCH   1  15
TORSDOF 7
ENDMDL
MODEL 4
REMARK VINA RESULT:      -7.0      1.592      2.198
REMARK  Name = 
REMARK  9 active torsions:
REMARK  status: ('A' for Active; 'I' for Inactive)
REMARK    1  A    between atoms: C_1  and  C_2
REMARK    2  A    between atoms: C_2  and  C_3
REMARK    3  A    between atoms: C_2  and  C_4
REMARK    4  A    between atoms: C_4  and  N_5
REMARK    5  A    between atoms: C_4  and  C_6
REMARK    6  A    between atoms: N_8  and  C_9
REMARK    7  A    between atoms: C_9  and  C_10
REMARK    8  A    between atoms: C_15  and  O_16
REMARK    9  A    between atoms: O_16  and  C_17
REMARK                            x       y       z     vdW  Elec       q    Type
REMARK                         _______ _______ _______ _____ _____    ______ ____
ROOT
ATOM      1  C   UNL     1       4.988   3.312  19.409  0.00  0.00    +0.000 C 
ENDROOT
BRANCH   1   2
ATOM      2  C   UNL     1       3.513   3.535  19.676  0.00  0.00    +0.000 A 
ATOM      3  C   UNL     1       2.665   2.459  20.010  0.00  0.00    +0.000 A 
ATOM      4  C   UNL     1       1.338   2.663  20.393  0.00  0.00    +0.000 A 
ATOM      5  C   UNL     1       0.827   3.953  20.452  0.00  0.00    +0.000 A 
ATOM      6  C   UNL     1       1.635   5.034  20.100  0.00  0.00    +0.000 A 
ATOM      7  C   UNL     1       2.960   4.830  19.687  0.00  0.00    +0.000 A 
BRANCH   7   8
ATOM      8  O   UNL     1       3.706   5.959  19.496  0.00  0.00    +0.000 OA
BRANCH   8   9
ATOM      9  C   UNL     1       3.427   6.692  18.308  0.00  0.00    +0.000 C 
ATOM     10  F   UNL     1       2.514   7.673  18.472  0.00  0.00    +0.000 F 
ATOM     11  F   UNL     1       4.562   7.242  17.827  0.00  0.00    +0.000 F 
ATOM     12  F   UNL     1       2.952   5.826  17.383  0.00  0.00    +0.000 F 
ENDBRANCH   8   9
ENDBRANCH   7   8
ENDBRANCH   1   2
BRANCH   1  15
ATOM     13  C   UNL     1       6.585   4.607  18.045  0.00  0.00    +0.000 C 
ATOM     14  O   UNL     1       7.244   4.966  19.019  0.00  0.00    +0.000 OA
ATOM     15  N   UNL     1       5.450   3.828  18.141  0.00  0.00    +0.000 N 
ATOM     16  H   UNL     1       5.131   3.372  17.297  0.00  0.00    +0.000 HD
BRANCH  13  17
ATOM     17  C   UNL     1       6.974   4.926  16.581  0.00  0.00    +0.000 C 
BRANCH  17  19
ATOM     18  C   UNL     1       5.239   6.037  15.064  0.00  0.00    +0.000 C 
ATOM     19  C   UNL     1       5.782   4.715  15.619  0.00  0.00    +0.000 C 
ATOM     20  C   UNL     1       6.198   3.826  14.438  0.00  0.00    +0.000 C 
ENDBRANCH  17  19
BRANCH  17  21
ATOM     21  N   UNL     1       7.487   6.318  16.570  0.00  0.00    +0.000 NA
ATOM     22  H   UNL     1       6.943   6.846  15.883  0.00  0.00    +0.000 HD
ATOM     23  H   UNL     1       8.445   6.328  16.227  0.00  0.00    +0.000 HD
ENDBRANCH  17  21
ENDBRANCH  13  17
ENDBRANCH   1  15
TORSDOF 7
ENDMDL
MODEL 5
REMARK VINA RESULT:      -7.0      1.168      1.367
REMARK  Name = 
REMARK  9 active torsions:
REMARK  status: ('A' for Active; 'I' for Inactive)
REMARK    1  A    between atoms: C_1  and  C_2
REMARK    2  A    between atoms: C_2  and  C_3
REMARK    3  A    between atoms: C_2  and  C_4
REMARK    4  A    between atoms: C_4  and  N_5
REMARK    5  A    between atoms: C_4  and  C_6
REMARK    6  A    between atoms: N_8  and  C_9
REMARK    7  A    between atoms: C_9  and  C_10
REMARK    8  A    between atoms: C_15  and  O_16
REMARK    9  A    between atoms: O_16  and  C_17
REMARK                            x       y       z     vdW  Elec       q    Type
REMARK                         _______ _______ _______ _____ _____    ______ ____
ROOT
ATOM      1  C   UNL     1       3.810   3.995  16.369  0.00  0.00    +0.000 C 
ENDROOT
BRANCH   1   2
ATOM      2  C   UNL     1       2.915   3.604  17.528  0.00  0.00    +0.000 A 
ATOM      3  C   UNL     1       2.868   2.274  17.992  0.00  0.00    +0.000 A 
ATOM      4  C   UNL     1       2.157   1.923  19.142  0.00  0.00    +0.000 A 
ATOM      5  C   UNL     1       1.475   2.899  19.855  0.00  0.00    +0.000 A 
ATOM      6  C   UNL     1       1.480   4.218  19.403  0.00  0.00    +0.000 A 
ATOM      7  C   UNL     1       2.170   4.569  18.233  0.00  0.00    +0.000 A 
BRANCH   7   8
ATOM      8  O   UNL     1       2.227   5.904  17.951  0.00  0.00    +0.000 OA
BRANCH   8   9
ATOM      9  C   UNL     1       3.199   6.649  18.676  0.00  0.00    +0.000 C 
ATOM     10  F   UNL     1       4.054   5.886  19.389  0.00  0.00    +0.000 F 
ATOM     11  F   UNL     1       3.918   7.418  17.831  0.00  0.00    +0.000 F 
ATOM     12  F   UNL     1       2.546   7.464  19.537  0.00  0.00    +0.000 F 
ENDBRANCH   8   9
ENDBRANCH   7   8
ENDBRANCH   1   2
BRANCH   1  15
ATOM     13  C   UNL     1       5.891   5.296  16.114  0.00  0.00    +0.000 C 
ATOM     14  O   UNL     1       5.458   5.947  15.165  0.00  0.00    +0.000 OA
ATOM     15  N   UNL     1       5.172   4.300  16.743  0.00  0.00    +0.000 N 
ATOM     16  H   UNL     1       5.492   4.006  17.656  0.00  0.00    +0.000 HD
BRANCH  13  17
ATOM     17  C   UNL     1       7.271   5.548  16.768  0.00  0.00    +0.000 C 
BRANCH  17  19
ATOM     18  C   UNL     1       7.855   5.910  19.233  0.00  0.00    +0.000 C 
ATOM     19  C   UNL     1       7.154   6.482  17.995  0.00  0.00    +0.000 C 
ATOM     20  C   UNL     1       7.765   7.856  17.682  0.00  0.00    +0.000 C 
ENDBRANCH  17  19
BRANCH  17  21
ATOM     21  N   UNL     1       7.832   4.217  17.107  0.00  0.00    +0.000 NA
ATOM     22  H   UNL     1       7.063   3.626  17.431  0.00  0.00    +0.000 HD
ATOM     23  H   UNL     1       8.465   4.303  17.900  0.00  0.00    +0.000 HD
ENDBRANCH  17  21
ENDBRANCH  13  17
ENDBRANCH   1  15
TORSDOF 7
ENDMDL
MODEL 6
REMARK VINA RESULT:      -7.0      2.768      5.665
REMARK  Name = 
REMARK  9 active torsions:
REMARK  status: ('A' for Active; 'I' for Inactive)
REMARK    1  A    between atoms: C_1  and  C_2
REMARK    2  A    between atoms: C_2  and  C_3
REMARK    3  A    between atoms: C_2  and  C_4
REMARK    4  A    between atoms: C_4  and  N_5
REMARK    5  A    between atoms: C_4  and  C_6
REMARK    6  A    between atoms: N_8  and  C_9
REMARK    7  A    between atoms: C_9  and  C_10
REMARK    8  A    between atoms: C_15  and  O_16
REMARK    9  A    between atoms: O_16  and  C_17
REMARK                            x       y       z     vdW  Elec       q    Type
REMARK                         _______ _______ _______ _____ _____    ______ ____
ROOT
ATOM      1  C   UNL     1       3.938   3.622  16.715  0.00  0.00    +0.000 C 
ENDROOT
BRANCH   1   2
ATOM      2  C   UNL     1       5.130   4.321  17.338  0.00  0.00    +0.000 A 
ATOM      3  C   UNL     1       5.061   4.854  18.641  0.00  0.00    +0.000 A 
ATOM      4  C   UNL     1       6.186   5.376  19.280  0.00  0.00    +0.000 A 
ATOM      5  C   UNL     1       7.412   5.376  18.628  0.00  0.00    +0.000 A 
ATOM      6  C   UNL     1       7.505   4.881  17.328  0.00  0.00    +0.000 A 
ATOM      7  C   UNL     1       6.370   4.382  16.672  0.00  0.00    +0.000 A 
BRANCH   7   8
ATOM      8  O   UNL     1       6.591   3.797  15.457  0.00  0.00    +0.000 OA
BRANCH   8   9
ATOM      9  C   UNL     1       6.541   4.668  14.332  0.00  0.00    +0.000 C 
ATOM     10  F   UNL     1       7.738   5.190  13.990  0.00  0.00    +0.000 F 
ATOM     11  F   UNL     1       6.040   4.013  13.263  0.00  0.00    +0.000 F 
ATOM     12  F   UNL     1       5.706   5.690  14.630  0.00  0.00    +0.000 F 
ENDBRANCH   8   9
ENDBRANCH   7   8
ENDBRANCH   1   2
BRANCH   1  15
ATOM     13  C   UNL     1       2.823   2.154  18.354  0.00  0.00    +0.000 C 
ATOM     14  O   UNL     1       3.647   1.250  18.220  0.00  0.00    +0.000 OA
ATOM     15  N   UNL     1       2.865   3.332  17.638  0.00  0.00    +0.000 N 
ATOM     16  H   UNL     1       2.320   4.106  17.991  0.00  0.00    +0.000 HD
BRANCH  13  17
ATOM     17  C   UNL     1       1.670   2.116  19.386  0.00  0.00    +0.000 C 
BRANCH  17  19
ATOM     18  C   UNL     1       0.965   4.370  20.370  0.00  0.00    +0.000 C 
ATOM     19  C   UNL     1       1.885   3.152  20.514  0.00  0.00    +0.000 C 
ATOM     20  C   UNL     1       1.633   2.511  21.886  0.00  0.00    +0.000 C 
ENDBRANCH  17  19
BRANCH  17  21
ATOM     21  N   UNL     1       0.413   2.337  18.630  0.00  0.00    +0.000 NA
ATOM     22  H   UNL     1       0.615   2.193  17.638  0.00  0.00    +0.000 HD
ATOM     23  H   UNL     1       0.129   3.311  18.713  0.00  0.00    +0.000 HD
ENDBRANCH  17  21
ENDBRANCH  13  17
ENDBRANCH   1  15
TORSDOF 7
ENDMDL
MODEL 7
REMARK VINA RESULT:      -7.0      2.834      5.667
REMARK  Name = 
REMARK  9 active torsions:
REMARK  status: ('A' for Active; 'I' for Inactive)
REMARK    1  A    between atoms: C_1  and  C_2
REMARK    2  A    between atoms: C_2  and  C_3
REMARK    3  A    between atoms: C_2  and  C_4
REMARK    4  A    between atoms: C_4  and  N_5
REMARK    5  A    between atoms: C_4  and  C_6
REMARK    6  A    between atoms: N_8  and  C_9
REMARK    7  A    between atoms: C_9  and  C_10
REMARK    8  A    between atoms: C_15  and  O_16
REMARK    9  A    between atoms: O_16  and  C_17
REMARK                            x       y       z     vdW  Elec       q    Type
REMARK                         _______ _______ _______ _____ _____    ______ ____
ROOT
ATOM      1  C   UNL     1       3.925   4.773  17.198  0.00  0.00    +0.000 C 
ENDROOT
BRANCH   1   2
ATOM      2  C   UNL     1       5.241   5.356  17.674  0.00  0.00    +0.000 A 
ATOM      3  C   UNL     1       5.649   5.227  19.017  0.00  0.00    +0.000 A 
ATOM      4  C   UNL     1       6.915   5.634  19.441  0.00  0.00    +0.000 A 
ATOM      5  C   UNL     1       7.806   6.181  18.527  0.00  0.00    +0.000 A 
ATOM      6  C   UNL     1       7.419   6.347  17.197  0.00  0.00    +0.000 A 
ATOM      7  C   UNL     1       6.137   5.965  16.774  0.00  0.00    +0.000 A 
BRANCH   7   8
ATOM      8  O   UNL     1       5.904   6.043  15.430  0.00  0.00    +0.000 OA
BRANCH   8   9
ATOM      9  C   UNL     1       6.354   4.933  14.659  0.00  0.00    +0.000 C 
ATOM     10  F   UNL     1       7.362   5.228  13.811  0.00  0.00    +0.000 F 
ATOM     11  F   UNL     1       6.760   3.938  15.474  0.00  0.00    +0.000 F 
ATOM     12  F   UNL     1       5.309   4.481  13.928  0.00  0.00    +0.000 F 
ENDBRANCH   8   9
ENDBRANCH   7   8
ENDBRANCH   1   2
BRANCH   1  15
ATOM     13  C   UNL     1       1.905   3.702  18.123  0.00  0.00    +0.000 C 
ATOM     14  O   UNL     1       1.152   4.256  17.324  0.00  0.00    +0.000 OA
ATOM     15  N   UNL     1       3.267   3.919  18.159  0.00  0.00    +0.000 N 
ATOM     16  H   UNL     1       3.829   3.243  18.658  0.00  0.00    +0.000 HD
BRANCH  13  17
ATOM     17  C   UNL     1       1.437   2.644  19.152  0.00  0.00    +0.000 C 
BRANCH  17  19
ATOM     18  C   UNL     1       1.536   2.611  21.708  0.00  0.00    +0.000 C 
ATOM     19  C   UNL     1       0.961   3.304  20.467  0.00  0.00    +0.000 C 
ATOM     20  C   UNL     1       1.371   4.783  20.503  0.00  0.00    +0.000 C 
ENDBRANCH  17  19
BRANCH  17  21
ATOM     21  N   UNL     1       0.377   1.845  18.490  0.00  0.00    +0.000 NA
ATOM     22  H   UNL     1       0.778   0.938  18.241  0.00  0.00    +0.000 HD
ATOM     23  H   UNL     1       0.118   2.282  17.607  0.00  0.00    +0.000 HD
ENDBRANCH  17  21
ENDBRANCH  13  17
ENDBRANCH   1  15
TORSDOF 7
ENDMDL
MODEL 8
REMARK VINA RESULT:      -6.9      2.915      5.772
REMARK  Name = 
REMARK  9 active torsions:
REMARK  status: ('A' for Active; 'I' for Inactive)
REMARK    1  A    between atoms: C_1  and  C_2
REMARK    2  A    between atoms: C_2  and  C_3
REMARK    3  A    between atoms: C_2  and  C_4
REMARK    4  A    between atoms: C_4  and  N_5
REMARK    5  A    between atoms: C_4  and  C_6
REMARK    6  A    between atoms: N_8  and  C_9
REMARK    7  A    between atoms: C_9  and  C_10
REMARK    8  A    between atoms: C_15  and  O_16
REMARK    9  A    between atoms: O_16  and  C_17
REMARK                            x       y       z     vdW  Elec       q    Type
REMARK                         _______ _______ _______ _____ _____    ______ ____
ROOT
ATOM      1  C   UNL     1       4.375   4.004  17.054  0.00  0.00    +0.000 C 
ENDROOT
BRANCH   1   2
ATOM      2  C   UNL     1       5.480   4.950  17.483  0.00  0.00    +0.000 A 
ATOM      3  C   UNL     1       5.960   4.952  18.808  0.00  0.00    +0.000 A 
ATOM      4  C   UNL     1       7.066   5.715  19.186  0.00  0.00    +0.000 A 
ATOM      5  C   UNL     1       7.721   6.495  18.242  0.00  0.00    +0.000 A 
ATOM      6  C   UNL     1       7.251   6.534  16.930  0.00  0.00    +0.000 A 
ATOM      7  C   UNL     1       6.122   5.791  16.554  0.00  0.00    +0.000 A 
BRANCH   7   8
ATOM      8  O   UNL     1       5.825   5.791  15.220  0.00  0.00    +0.000 OA
BRANCH   8   9
ATOM      9  C   UNL     1       6.445   4.768  14.448  0.00  0.00    +0.000 C 
ATOM     10  F   UNL     1       7.115   3.856  15.184  0.00  0.00    +0.000 F 
ATOM     11  F   UNL     1       5.519   4.121  13.709  0.00  0.00    +0.000 F 
ATOM     12  F   UNL     1       7.324   5.354  13.603  0.00  0.00    +0.000 F 
ENDBRANCH   8   9
ENDBRANCH   7   8
ENDBRANCH   1   2
BRANCH   1  15
ATOM     13  C   UNL     1       2.225   3.342  18.065  0.00  0.00    +0.000 C 
ATOM     14  O   UNL     1       1.564   3.738  17.107  0.00  0.00    +0.000 OA
ATOM     15  N   UNL     1       3.598   3.460  18.143  0.00  0.00    +0.000 N 
ATOM     16  H   UNL     1       4.073   2.886  18.826  0.00  0.00    +0.000 HD
BRANCH  13  17
ATOM     17  C   UNL     1       1.615   2.603  19.281  0.00  0.00    +0.000 C 
BRANCH  17  19
ATOM     18  C   UNL     1       1.398   4.734  20.680  0.00  0.00    +0.000 C 
ATOM     19  C   UNL     1       1.967   3.312  20.609  0.00  0.00    +0.000 C 
ATOM     20  C   UNL     1       1.426   2.513  21.803  0.00  0.00    +0.000 C 
ENDBRANCH  17  19
BRANCH  17  21
ATOM     21  N   UNL     1       0.154   2.519  19.040  0.00  0.00    +0.000 NA
ATOM     22  H   UNL     1      -0.283   3.336  19.472  0.00  0.00    +0.000 HD
ATOM     23  H   UNL     1      -0.229   1.712  19.530  0.00  0.00    +0.000 HD
ENDBRANCH  17  21
ENDBRANCH  13  17
ENDBRANCH   1  15
TORSDOF 7
ENDMDL
MODEL 9
REMARK VINA RESULT:      -6.7      2.555      5.729
REMARK  Name = 
REMARK  9 active torsions:
REMARK  status: ('A' for Active; 'I' for Inactive)
REMARK    1  A    between atoms: C_1  and  C_2
REMARK    2  A    between atoms: C_2  and  C_3
REMARK    3  A    between atoms: C_2  and  C_4
REMARK    4  A    between atoms: C_4  and  N_5
REMARK    5  A    between atoms: C_4  and  C_6
REMARK    6  A    between atoms: N_8  and  C_9
REMARK    7  A    between atoms: C_9  and  C_10
REMARK    8  A    between atoms: C_15  and  O_16
REMARK    9  A    between atoms: O_16  and  C_17
REMARK                            x       y       z     vdW  Elec       q    Type
REMARK                         _______ _______ _______ _____ _____    ______ ____
ROOT
ATOM      1  C   UNL     1       4.242   5.449  17.675  0.00  0.00    +0.000 C 
ENDROOT
BRANCH   1   2
ATOM      2  C   UNL     1       5.237   5.118  16.581  0.00  0.00    +0.000 A 
ATOM      3  C   UNL     1       4.874   4.299  15.492  0.00  0.00    +0.000 A 
ATOM      4  C   UNL     1       5.730   4.097  14.408  0.00  0.00    +0.000 A 
ATOM      5  C   UNL     1       6.975   4.713  14.389  0.00  0.00    +0.000 A 
ATOM      6  C   UNL     1       7.372   5.505  15.465  0.00  0.00    +0.000 A 
ATOM      7  C   UNL     1       6.525   5.687  16.569  0.00  0.00    +0.000 A 
BRANCH   7   8
ATOM      8  O   UNL     1       6.950   6.587  17.505  0.00  0.00    +0.000 OA
BRANCH   8   9
ATOM      9  C   UNL     1       7.630   6.038  18.628  0.00  0.00    +0.000 C 
ATOM     10  F   UNL     1       6.844   5.861  19.711  0.00  0.00    +0.000 F 
ATOM     11  F   UNL     1       8.179   4.850  18.301  0.00  0.00    +0.000 F 
ATOM     12  F   UNL     1       8.629   6.886  18.968  0.00  0.00    +0.000 F 
ENDBRANCH   8   9
ENDBRANCH   7   8
ENDBRANCH   1   2
BRANCH   1  15
ATOM     13  C   UNL     1       4.076   3.420  19.068  0.00  0.00    +0.000 C 
ATOM     14  O   UNL     1       5.246   3.488  19.443  0.00  0.00    +0.000 OA
ATOM     15  N   UNL     1       3.509   4.312  18.181  0.00  0.00    +0.000 N 
ATOM     16  H   UNL     1       2.500   4.337  18.134  0.00  0.00    +0.000 HD
BRANCH  13  17
ATOM     17  C   UNL     1       3.070   2.365  19.588  0.00  0.00    +0.000 C 
BRANCH  17  19
ATOM     18  C   UNL     1       0.552   2.601  19.197  0.00  0.00    +0.000 C 
ATOM     19  C   UNL     1       1.751   3.023  20.055  0.00  0.00    +0.000 C 
ATOM     20  C   UNL     1       1.456   2.655  21.516  0.00  0.00    +0.000 C 
ENDBRANCH  17  19
BRANCH  17  21
ATOM     21  N   UNL     1       2.871   1.387  18.491  0.00  0.00    +0.000 NA
ATOM     22  H   UNL     1       3.774   1.243  18.033  0.00  0.00    +0.000 HD
ATOM     23  H   UNL     1       2.263   1.788  17.780  0.00  0.00    +0.000 HD
ENDBRANCH  17  21
ENDBRANCH  13  17
ENDBRANCH   1  15
TORSDOF 7
ENDMDL
