MODEL 1
REMARK VINA RESULT:      -7.7      0.000      0.000
REMARK  Name = 
REMARK  8 active torsions:
REMARK  status: ('A' for Active; 'I' for Inactive)
REMARK    1  A    between atoms: C_1  and  N_2
REMARK    2  A    between atoms: N_2  and  C_3
REMARK    3  A    between atoms: N_2  and  C_4
REMARK    4  A    between atoms: C_4  and  C_5
REMARK    5  A    between atoms: C_4  and  C_16
REMARK    6  A    between atoms: C_10  and  O_11
REMARK    7  A    between atoms: C_10  and  C_12
REMARK    8  A    between atoms: C_12  and  O_13
REMARK                            x       y       z     vdW  Elec       q    Type
REMARK                         _______ _______ _______ _____ _____    ______ ____
ROOT
ATOM      1  C   UNL     1       3.049   4.203  19.071  0.00  0.00    +0.000 C 
ENDROOT
BRANCH   1   2
ATOM      2  C   UNL     1       2.620   5.674  19.147  0.00  0.00    +0.000 A 
ATOM      3  C   UNL     1       2.491   6.504  18.000  0.00  0.00    +0.000 A 
ATOM      4  C   UNL     1       2.015   7.815  18.096  0.00  0.00    +0.000 A 
ATOM      5  C   UNL     1       1.679   8.285  19.338  0.00  0.00    +0.000 A 
ATOM      6  C   UNL     1       1.823   7.513  20.466  0.00  0.00    +0.000 A 
ATOM      7  C   UNL     1       2.300   6.219  20.406  0.00  0.00    +0.000 A 
ATOM      8  O   UNL     1       1.424   8.163  21.592  0.00  0.00    +0.000 OA
ATOM      9  C   UNL     1       0.971   9.415  21.038  0.00  0.00    +0.000 C 
ATOM     10  O   UNL     1       1.159   9.511  19.611  0.00  0.00    +0.000 OA
ENDBRANCH   1   2
BRANCH   1  11
ATOM     11  C   UNL     1       4.615   4.073  19.115  0.00  0.00    +0.000 C 
ATOM     12  O   UNL     1       5.105   3.342  19.990  0.00  0.00    +0.000 OA
ATOM     13  N   UNL     1       5.447   4.755  18.232  0.00  0.00    +0.000 N 
ATOM     14  C   UNL     1       5.031   5.599  17.120  0.00  0.00    +0.000 C 
ATOM     15  C   UNL     1       5.677   6.980  17.228  0.00  0.00    +0.000 C 
ATOM     16  C   UNL     1       7.211   6.884  17.334  0.00  0.00    +0.000 C 
ATOM     17  C   UNL     1       7.617   5.909  18.448  0.00  0.00    +0.000 C 
ATOM     18  C   UNL     1       6.897   4.566  18.314  0.00  0.00    +0.000 C 
BRANCH  16  19
ATOM     19  O   UNL     1       7.738   6.390  16.091  0.00  0.00    +0.000 OA
ATOM     20  H   UNL     1       7.018   6.433  15.437  0.00  0.00    +0.000 HD
ENDBRANCH  16  19
BRANCH  16  21
ATOM     21  C   UNL     1       7.835   8.271  17.586  0.00  0.00    +0.000 C 
BRANCH  21  22
ATOM     22  O   UNL     1       8.623   8.249  18.778  0.00  0.00    +0.000 OA
ATOM     23  H   UNL     1       8.110   7.743  19.433  0.00  0.00    +0.000 HD
ENDBRANCH  21  22
ENDBRANCH  16  21
ENDBRANCH   1  11
BRANCH   1  25
ATOM     24  C   UNL     1       3.143   2.122  17.771  0.00  0.00    +0.000 C 
ATOM     25  N   UNL     1       2.406   3.379  17.991  0.00  0.00    +0.000 NA
ATOM     26  C   UNL     1       1.025   3.006  18.355  0.00  0.00    +0.000 C 
ENDBRANCH   1  25
TORSDOF 6
ENDMDL
MODEL 2
REMARK VINA RESULT:      -7.7      0.691      1.475
REMARK  Name = 
REMARK  8 active torsions:
REMARK  status: ('A' for Active; 'I' for Inactive)
REMARK    1  A    between atoms: C_1  and  N_2
REMARK    2  A    between atoms: N_2  and  C_3
REMARK    3  A    between atoms: N_2  and  C_4
REMARK    4  A    between atoms: C_4  and  C_5
REMARK    5  A    between atoms: C_4  and  C_16
REMARK    6  A    between atoms: C_10  and  O_11
REMARK    7  A    between atoms: C_10  and  C_12
REMARK    8  A    between atoms: C_12  and  O_13
REMARK                            x       y       z     vdW  Elec       q    Type
REMARK                         _______ _______ _______ _____ _____    ______ ____
ROOT
ATOM      1  C   UNL     1       3.109   4.068  19.094  0.00  0.00    +0.000 C 
ENDROOT
BRANCH   1   2
ATOM      2  C   UNL     1       2.598   5.504  19.270  0.00  0.00    +0.000 A 
ATOM      3  C   UNL     1       2.221   6.044  20.530  0.00  0.00    +0.000 A 
ATOM      4  C   UNL     1       1.842   7.382  20.668  0.00  0.00    +0.000 A 
ATOM      5  C   UNL     1       1.836   8.165  19.544  0.00  0.00    +0.000 A 
ATOM      6  C   UNL     1       2.167   7.660  18.310  0.00  0.00    +0.000 A 
ATOM      7  C   UNL     1       2.535   6.341  18.139  0.00  0.00    +0.000 A 
ATOM      8  O   UNL     1       2.107   8.604  17.331  0.00  0.00    +0.000 OA
ATOM      9  C   UNL     1       1.746   9.769  18.099  0.00  0.00    +0.000 C 
ATOM     10  O   UNL     1       1.540   9.492  19.501  0.00  0.00    +0.000 OA
ENDBRANCH   1   2
BRANCH   1  11
ATOM     11  C   UNL     1       4.678   4.018  19.177  0.00  0.00    +0.000 C 
ATOM     12  O   UNL     1       5.182   3.343  20.088  0.00  0.00    +0.000 OA
ATOM     13  N   UNL     1       5.496   4.709  18.288  0.00  0.00    +0.000 N 
ATOM     14  C   UNL     1       5.067   5.492  17.138  0.00  0.00    +0.000 C 
ATOM     15  C   UNL     1       5.641   6.906  17.209  0.00  0.00    +0.000 C 
ATOM     16  C   UNL     1       7.175   6.890  17.353  0.00  0.00    +0.000 C 
ATOM     17  C   UNL     1       7.601   5.975  18.510  0.00  0.00    +0.000 C 
ATOM     18  C   UNL     1       6.952   4.595  18.409  0.00  0.00    +0.000 C 
BRANCH  16  19
ATOM     19  O   UNL     1       7.755   6.379  16.140  0.00  0.00    +0.000 OA
ATOM     20  H   UNL     1       8.340   7.073  15.787  0.00  0.00    +0.000 HD
ENDBRANCH  16  19
BRANCH  16  21
ATOM     21  C   UNL     1       7.725   8.314  17.568  0.00  0.00    +0.000 C 
BRANCH  21  22
ATOM     22  O   UNL     1       8.610   8.338  18.690  0.00  0.00    +0.000 OA
ATOM     23  H   UNL     1       9.019   9.222  18.695  0.00  0.00    +0.000 HD
ENDBRANCH  21  22
ENDBRANCH  16  21
ENDBRANCH   1  11
BRANCH   1  25
ATOM     24  C   UNL     1       3.266   2.032  17.730  0.00  0.00    +0.000 C 
ATOM     25  N   UNL     1       2.541   3.299  17.934  0.00  0.00    +0.000 NA
ATOM     26  C   UNL     1       1.127   2.949  18.166  0.00  0.00    +0.000 C 
ENDBRANCH   1  25
TORSDOF 6
ENDMDL
MODEL 3
REMARK VINA RESULT:      -7.6      2.006      5.982
REMARK  Name = 
REMARK  8 active torsions:
REMARK  status: ('A' for Active; 'I' for Inactive)
REMARK    1  A    between atoms: C_1  and  N_2
REMARK    2  A    between atoms: N_2  and  C_3
REMARK    3  A    between atoms: N_2  and  C_4
REMARK    4  A    between atoms: C_4  and  C_5
REMARK    5  A    between atoms: C_4  and  C_16
REMARK    6  A    between atoms: C_10  and  O_11
REMARK    7  A    between atoms: C_10  and  C_12
REMARK    8  A    between atoms: C_12  and  O_13
REMARK                            x       y       z     vdW  Elec       q    Type
REMARK                         _______ _______ _______ _____ _____    ______ ____
ROOT
ATOM      1  C   UNL     1       2.487   4.800  18.948  0.00  0.00    +0.000 C 
ENDROOT
BRANCH   1   2
ATOM      2  C   UNL     1       3.903   4.944  18.375  0.00  0.00    +0.000 A 
ATOM      3  C   UNL     1       5.043   5.203  19.184  0.00  0.00    +0.000 A 
ATOM      4  C   UNL     1       6.331   5.243  18.641  0.00  0.00    +0.000 A 
ATOM      5  C   UNL     1       6.464   5.031  17.294  0.00  0.00    +0.000 A 
ATOM      6  C   UNL     1       5.376   4.807  16.486  0.00  0.00    +0.000 A 
ATOM      7  C   UNL     1       4.091   4.772  16.990  0.00  0.00    +0.000 A 
ATOM      8  O   UNL     1       5.727   4.610  15.187  0.00  0.00    +0.000 OA
ATOM      9  C   UNL     1       7.164   4.689  15.279  0.00  0.00    +0.000 C 
ATOM     10  O   UNL     1       7.638   4.987  16.609  0.00  0.00    +0.000 OA
ENDBRANCH   1   2
BRANCH   1  11
ATOM     11  C   UNL     1       2.183   5.943  19.984  0.00  0.00    +0.000 C 
ATOM     12  O   UNL     1       2.003   5.611  21.166  0.00  0.00    +0.000 OA
ATOM     13  N   UNL     1       2.094   7.282  19.616  0.00  0.00    +0.000 N 
ATOM     14  C   UNL     1       2.334   7.838  18.291  0.00  0.00    +0.000 C 
ATOM     15  C   UNL     1       1.134   8.666  17.834  0.00  0.00    +0.000 C 
ATOM     16  C   UNL     1       0.773   9.758  18.859  0.00  0.00    +0.000 C 
ATOM     17  C   UNL     1       0.626   9.155  20.264  0.00  0.00    +0.000 C 
ATOM     18  C   UNL     1       1.834   8.296  20.640  0.00  0.00    +0.000 C 
BRANCH  16  19
ATOM     19  O   UNL     1       1.828  10.734  18.898  0.00  0.00    +0.000 OA
ATOM     20  H   UNL     1       2.350  10.561  19.702  0.00  0.00    +0.000 HD
ENDBRANCH  16  19
BRANCH  16  21
ATOM     21  C   UNL     1      -0.523  10.488  18.454  0.00  0.00    +0.000 C 
BRANCH  21  22
ATOM     22  O   UNL     1      -0.963  10.039  17.171  0.00  0.00    +0.000 OA
ATOM     23  H   UNL     1      -0.193  10.115  16.578  0.00  0.00    +0.000 HD
ENDBRANCH  21  22
ENDBRANCH  16  21
ENDBRANCH   1  11
BRANCH   1  25
ATOM     24  C   UNL     1       0.937   2.912  18.694  0.00  0.00    +0.000 C 
ATOM     25  N   UNL     1       2.103   3.430  19.432  0.00  0.00    +0.000 NA
ATOM     26  C   UNL     1       3.201   2.465  19.227  0.00  0.00    +0.000 C 
ENDBRANCH   1  25
TORSDOF 6
ENDMDL
MODEL 4
REMARK VINA RESULT:      -7.6      1.909      5.737
REMARK  Name = 
REMARK  8 active torsions:
REMARK  status: ('A' for Active; 'I' for Inactive)
REMARK    1  A    between atoms: C_1  and  N_2
REMARK    2  A    between atoms: N_2  and  C_3
REMARK    3  A    between atoms: N_2  and  C_4
REMARK    4  A    between atoms: C_4  and  C_5
REMARK    5  A    between atoms: C_4  and  C_16
REMARK    6  A    between atoms: C_10  and  O_11
REMARK    7  A    between atoms: C_10  and  C_12
REMARK    8  A    between atoms: C_12  and  O_13
REMARK                            x       y       z     vdW  Elec       q    Type
REMARK                         _______ _______ _______ _____ _____    ______ ____
ROOT
ATOM      1  C   UNL     1       2.224   4.951  19.010  0.00  0.00    +0.000 C 
ENDROOT
BRANCH   1   2
ATOM      2  C   UNL     1       3.692   4.917  18.565  0.00  0.00    +0.000 A 
ATOM      3  C   UNL     1       4.089   4.671  17.223  0.00  0.00    +0.000 A 
ATOM      4  C   UNL     1       5.431   4.731  16.834  0.00  0.00    +0.000 A 
ATOM      5  C   UNL     1       6.362   5.030  17.793  0.00  0.00    +0.000 A 
ATOM      6  C   UNL     1       6.008   5.243  19.103  0.00  0.00    +0.000 A 
ATOM      7  C   UNL     1       4.693   5.180  19.520  0.00  0.00    +0.000 A 
ATOM      8  O   UNL     1       7.079   5.536  19.889  0.00  0.00    +0.000 OA
ATOM      9  C   UNL     1       8.141   5.528  18.914  0.00  0.00    +0.000 C 
ATOM     10  O   UNL     1       7.698   5.176  17.586  0.00  0.00    +0.000 OA
ENDBRANCH   1   2
BRANCH   1  11
ATOM     11  C   UNL     1       1.975   6.125  20.025  0.00  0.00    +0.000 C 
ATOM     12  O   UNL     1       1.779   5.824  21.213  0.00  0.00    +0.000 OA
ATOM     13  N   UNL     1       1.949   7.461  19.633  0.00  0.00    +0.000 N 
ATOM     14  C   UNL     1       2.217   7.981  18.299  0.00  0.00    +0.000 C 
ATOM     15  C   UNL     1       1.057   8.857  17.825  0.00  0.00    +0.000 C 
ATOM     16  C   UNL     1       0.747   9.982  18.831  0.00  0.00    +0.000 C 
ATOM     17  C   UNL     1       0.572   9.413  20.245  0.00  0.00    +0.000 C 
ATOM     18  C   UNL     1       1.737   8.505  20.638  0.00  0.00    +0.000 C 
BRANCH  16  19
ATOM     19  O   UNL     1       1.848  10.908  18.853  0.00  0.00    +0.000 OA
ATOM     20  H   UNL     1       2.481  10.618  18.172  0.00  0.00    +0.000 HD
ENDBRANCH  16  19
BRANCH  16  21
ATOM     21  C   UNL     1      -0.512  10.766  18.411  0.00  0.00    +0.000 C 
BRANCH  21  22
ATOM     22  O   UNL     1      -1.065  10.210  17.216  0.00  0.00    +0.000 OA
ATOM     23  H   UNL     1      -1.765   9.596  17.501  0.00  0.00    +0.000 HD
ENDBRANCH  21  22
ENDBRANCH  16  21
ENDBRANCH   1  11
BRANCH   1  25
ATOM     24  C   UNL     1       1.065   2.906  18.302  0.00  0.00    +0.000 C 
ATOM     25  N   UNL     1       1.633   3.641  19.447  0.00  0.00    +0.000 NA
ATOM     26  C   UNL     1       2.658   2.766  20.049  0.00  0.00    +0.000 C 
ENDBRANCH   1  25
TORSDOF 6
ENDMDL
MODEL 5
REMARK VINA RESULT:      -7.5      3.071      7.262
REMARK  Name = 
REMARK  8 active torsions:
REMARK  status: ('A' for Active; 'I' for Inactive)
REMARK    1  A    between atoms: C_1  and  N_2
REMARK    2  A    between atoms: N_2  and  C_3
REMARK    3  A    between atoms: N_2  and  C_4
REMARK    4  A    between atoms: C_4  and  C_5
REMARK    5  A    between atoms: C_4  and  C_16
REMARK    6  A    between atoms: C_10  and  O_11
REMARK    7  A    between atoms: C_10  and  C_12
REMARK    8  A    between atoms: C_12  and  O_13
REMARK                            x       y       z     vdW  Elec       q    Type
REMARK                         _______ _______ _______ _____ _____    ______ ____
ROOT
ATOM      1  C   UNL     1       5.805   4.495  17.205  0.00  0.00    +0.000 C 
ENDROOT
BRANCH   1   2
ATOM      2  C   UNL     1       6.167   4.404  15.716  0.00  0.00    +0.000 A 
ATOM      3  C   UNL     1       5.456   3.588  14.795  0.00  0.00    +0.000 A 
ATOM      4  C   UNL     1       5.758   3.593  13.429  0.00  0.00    +0.000 A 
ATOM      5  C   UNL     1       6.772   4.409  13.001  0.00  0.00    +0.000 A 
ATOM      6  C   UNL     1       7.493   5.185  13.876  0.00  0.00    +0.000 A 
ATOM      7  C   UNL     1       7.227   5.194  15.230  0.00  0.00    +0.000 A 
ATOM      8  O   UNL     1       8.444   5.927  13.247  0.00  0.00    +0.000 OA
ATOM      9  C   UNL     1       8.207   5.563  11.872  0.00  0.00    +0.000 C 
ATOM     10  O   UNL     1       7.168   4.575  11.711  0.00  0.00    +0.000 OA
ENDBRANCH   1   2
BRANCH   1  11
ATOM     11  C   UNL     1       4.305   4.930  17.390  0.00  0.00    +0.000 C 
ATOM     12  O   UNL     1       4.007   6.099  17.099  0.00  0.00    +0.000 OA
ATOM     13  N   UNL     1       3.330   4.064  17.877  0.00  0.00    +0.000 N 
ATOM     14  C   UNL     1       3.502   2.656  18.206  0.00  0.00    +0.000 C 
ATOM     15  C   UNL     1       3.042   2.381  19.637  0.00  0.00    +0.000 C 
ATOM     16  C   UNL     1       1.593   2.853  19.868  0.00  0.00    +0.000 C 
ATOM     17  C   UNL     1       1.419   4.310  19.416  0.00  0.00    +0.000 C 
ATOM     18  C   UNL     1       1.947   4.530  17.999  0.00  0.00    +0.000 C 
BRANCH  16  19
ATOM     19  O   UNL     1       0.703   2.033  19.091  0.00  0.00    +0.000 OA
ATOM     20  H   UNL     1       0.374   2.582  18.357  0.00  0.00    +0.000 HD
ENDBRANCH  16  19
BRANCH  16  21
ATOM     21  C   UNL     1       1.192   2.702  21.349  0.00  0.00    +0.000 C 
BRANCH  21  22
ATOM     22  O   UNL     1       2.205   3.254  22.193  0.00  0.00    +0.000 OA
ATOM     23  H   UNL     1       3.033   2.799  21.957  0.00  0.00    +0.000 HD
ENDBRANCH  21  22
ENDBRANCH  16  21
ENDBRANCH   1  11
BRANCH   1  25
ATOM     24  C   UNL     1       6.236   5.407  19.443  0.00  0.00    +0.000 C 
ATOM     25  N   UNL     1       6.765   5.256  18.075  0.00  0.00    +0.000 NA
ATOM     26  C   UNL     1       8.054   4.549  18.192  0.00  0.00    +0.000 C 
ENDBRANCH   1  25
TORSDOF 6
ENDMDL
MODEL 6
REMARK VINA RESULT:      -7.4      3.070      7.151
REMARK  Name = 
REMARK  8 active torsions:
REMARK  status: ('A' for Active; 'I' for Inactive)
REMARK    1  A    between atoms: C_1  and  N_2
REMARK    2  A    between atoms: N_2  and  C_3
REMARK    3  A    between atoms: N_2  and  C_4
REMARK    4  A    between atoms: C_4  and  C_5
REMARK    5  A    between atoms: C_4  and  C_16
REMARK    6  A    between atoms: C_10  and  O_11
REMARK    7  A    between atoms: C_10  and  C_12
REMARK    8  A    between atoms: C_12  and  O_13
REMARK                            x       y       z     vdW  Elec       q    Type
REMARK                         _______ _______ _______ _____ _____    ______ ____
ROOT
ATOM      1  C   UNL     1       5.745   5.176  17.483  0.00  0.00    +0.000 C 
ENDROOT
BRANCH   1   2
ATOM      2  C   UNL     1       6.112   4.922  16.015  0.00  0.00    +0.000 A 
ATOM      3  C   UNL     1       7.405   5.183  15.483  0.00  0.00    +0.000 A 
ATOM      4  C   UNL     1       7.731   4.860  14.163  0.00  0.00    +0.000 A 
ATOM      5  C   UNL     1       6.760   4.286  13.386  0.00  0.00    +0.000 A 
ATOM      6  C   UNL     1       5.495   4.050  13.867  0.00  0.00    +0.000 A 
ATOM      7  C   UNL     1       5.139   4.367  15.163  0.00  0.00    +0.000 A 
ATOM      8  O   UNL     1       4.689   3.465  12.940  0.00  0.00    +0.000 OA
ATOM      9  C   UNL     1       5.605   3.319  11.837  0.00  0.00    +0.000 C 
ATOM     10  O   UNL     1       6.914   3.867  12.102  0.00  0.00    +0.000 OA
ENDBRANCH   1   2
BRANCH   1  11
ATOM     11  C   UNL     1       4.190   5.330  17.653  0.00  0.00    +0.000 C 
ATOM     12  O   UNL     1       3.694   6.440  17.401  0.00  0.00    +0.000 OA
ATOM     13  N   UNL     1       3.377   4.287  18.085  0.00  0.00    +0.000 N 
ATOM     14  C   UNL     1       3.791   2.919  18.363  0.00  0.00    +0.000 C 
ATOM     15  C   UNL     1       3.366   2.507  19.772  0.00  0.00    +0.000 C 
ATOM     16  C   UNL     1       1.853   2.706  19.990  0.00  0.00    +0.000 C 
ATOM     17  C   UNL     1       1.430   4.127  19.591  0.00  0.00    +0.000 C 
ATOM     18  C   UNL     1       1.931   4.496  18.195  0.00  0.00    +0.000 C 
BRANCH  16  19
ATOM     19  O   UNL     1       1.134   1.775  19.163  0.00  0.00    +0.000 OA
ATOM     20  H   UNL     1       0.232   2.126  19.054  0.00  0.00    +0.000 HD
ENDBRANCH  16  19
BRANCH  16  21
ATOM     21  C   UNL     1       1.465   2.425  21.455  0.00  0.00    +0.000 C 
BRANCH  21  22
ATOM     22  O   UNL     1       2.343   3.121  22.341  0.00  0.00    +0.000 OA
ATOM     23  H   UNL     1       2.687   3.883  21.840  0.00  0.00    +0.000 HD
ENDBRANCH  21  22
ENDBRANCH  16  21
ENDBRANCH   1  11
BRANCH   1  25
ATOM     24  C   UNL     1       7.745   5.672  18.820  0.00  0.00    +0.000 C 
ATOM     25  N   UNL     1       6.538   6.238  18.191  0.00  0.00    +0.000 NA
ATOM     26  C   UNL     1       6.995   7.279  17.250  0.00  0.00    +0.000 C 
ENDBRANCH   1  25
TORSDOF 6
ENDMDL
MODEL 7
REMARK VINA RESULT:      -7.1      1.853      2.374
REMARK  Name = 
REMARK  8 active torsions:
REMARK  status: ('A' for Active; 'I' for Inactive)
REMARK    1  A    between atoms: C_1  and  N_2
REMARK    2  A    between atoms: N_2  and  C_3
REMARK    3  A    between atoms: N_2  and  C_4
REMARK    4  A    between atoms: C_4  and  C_5
REMARK    5  A    between atoms: C_4  and  C_16
REMARK    6  A    between atoms: C_10  and  O_11
REMARK    7  A    between atoms: C_10  and  C_12
REMARK    8  A    between atoms: C_12  and  O_13
REMARK                            x       y       z     vdW  Elec       q    Type
REMARK                         _______ _______ _______ _____ _____    ______ ____
ROOT
ATOM      1  C   UNL     1       3.649   5.074  19.611  0.00  0.00    +0.000 C 
ENDROOT
BRANCH   1   2
ATOM      2  C   UNL     1       3.049   6.436  19.238  0.00  0.00    +0.000 A 
ATOM      3  C   UNL     1       3.246   7.049  17.971  0.00  0.00    +0.000 A 
ATOM      4  C   UNL     1       2.615   8.250  17.633  0.00  0.00    +0.000 A 
ATOM      5  C   UNL     1       1.800   8.830  18.569  0.00  0.00    +0.000 A 
ATOM      6  C   UNL     1       1.617   8.274  19.812  0.00  0.00    +0.000 A 
ATOM      7  C   UNL     1       2.234   7.095  20.179  0.00  0.00    +0.000 A 
ATOM      8  O   UNL     1       0.764   9.000  20.584  0.00  0.00    +0.000 OA
ATOM      9  C   UNL     1       0.396  10.051  19.668  0.00  0.00    +0.000 C 
ATOM     10  O   UNL     1       1.075   9.967  18.397  0.00  0.00    +0.000 OA
ENDBRANCH   1   2
BRANCH   1  11
ATOM     11  C   UNL     1       5.148   4.977  19.149  0.00  0.00    +0.000 C 
ATOM     12  O   UNL     1       6.015   5.418  19.920  0.00  0.00    +0.000 OA
ATOM     13  N   UNL     1       5.520   4.440  17.920  0.00  0.00    +0.000 N 
ATOM     14  C   UNL     1       4.637   3.832  16.934  0.00  0.00    +0.000 C 
ATOM     15  C   UNL     1       4.818   4.499  15.571  0.00  0.00    +0.000 C 
ATOM     16  C   UNL     1       6.291   4.475  15.118  0.00  0.00    +0.000 C 
ATOM     17  C   UNL     1       7.206   5.028  16.219  0.00  0.00    +0.000 C 
ATOM     18  C   UNL     1       6.939   4.357  17.567  0.00  0.00    +0.000 C 
BRANCH  16  19
ATOM     19  O   UNL     1       6.678   3.116  14.853  0.00  0.00    +0.000 OA
ATOM     20  H   UNL     1       6.383   2.904  13.949  0.00  0.00    +0.000 HD
ENDBRANCH  16  19
BRANCH  16  21
ATOM     21  C   UNL     1       6.481   5.276  13.814  0.00  0.00    +0.000 C 
BRANCH  21  22
ATOM     22  O   UNL     1       7.868   5.540  13.594  0.00  0.00    +0.000 OA
ATOM     23  H   UNL     1       7.949   5.804  12.660  0.00  0.00    +0.000 HD
ENDBRANCH  21  22
ENDBRANCH  16  21
ENDBRANCH   1  11
BRANCH   1  25
ATOM     24  C   UNL     1       2.782   2.904  20.367  0.00  0.00    +0.000 C 
ATOM     25  N   UNL     1       2.828   3.868  19.252  0.00  0.00    +0.000 NA
ATOM     26  C   UNL     1       1.432   4.241  18.953  0.00  0.00    +0.000 C 
ENDBRANCH   1  25
TORSDOF 6
ENDMDL
MODEL 8
REMARK VINA RESULT:      -6.8      1.819      2.654
REMARK  Name = 
REMARK  8 active torsions:
REMARK  status: ('A' for Active; 'I' for Inactive)
REMARK    1  A    between atoms: C_1  and  N_2
REMARK    2  A    between atoms: N_2  and  C_3
REMARK    3  A    between atoms: N_2  and  C_4
REMARK    4  A    between atoms: C_4  and  C_5
REMARK    5  A    between atoms: C_4  and  C_16
REMARK    6  A    between atoms: C_10  and  O_11
REMARK    7  A    between atoms: C_10  and  C_12
REMARK    8  A    between atoms: C_12  and  O_13
REMARK                            x       y       z     vdW  Elec       q    Type
REMARK                         _______ _______ _______ _____ _____    ______ ____
ROOT
ATOM      1  C   UNL     1       3.477   4.581  19.499  0.00  0.00    +0.000 C 
ENDROOT
BRANCH   1   2
ATOM      2  C   UNL     1       2.771   5.943  19.492  0.00  0.00    +0.000 A 
ATOM      3  C   UNL     1       2.039   6.443  20.604  0.00  0.00    +0.000 A 
ATOM      4  C   UNL     1       1.481   7.725  20.595  0.00  0.00    +0.000 A 
ATOM      5  C   UNL     1       1.654   8.491  19.473  0.00  0.00    +0.000 A 
ATOM      6  C   UNL     1       2.331   8.020  18.374  0.00  0.00    +0.000 A 
ATOM      7  C   UNL     1       2.884   6.756  18.347  0.00  0.00    +0.000 A 
ATOM      8  O   UNL     1       2.398   8.940  17.374  0.00  0.00    +0.000 OA
ATOM      9  C   UNL     1       1.726  10.058  17.987  0.00  0.00    +0.000 C 
ATOM     10  O   UNL     1       1.222   9.770  19.309  0.00  0.00    +0.000 OA
ENDBRANCH   1   2
BRANCH   1  11
ATOM     11  C   UNL     1       4.985   4.729  19.082  0.00  0.00    +0.000 C 
ATOM     12  O   UNL     1       5.758   5.248  19.902  0.00  0.00    +0.000 OA
ATOM     13  N   UNL     1       5.461   4.322  17.839  0.00  0.00    +0.000 N 
ATOM     14  C   UNL     1       4.702   3.648  16.795  0.00  0.00    +0.000 C 
ATOM     15  C   UNL     1       4.817   4.409  15.475  0.00  0.00    +0.000 C 
ATOM     16  C   UNL     1       6.288   4.625  15.069  0.00  0.00    +0.000 C 
ATOM     17  C   UNL     1       7.084   5.243  16.227  0.00  0.00    +0.000 C 
ATOM     18  C   UNL     1       6.885   4.467  17.528  0.00  0.00    +0.000 C 
BRANCH  16  19
ATOM     19  O   UNL     1       6.877   3.354  14.747  0.00  0.00    +0.000 OA
ATOM     20  H   UNL     1       6.243   2.878  14.182  0.00  0.00    +0.000 HD
ENDBRANCH  16  19
BRANCH  16  21
ATOM     21  C   UNL     1       6.390   5.517  13.815  0.00  0.00    +0.000 C 
BRANCH  21  22
ATOM     22  O   UNL     1       7.736   5.544  13.337  0.00  0.00    +0.000 OA
ATOM     23  H   UNL     1       7.683   5.432  12.371  0.00  0.00    +0.000 HD
ENDBRANCH  21  22
ENDBRANCH  16  21
ENDBRANCH   1  11
BRANCH   1  25
ATOM     24  C   UNL     1       2.774   2.231  19.607  0.00  0.00    +0.000 C 
ATOM     25  N   UNL     1       2.764   3.461  18.795  0.00  0.00    +0.000 NA
ATOM     26  C   UNL     1       1.348   3.799  18.550  0.00  0.00    +0.000 C 
ENDBRANCH   1  25
TORSDOF 6
ENDMDL
MODEL 9
REMARK VINA RESULT:      -6.7      2.245      3.377
REMARK  Name = 
REMARK  8 active torsions:
REMARK  status: ('A' for Active; 'I' for Inactive)
REMARK    1  A    between atoms: C_1  and  N_2
REMARK    2  A    between atoms: N_2  and  C_3
REMARK    3  A    between atoms: N_2  and  C_4
REMARK    4  A    between atoms: C_4  and  C_5
REMARK    5  A    between atoms: C_4  and  C_16
REMARK    6  A    between atoms: C_10  and  O_11
REMARK    7  A    between atoms: C_10  and  C_12
REMARK    8  A    between atoms: C_12  and  O_13
REMARK                            x       y       z     vdW  Elec       q    Type
REMARK                         _______ _______ _______ _____ _____    ______ ____
ROOT
ATOM      1  C   UNL     1       2.583   6.874  19.368  0.00  0.00    +0.000 C 
ENDROOT
BRANCH   1   2
ATOM      2  C   UNL     1       1.784   8.061  19.922  0.00  0.00    +0.000 A 
ATOM      3  C   UNL     1       1.342   9.143  19.112  0.00  0.00    +0.000 A 
ATOM      4  C   UNL     1       0.542  10.166  19.631  0.00  0.00    +0.000 A 
ATOM      5  C   UNL     1       0.199  10.100  20.956  0.00  0.00    +0.000 A 
ATOM      6  C   UNL     1       0.636   9.080  21.766  0.00  0.00    +0.000 A 
ATOM      7  C   UNL     1       1.436   8.062  21.286  0.00  0.00    +0.000 A 
ATOM      8  O   UNL     1       0.174   9.196  23.040  0.00  0.00    +0.000 OA
ATOM      9  C   UNL     1      -0.642  10.380  22.926  0.00  0.00    +0.000 C 
ATOM     10  O   UNL     1      -0.606  10.977  21.613  0.00  0.00    +0.000 OA
ENDBRANCH   1   2
BRANCH   1  11
ATOM     11  C   UNL     1       3.239   7.237  17.986  0.00  0.00    +0.000 C 
ATOM     12  O   UNL     1       2.628   8.030  17.253  0.00  0.00    +0.000 OA
ATOM     13  N   UNL     1       4.448   6.691  17.565  0.00  0.00    +0.000 N 
ATOM     14  C   UNL     1       5.311   5.798  18.326  0.00  0.00    +0.000 C 
ATOM     15  C   UNL     1       5.604   4.529  17.526  0.00  0.00    +0.000 C 
ATOM     16  C   UNL     1       6.192   4.854  16.139  0.00  0.00    +0.000 C 
ATOM     17  C   UNL     1       5.313   5.875  15.404  0.00  0.00    +0.000 C 
ATOM     18  C   UNL     1       5.013   7.095  16.276  0.00  0.00    +0.000 C 
BRANCH  16  19
ATOM     19  O   UNL     1       7.501   5.426  16.307  0.00  0.00    +0.000 OA
ATOM     20  H   UNL     1       7.870   5.063  17.131  0.00  0.00    +0.000 HD
ENDBRANCH  16  19
BRANCH  16  21
ATOM     21  C   UNL     1       6.348   3.576  15.292  0.00  0.00    +0.000 C 
BRANCH  21  22
ATOM     22  O   UNL     1       6.397   3.907  13.902  0.00  0.00    +0.000 OA
ATOM     23  H   UNL     1       5.482   4.118  13.642  0.00  0.00    +0.000 HD
ENDBRANCH  21  22
ENDBRANCH  16  21
ENDBRANCH   1  11
BRANCH   1  25
ATOM     24  C   UNL     1       1.884   4.938  18.030  0.00  0.00    +0.000 C 
ATOM     25  N   UNL     1       1.884   5.544  19.373  0.00  0.00    +0.000 NA
ATOM     26  C   UNL     1       2.561   4.589  20.272  0.00  0.00    +0.000 C 
ENDBRANCH   1  25
TORSDOF 6
ENDMDL
