MODEL 1
REMARK VINA RESULT:      -3.5      0.000      0.000
REMARK  Name = 
REMARK  0 active torsions:
REMARK  status: ('A' for Active; 'I' for Inactive)
REMARK                            x       y       z     vdW  Elec       q    Type
REMARK                         _______ _______ _______ _____ _____    ______ ____
ROOT
ATOM      1  C   UNL     1       1.518   4.430  20.395  0.00  0.00    +0.000 A 
ATOM      2  C   UNL     1       2.038   5.122  19.307  0.00  0.00    +0.000 A 
ATOM      3  C   UNL     1       1.957   4.533  18.055  0.00  0.00    +0.000 A 
ATOM      4  N   UNL     1       1.397   3.324  17.829  0.00  0.00    +0.000 NA
ATOM      5  C   UNL     1       0.899   2.676  18.904  0.00  0.00    +0.000 A 
ATOM      6  C   UNL     1       0.937   3.182  20.194  0.00  0.00    +0.000 A 
ENDROOT
TORSDOF 0
ENDMDL
MODEL 2
REMARK VINA RESULT:      -3.5      0.113      1.921
REMARK  Name = 
REMARK  0 active torsions:
REMARK  status: ('A' for Active; 'I' for Inactive)
REMARK                            x       y       z     vdW  Elec       q    Type
REMARK                         _______ _______ _______ _____ _____    ______ ____
ROOT
ATOM      1  C   UNL     1       1.557   4.276  20.460  0.00  0.00    +0.000 A 
ATOM      2  C   UNL     1       0.971   3.045  20.187  0.00  0.00    +0.000 A 
ATOM      3  C   UNL     1       0.898   2.632  18.867  0.00  0.00    +0.000 A 
ATOM      4  N   UNL     1       1.369   3.354  17.826  0.00  0.00    +0.000 NA
ATOM      5  C   UNL     1       1.935   4.544  18.122  0.00  0.00    +0.000 A 
ATOM      6  C   UNL     1       2.049   5.044  19.410  0.00  0.00    +0.000 A 
ENDROOT
TORSDOF 0
ENDMDL
MODEL 3
REMARK VINA RESULT:      -3.4      1.849      2.308
REMARK  Name = 
REMARK  0 active torsions:
REMARK  status: ('A' for Active; 'I' for Inactive)
REMARK                            x       y       z     vdW  Elec       q    Type
REMARK                         _______ _______ _______ _____ _____    ______ ____
ROOT
ATOM      1  C   UNL     1       0.754   3.205  20.147  0.00  0.00    +0.000 A 
ATOM      2  C   UNL     1       0.974   2.658  18.888  0.00  0.00    +0.000 A 
ATOM      3  C   UNL     1       2.243   2.189  18.589  0.00  0.00    +0.000 A 
ATOM      4  N   UNL     1       3.281   2.228  19.453  0.00  0.00    +0.000 NA
ATOM      5  C   UNL     1       3.037   2.764  20.669  0.00  0.00    +0.000 A 
ATOM      6  C   UNL     1       1.803   3.262  21.058  0.00  0.00    +0.000 A 
ENDROOT
TORSDOF 0
ENDMDL
MODEL 4
REMARK VINA RESULT:      -3.4      5.073      6.074
REMARK  Name = 
REMARK  0 active torsions:
REMARK  status: ('A' for Active; 'I' for Inactive)
REMARK                            x       y       z     vdW  Elec       q    Type
REMARK                         _______ _______ _______ _____ _____    ______ ____
ROOT
ATOM      1  C   UNL     1       6.181   6.607  17.328  0.00  0.00    +0.000 A 
ATOM      2  C   UNL     1       5.249   5.848  18.026  0.00  0.00    +0.000 A 
ATOM      3  C   UNL     1       5.656   5.217  19.190  0.00  0.00    +0.000 A 
ATOM      4  N   UNL     1       6.908   5.301  19.692  0.00  0.00    +0.000 NA
ATOM      5  C   UNL     1       7.791   6.047  18.993  0.00  0.00    +0.000 A 
ATOM      6  C   UNL     1       7.479   6.711  17.817  0.00  0.00    +0.000 A 
ENDROOT
TORSDOF 0
ENDMDL
MODEL 5
REMARK VINA RESULT:      -3.4      7.104      8.286
REMARK  Name = 
REMARK  0 active torsions:
REMARK  status: ('A' for Active; 'I' for Inactive)
REMARK                            x       y       z     vdW  Elec       q    Type
REMARK                         _______ _______ _______ _____ _____    ______ ____
ROOT
ATOM      1  C   UNL     1       6.122   3.555  12.947  0.00  0.00    +0.000 A 
ATOM      2  C   UNL     1       6.044   3.881  14.296  0.00  0.00    +0.000 A 
ATOM      3  C   UNL     1       6.904   4.852  14.787  0.00  0.00    +0.000 A 
ATOM      4  N   UNL     1       7.811   5.504  14.027  0.00  0.00    +0.000 NA
ATOM      5  C   UNL     1       7.862   5.168  12.721  0.00  0.00    +0.000 A 
ATOM      6  C   UNL     1       7.048   4.209  12.140  0.00  0.00    +0.000 A 
ENDROOT
TORSDOF 0
ENDMDL
MODEL 6
REMARK VINA RESULT:      -3.4      5.079      5.851
REMARK  Name = 
REMARK  0 active torsions:
REMARK  status: ('A' for Active; 'I' for Inactive)
REMARK                            x       y       z     vdW  Elec       q    Type
REMARK                         _______ _______ _______ _____ _____    ______ ____
ROOT
ATOM      1  C   UNL     1       6.195   6.652  17.319  0.00  0.00    +0.000 A 
ATOM      2  C   UNL     1       7.489   6.739  17.820  0.00  0.00    +0.000 A 
ATOM      3  C   UNL     1       7.787   6.057  18.988  0.00  0.00    +0.000 A 
ATOM      4  N   UNL     1       6.893   5.305  19.668  0.00  0.00    +0.000 NA
ATOM      5  C   UNL     1       5.645   5.238  19.157  0.00  0.00    +0.000 A 
ATOM      6  C   UNL     1       5.252   5.888  17.998  0.00  0.00    +0.000 A 
ENDROOT
TORSDOF 0
ENDMDL
MODEL 7
REMARK VINA RESULT:      -3.4      7.101      8.144
REMARK  Name = 
REMARK  0 active torsions:
REMARK  status: ('A' for Active; 'I' for Inactive)
REMARK                            x       y       z     vdW  Elec       q    Type
REMARK                         _______ _______ _______ _____ _____    ______ ____
ROOT
ATOM      1  C   UNL     1       6.109   3.559  12.958  0.00  0.00    +0.000 A 
ATOM      2  C   UNL     1       7.034   4.200  12.141  0.00  0.00    +0.000 A 
ATOM      3  C   UNL     1       7.861   5.156  12.710  0.00  0.00    +0.000 A 
ATOM      4  N   UNL     1       7.825   5.498  14.017  0.00  0.00    +0.000 NA
ATOM      5  C   UNL     1       6.918   4.857  14.786  0.00  0.00    +0.000 A 
ATOM      6  C   UNL     1       6.047   3.892  14.307  0.00  0.00    +0.000 A 
ENDROOT
TORSDOF 0
ENDMDL
MODEL 8
REMARK VINA RESULT:      -3.4      1.957      2.542
REMARK  Name = 
REMARK  0 active torsions:
REMARK  status: ('A' for Active; 'I' for Inactive)
REMARK                            x       y       z     vdW  Elec       q    Type
REMARK                         _______ _______ _______ _____ _____    ______ ____
ROOT
ATOM      1  C   UNL     1       0.744   3.074  19.892  0.00  0.00    +0.000 A 
ATOM      2  C   UNL     1       1.449   3.185  21.085  0.00  0.00    +0.000 A 
ATOM      3  C   UNL     1       2.787   2.824  21.092  0.00  0.00    +0.000 A 
ATOM      4  N   UNL     1       3.449   2.374  20.003  0.00  0.00    +0.000 NA
ATOM      5  C   UNL     1       2.738   2.279  18.858  0.00  0.00    +0.000 A 
ATOM      6  C   UNL     1       1.397   2.612  18.754  0.00  0.00    +0.000 A 
ENDROOT
TORSDOF 0
ENDMDL
MODEL 9
REMARK VINA RESULT:      -3.4      1.320      2.019
REMARK  Name = 
REMARK  0 active torsions:
REMARK  status: ('A' for Active; 'I' for Inactive)
REMARK                            x       y       z     vdW  Elec       q    Type
REMARK                         _______ _______ _______ _____ _____    ______ ____
ROOT
ATOM      1  C   UNL     1       0.960   3.022  19.349  0.00  0.00    +0.000 A 
ATOM      2  C   UNL     1       1.466   3.597  18.189  0.00  0.00    +0.000 A 
ATOM      3  C   UNL     1       2.090   4.830  18.286  0.00  0.00    +0.000 A 
ATOM      4  N   UNL     1       2.240   5.507  19.446  0.00  0.00    +0.000 NA
ATOM      5  C   UNL     1       1.741   4.923  20.557  0.00  0.00    +0.000 A 
ATOM      6  C   UNL     1       1.097   3.695  20.559  0.00  0.00    +0.000 A 
ENDROOT
TORSDOF 0
ENDMDL
