MODEL 1
REMARK VINA RESULT:      -7.0      0.000      0.000
REMARK  Name = 
REMARK  4 active torsions:
REMARK  status: ('A' for Active; 'I' for Inactive)
REMARK    1  A    between atoms: C_1  and  N_2
REMARK    2  A    between atoms: N_2  and  C_3
REMARK    3  A    between atoms: N_2  and  C_4
REMARK    4  A    between atoms: C_7  and  C_8
REMARK                            x       y       z     vdW  Elec       q    Type
REMARK                         _______ _______ _______ _____ _____    ______ ____
ROOT
ATOM      1  C   UNL     1       6.116   5.348  15.642  0.00  0.00    +0.000 C 
ATOM      2  C   UNL     1       6.257   4.772  14.444  0.00  0.00    +0.000 C 
ATOM      3  N   UNL     1       5.424   3.881  13.836  0.00  0.00    +0.000 N 
ATOM      4  C   UNL     1       5.939   3.527  12.602  0.00  0.00    +0.000 C 
ATOM      5  O   UNL     1       5.434   2.754  11.807  0.00  0.00    +0.000 OA
ATOM      6  N   UNL     1       7.118   4.206  12.435  0.00  0.00    +0.000 N 
ATOM      7  C   UNL     1       7.399   4.998  13.510  0.00  0.00    +0.000 C 
ATOM      8  O   UNL     1       8.359   5.723  13.680  0.00  0.00    +0.000 OA
ATOM      9  H   UNL     1       4.554   3.524  14.211  0.00  0.00    +0.000 HD
ATOM     10  H   UNL     1       7.701   4.126  11.618  0.00  0.00    +0.000 HD
ENDROOT
BRANCH   1  14
ATOM     11  C   UNL     1       2.857   4.520  18.340  0.00  0.00    +0.000 A 
ATOM     12  C   UNL     1       3.627   3.496  17.759  0.00  0.00    +0.000 A 
ATOM     13  C   UNL     1       4.676   3.763  16.870  0.00  0.00    +0.000 A 
ATOM     14  C   UNL     1       5.003   5.075  16.546  0.00  0.00    +0.000 A 
ATOM     15  C   UNL     1       4.259   6.114  17.098  0.00  0.00    +0.000 A 
ATOM     16  C   UNL     1       3.208   5.834  17.983  0.00  0.00    +0.000 A 
BRANCH  11  18
ATOM     17  C   UNL     1       1.719   4.974  20.494  0.00  0.00    +0.000 C 
ATOM     18  N   UNL     1       1.824   4.249  19.233  0.00  0.00    +0.000 N 
ATOM     19  C   UNL     1       1.053   3.018  19.099  0.00  0.00    +0.000 C 
ENDBRANCH  11  18
ENDBRANCH   1  14
TORSDOF 2
ENDMDL
MODEL 2
REMARK VINA RESULT:      -7.0      0.146      1.169
REMARK  Name = 
REMARK  4 active torsions:
REMARK  status: ('A' for Active; 'I' for Inactive)
REMARK    1  A    between atoms: C_1  and  N_2
REMARK    2  A    between atoms: N_2  and  C_3
REMARK    3  A    between atoms: N_2  and  C_4
REMARK    4  A    between atoms: C_7  and  C_8
REMARK                            x       y       z     vdW  Elec       q    Type
REMARK                         _______ _______ _______ _____ _____    ______ ____
ROOT
ATOM      1  C   UNL     1       6.199   5.361  15.514  0.00  0.00    +0.000 C 
ATOM      2  C   UNL     1       6.319   4.758  14.328  0.00  0.00    +0.000 C 
ATOM      3  N   UNL     1       5.488   3.834  13.766  0.00  0.00    +0.000 N 
ATOM      4  C   UNL     1       5.977   3.460  12.527  0.00  0.00    +0.000 C 
ATOM      5  O   UNL     1       5.467   2.657  11.766  0.00  0.00    +0.000 OA
ATOM      6  N   UNL     1       7.137   4.158  12.310  0.00  0.00    +0.000 N 
ATOM      7  C   UNL     1       7.429   4.983  13.357  0.00  0.00    +0.000 C 
ATOM      8  O   UNL     1       8.378   5.731  13.482  0.00  0.00    +0.000 OA
ATOM      9  H   UNL     1       4.636   3.470  14.174  0.00  0.00    +0.000 HD
ATOM     10  H   UNL     1       7.698   4.070  11.480  0.00  0.00    +0.000 HD
ENDROOT
BRANCH   1  14
ATOM     11  C   UNL     1       2.974   4.576  18.267  0.00  0.00    +0.000 A 
ATOM     12  C   UNL     1       3.346   5.882  17.902  0.00  0.00    +0.000 A 
ATOM     13  C   UNL     1       4.403   6.139  17.020  0.00  0.00    +0.000 A 
ATOM     14  C   UNL     1       5.117   5.088  16.456  0.00  0.00    +0.000 A 
ATOM     15  C   UNL     1       4.780   3.781  16.798  0.00  0.00    +0.000 A 
ATOM     16  C   UNL     1       3.723   3.537  17.686  0.00  0.00    +0.000 A 
BRANCH  11  18
ATOM     17  C   UNL     1       1.798   5.047  20.397  0.00  0.00    +0.000 C 
ATOM     18  N   UNL     1       1.914   4.326  19.134  0.00  0.00    +0.000 N 
ATOM     19  C   UNL     1       1.117   3.114  18.975  0.00  0.00    +0.000 C 
ENDBRANCH  11  18
ENDBRANCH   1  14
TORSDOF 2
ENDMDL
MODEL 3
REMARK VINA RESULT:      -6.9      4.179      5.891
REMARK  Name = 
REMARK  4 active torsions:
REMARK  status: ('A' for Active; 'I' for Inactive)
REMARK    1  A    between atoms: C_1  and  N_2
REMARK    2  A    between atoms: N_2  and  C_3
REMARK    3  A    between atoms: N_2  and  C_4
REMARK    4  A    between atoms: C_7  and  C_8
REMARK                            x       y       z     vdW  Elec       q    Type
REMARK                         _______ _______ _______ _____ _____    ______ ____
ROOT
ATOM      1  C   UNL     1       2.954   5.714  18.141  0.00  0.00    +0.000 C 
ATOM      2  C   UNL     1       4.179   5.278  18.449  0.00  0.00    +0.000 C 
ATOM      3  N   UNL     1       5.113   5.881  19.239  0.00  0.00    +0.000 N 
ATOM      4  C   UNL     1       6.251   5.098  19.296  0.00  0.00    +0.000 C 
ATOM      5  O   UNL     1       7.267   5.350  19.921  0.00  0.00    +0.000 OA
ATOM      6  N   UNL     1       6.030   3.986  18.525  0.00  0.00    +0.000 N 
ATOM      7  C   UNL     1       4.785   4.003  17.965  0.00  0.00    +0.000 C 
ATOM      8  O   UNL     1       4.278   3.176  17.234  0.00  0.00    +0.000 OA
ATOM      9  H   UNL     1       5.006   6.763  19.723  0.00  0.00    +0.000 HD
ATOM     10  H   UNL     1       6.704   3.251  18.393  0.00  0.00    +0.000 HD
ENDROOT
BRANCH   1  14
ATOM     11  C   UNL     1       1.305   9.468  19.478  0.00  0.00    +0.000 A 
ATOM     12  C   UNL     1       1.728   9.265  18.152  0.00  0.00    +0.000 A 
ATOM     13  C   UNL     1       2.279   8.052  17.720  0.00  0.00    +0.000 A 
ATOM     14  C   UNL     1       2.407   6.987  18.604  0.00  0.00    +0.000 A 
ATOM     15  C   UNL     1       2.004   7.152  19.927  0.00  0.00    +0.000 A 
ATOM     16  C   UNL     1       1.459   8.373  20.348  0.00  0.00    +0.000 A 
BRANCH  11  18
ATOM     17  C   UNL     1      -0.573  10.706  20.517  0.00  0.00    +0.000 C 
ATOM     18  N   UNL     1       0.748  10.672  19.898  0.00  0.00    +0.000 N 
ATOM     19  C   UNL     1       1.296  11.934  19.415  0.00  0.00    +0.000 C 
ENDBRANCH  11  18
ENDBRANCH   1  14
TORSDOF 2
ENDMDL
MODEL 4
REMARK VINA RESULT:      -6.8      3.401      4.686
REMARK  Name = 
REMARK  4 active torsions:
REMARK  status: ('A' for Active; 'I' for Inactive)
REMARK    1  A    between atoms: C_1  and  N_2
REMARK    2  A    between atoms: N_2  and  C_3
REMARK    3  A    between atoms: N_2  and  C_4
REMARK    4  A    between atoms: C_7  and  C_8
REMARK                            x       y       z     vdW  Elec       q    Type
REMARK                         _______ _______ _______ _____ _____    ______ ____
ROOT
ATOM      1  C   UNL     1       4.407   5.652  17.102  0.00  0.00    +0.000 C 
ATOM      2  C   UNL     1       5.653   5.311  17.445  0.00  0.00    +0.000 C 
ATOM      3  N   UNL     1       6.332   5.642  18.581  0.00  0.00    +0.000 N 
ATOM      4  C   UNL     1       7.600   5.089  18.543  0.00  0.00    +0.000 C 
ATOM      5  O   UNL     1       8.454   5.192  19.406  0.00  0.00    +0.000 OA
ATOM      6  N   UNL     1       7.719   4.402  17.363  0.00  0.00    +0.000 N 
ATOM      7  C   UNL     1       6.576   4.477  16.621  0.00  0.00    +0.000 C 
ATOM      8  O   UNL     1       6.351   3.985  15.533  0.00  0.00    +0.000 OA
ATOM      9  H   UNL     1       5.979   6.201  19.347  0.00  0.00    +0.000 HD
ATOM     10  H   UNL     1       8.548   3.906  17.083  0.00  0.00    +0.000 HD
ENDROOT
BRANCH   1  14
ATOM     11  C   UNL     1       1.830   8.161  19.480  0.00  0.00    +0.000 A 
ATOM     12  C   UNL     1       2.339   8.575  18.236  0.00  0.00    +0.000 A 
ATOM     13  C   UNL     1       3.189   7.768  17.469  0.00  0.00    +0.000 A 
ATOM     14  C   UNL     1       3.545   6.501  17.918  0.00  0.00    +0.000 A 
ATOM     15  C   UNL     1       3.065   6.059  19.149  0.00  0.00    +0.000 A 
ATOM     16  C   UNL     1       2.219   6.879  19.909  0.00  0.00    +0.000 A 
BRANCH  11  18
ATOM     17  C   UNL     1       0.403  10.179  19.663  0.00  0.00    +0.000 C 
ATOM     18  N   UNL     1       0.976   8.963  20.231  0.00  0.00    +0.000 N 
ATOM     19  C   UNL     1       0.923   8.808  21.681  0.00  0.00    +0.000 C 
ENDBRANCH  11  18
ENDBRANCH   1  14
TORSDOF 2
ENDMDL
MODEL 5
REMARK VINA RESULT:      -6.8      4.137      5.806
REMARK  Name = 
REMARK  4 active torsions:
REMARK  status: ('A' for Active; 'I' for Inactive)
REMARK    1  A    between atoms: C_1  and  N_2
REMARK    2  A    between atoms: N_2  and  C_3
REMARK    3  A    between atoms: N_2  and  C_4
REMARK    4  A    between atoms: C_7  and  C_8
REMARK                            x       y       z     vdW  Elec       q    Type
REMARK                         _______ _______ _______ _____ _____    ______ ____
ROOT
ATOM      1  C   UNL     1       2.990   5.684  18.109  0.00  0.00    +0.000 C 
ATOM      2  C   UNL     1       4.223   5.271  18.422  0.00  0.00    +0.000 C 
ATOM      3  N   UNL     1       5.129   5.876  19.242  0.00  0.00    +0.000 N 
ATOM      4  C   UNL     1       6.287   5.121  19.293  0.00  0.00    +0.000 C 
ATOM      5  O   UNL     1       7.287   5.382  19.939  0.00  0.00    +0.000 OA
ATOM      6  N   UNL     1       6.105   4.026  18.488  0.00  0.00    +0.000 N 
ATOM      7  C   UNL     1       4.868   4.027  17.911  0.00  0.00    +0.000 C 
ATOM      8  O   UNL     1       4.393   3.208  17.150  0.00  0.00    +0.000 OA
ATOM      9  H   UNL     1       4.993   6.741  19.749  0.00  0.00    +0.000 HD
ATOM     10  H   UNL     1       6.800   3.313  18.345  0.00  0.00    +0.000 HD
ENDROOT
BRANCH   1  14
ATOM     11  C   UNL     1       1.292   9.361  19.588  0.00  0.00    +0.000 A 
ATOM     12  C   UNL     1       1.487   8.240  20.414  0.00  0.00    +0.000 A 
ATOM     13  C   UNL     1       2.023   7.040  19.932  0.00  0.00    +0.000 A 
ATOM     14  C   UNL     1       2.404   6.928  18.600  0.00  0.00    +0.000 A 
ATOM     15  C   UNL     1       2.221   8.016  17.750  0.00  0.00    +0.000 A 
ATOM     16  C   UNL     1       1.678   9.210  18.244  0.00  0.00    +0.000 A 
BRANCH  11  18
ATOM     17  C   UNL     1      -0.519  10.582  20.758  0.00  0.00    +0.000 C 
ATOM     18  N   UNL     1       0.770  10.556  20.076  0.00  0.00    +0.000 N 
ATOM     19  C   UNL     1       1.311  11.828  19.610  0.00  0.00    +0.000 C 
ENDBRANCH  11  18
ENDBRANCH   1  14
TORSDOF 2
ENDMDL
MODEL 6
REMARK VINA RESULT:      -6.8      4.983      6.366
REMARK  Name = 
REMARK  4 active torsions:
REMARK  status: ('A' for Active; 'I' for Inactive)
REMARK    1  A    between atoms: C_1  and  N_2
REMARK    2  A    between atoms: N_2  and  C_3
REMARK    3  A    between atoms: N_2  and  C_4
REMARK    4  A    between atoms: C_7  and  C_8
REMARK                            x       y       z     vdW  Elec       q    Type
REMARK                         _______ _______ _______ _____ _____    ______ ____
ROOT
ATOM      1  C   UNL     1       3.370   5.570  19.423  0.00  0.00    +0.000 C 
ATOM      2  C   UNL     1       2.817   4.367  19.237  0.00  0.00    +0.000 C 
ATOM      3  N   UNL     1       1.534   4.078  18.880  0.00  0.00    +0.000 N 
ATOM      4  C   UNL     1       1.371   2.707  18.799  0.00  0.00    +0.000 C 
ATOM      5  O   UNL     1       0.345   2.122  18.499  0.00  0.00    +0.000 OA
ATOM      6  N   UNL     1       2.572   2.126  19.113  0.00  0.00    +0.000 N 
ATOM      7  C   UNL     1       3.524   3.063  19.394  0.00  0.00    +0.000 C 
ATOM      8  O   UNL     1       4.684   2.885  19.708  0.00  0.00    +0.000 OA
ATOM      9  H   UNL     1       0.799   4.749  18.694  0.00  0.00    +0.000 HD
ATOM     10  H   UNL     1       2.727   1.132  19.132  0.00  0.00    +0.000 HD
ENDROOT
BRANCH   1  14
ATOM     11  C   UNL     1       1.232   9.299  19.079  0.00  0.00    +0.000 A 
ATOM     12  C   UNL     1       1.264   8.561  20.276  0.00  0.00    +0.000 A 
ATOM     13  C   UNL     1       1.945   7.342  20.385  0.00  0.00    +0.000 A 
ATOM     14  C   UNL     1       2.637   6.827  19.295  0.00  0.00    +0.000 A 
ATOM     15  C   UNL     1       2.623   7.526  18.092  0.00  0.00    +0.000 A 
ATOM     16  C   UNL     1       1.933   8.743  17.994  0.00  0.00    +0.000 A 
BRANCH  11  18
ATOM     17  C   UNL     1       1.305  11.761  18.814  0.00  0.00    +0.000 C 
ATOM     18  N   UNL     1       0.564  10.516  18.981  0.00  0.00    +0.000 N 
ATOM     19  C   UNL     1      -0.832  10.613  19.394  0.00  0.00    +0.000 C 
ENDBRANCH  11  18
ENDBRANCH   1  14
TORSDOF 2
ENDMDL
MODEL 7
REMARK VINA RESULT:      -6.8      4.968      6.328
REMARK  Name = 
REMARK  4 active torsions:
REMARK  status: ('A' for Active; 'I' for Inactive)
REMARK    1  A    between atoms: C_1  and  N_2
REMARK    2  A    between atoms: N_2  and  C_3
REMARK    3  A    between atoms: N_2  and  C_4
REMARK    4  A    between atoms: C_7  and  C_8
REMARK                            x       y       z     vdW  Elec       q    Type
REMARK                         _______ _______ _______ _____ _____    ______ ____
ROOT
ATOM      1  C   UNL     1       3.403   5.545  19.418  0.00  0.00    +0.000 C 
ATOM      2  C   UNL     1       2.836   4.350  19.226  0.00  0.00    +0.000 C 
ATOM      3  N   UNL     1       1.549   4.078  18.868  0.00  0.00    +0.000 N 
ATOM      4  C   UNL     1       1.370   2.709  18.781  0.00  0.00    +0.000 C 
ATOM      5  O   UNL     1       0.337   2.138  18.478  0.00  0.00    +0.000 OA
ATOM      6  N   UNL     1       2.564   2.113  19.092  0.00  0.00    +0.000 N 
ATOM      7  C   UNL     1       3.527   3.037  19.378  0.00  0.00    +0.000 C 
ATOM      8  O   UNL     1       4.685   2.843  19.690  0.00  0.00    +0.000 OA
ATOM      9  H   UNL     1       0.823   4.759  18.685  0.00  0.00    +0.000 HD
ATOM     10  H   UNL     1       2.707   1.117  19.106  0.00  0.00    +0.000 HD
ENDROOT
BRANCH   1  14
ATOM     11  C   UNL     1       1.259   9.266  19.024  0.00  0.00    +0.000 A 
ATOM     12  C   UNL     1       1.988   8.706  17.961  0.00  0.00    +0.000 A 
ATOM     13  C   UNL     1       2.698   7.506  18.091  0.00  0.00    +0.000 A 
ATOM     14  C   UNL     1       2.686   6.811  19.296  0.00  0.00    +0.000 A 
ATOM     15  C   UNL     1       1.978   7.338  20.373  0.00  0.00    +0.000 A 
ATOM     16  C   UNL     1       1.276   8.543  20.231  0.00  0.00    +0.000 A 
BRANCH  11  18
ATOM     17  C   UNL     1       1.237  11.735  18.813  0.00  0.00    +0.000 C 
ATOM     18  N   UNL     1       0.545  10.452  18.885  0.00  0.00    +0.000 N 
ATOM     19  C   UNL     1      -0.887  10.475  19.165  0.00  0.00    +0.000 C 
ENDBRANCH  11  18
ENDBRANCH   1  14
TORSDOF 2
ENDMDL
MODEL 8
REMARK VINA RESULT:      -6.8      1.240      1.431
REMARK  Name = 
REMARK  4 active torsions:
REMARK  status: ('A' for Active; 'I' for Inactive)
REMARK    1  A    between atoms: C_1  and  N_2
REMARK    2  A    between atoms: N_2  and  C_3
REMARK    3  A    between atoms: N_2  and  C_4
REMARK    4  A    between atoms: C_7  and  C_8
REMARK                            x       y       z     vdW  Elec       q    Type
REMARK                         _______ _______ _______ _____ _____    ______ ____
ROOT
ATOM      1  C   UNL     1       6.841   5.362  15.560  0.00  0.00    +0.000 C 
ATOM      2  C   UNL     1       6.799   4.794  14.350  0.00  0.00    +0.000 C 
ATOM      3  N   UNL     1       5.934   3.843  13.898  0.00  0.00    +0.000 N 
ATOM      4  C   UNL     1       6.235   3.525  12.586  0.00  0.00    +0.000 C 
ATOM      5  O   UNL     1       5.649   2.714  11.890  0.00  0.00    +0.000 OA
ATOM      6  N   UNL     1       7.311   4.287  12.210  0.00  0.00    +0.000 N 
ATOM      7  C   UNL     1       7.728   5.101  13.224  0.00  0.00    +0.000 C 
ATOM      8  O   UNL     1       8.648   5.894  13.221  0.00  0.00    +0.000 OA
ATOM      9  H   UNL     1       5.176   3.425  14.424  0.00  0.00    +0.000 HD
ATOM     10  H   UNL     1       7.736   4.248  11.300  0.00  0.00    +0.000 HD
ENDROOT
BRANCH   1  14
ATOM     11  C   UNL     1       4.156   4.290  18.758  0.00  0.00    +0.000 A 
ATOM     12  C   UNL     1       3.692   4.677  17.489  0.00  0.00    +0.000 A 
ATOM     13  C   UNL     1       4.562   5.041  16.454  0.00  0.00    +0.000 A 
ATOM     14  C   UNL     1       5.938   5.010  16.652  0.00  0.00    +0.000 A 
ATOM     15  C   UNL     1       6.434   4.637  17.898  0.00  0.00    +0.000 A 
ATOM     16  C   UNL     1       5.552   4.280  18.928  0.00  0.00    +0.000 A 
BRANCH  11  18
ATOM     17  C   UNL     1       2.510   4.921  20.501  0.00  0.00    +0.000 C 
ATOM     18  N   UNL     1       3.286   3.918  19.780  0.00  0.00    +0.000 N 
ATOM     19  C   UNL     1       3.399   2.594  20.382  0.00  0.00    +0.000 C 
ENDBRANCH  11  18
ENDBRANCH   1  14
TORSDOF 2
ENDMDL
MODEL 9
REMARK VINA RESULT:      -6.8      1.180      1.219
REMARK  Name = 
REMARK  4 active torsions:
REMARK  status: ('A' for Active; 'I' for Inactive)
REMARK    1  A    between atoms: C_1  and  N_2
REMARK    2  A    between atoms: N_2  and  C_3
REMARK    3  A    between atoms: N_2  and  C_4
REMARK    4  A    between atoms: C_7  and  C_8
REMARK                            x       y       z     vdW  Elec       q    Type
REMARK                         _______ _______ _______ _____ _____    ______ ____
ROOT
ATOM      1  C   UNL     1       6.767   5.347  15.590  0.00  0.00    +0.000 C 
ATOM      2  C   UNL     1       6.749   4.787  14.376  0.00  0.00    +0.000 C 
ATOM      3  N   UNL     1       5.889   3.844  13.897  0.00  0.00    +0.000 N 
ATOM      4  C   UNL     1       6.220   3.532  12.591  0.00  0.00    +0.000 C 
ATOM      5  O   UNL     1       5.645   2.730  11.876  0.00  0.00    +0.000 OA
ATOM      6  N   UNL     1       7.308   4.291  12.245  0.00  0.00    +0.000 N 
ATOM      7  C   UNL     1       7.706   5.095  13.273  0.00  0.00    +0.000 C 
ATOM      8  O   UNL     1       8.631   5.883  13.297  0.00  0.00    +0.000 OA
ATOM      9  H   UNL     1       5.118   3.427  14.402  0.00  0.00    +0.000 HD
ATOM     10  H   UNL     1       7.754   4.255  11.344  0.00  0.00    +0.000 HD
ENDROOT
BRANCH   1  14
ATOM     11  C   UNL     1       4.040   4.333  18.772  0.00  0.00    +0.000 A 
ATOM     12  C   UNL     1       5.430   4.163  18.895  0.00  0.00    +0.000 A 
ATOM     13  C   UNL     1       6.316   4.477  17.857  0.00  0.00    +0.000 A 
ATOM     14  C   UNL     1       5.836   4.993  16.658  0.00  0.00    +0.000 A 
ATOM     15  C   UNL     1       4.465   5.170  16.498  0.00  0.00    +0.000 A 
ATOM     16  C   UNL     1       3.588   4.847  17.543  0.00  0.00    +0.000 A 
BRANCH  11  18
ATOM     17  C   UNL     1       2.381   5.080  20.454  0.00  0.00    +0.000 C 
ATOM     18  N   UNL     1       3.165   4.031  19.812  0.00  0.00    +0.000 N 
ATOM     19  C   UNL     1       3.278   2.754  20.507  0.00  0.00    +0.000 C 
ENDBRANCH  11  18
ENDBRANCH   1  14
TORSDOF 2
ENDMDL
