MODEL 1
REMARK VINA RESULT:      -7.0      0.000      0.000
REMARK  Name = 
REMARK  2 active torsions:
REMARK  status: ('A' for Active; 'I' for Inactive)
REMARK    1  A    between atoms: C_1  and  N_2
REMARK    2  A    between atoms: C_16  and  C_17
REMARK                            x       y       z     vdW  Elec       q    Type
REMARK                         _______ _______ _______ _____ _____    ______ ____
ROOT
ATOM      1  C   UNL     1       3.552   2.602  19.364  0.00  0.00    +0.000 C 
ATOM      2  N   UNL     1       3.496   3.898  18.712  0.00  0.00    +0.000 N 
ATOM      3  C   UNL     1       4.031   3.879  17.427  0.00  0.00    +0.000 C 
ATOM      4  O   UNL     1       3.870   2.970  16.617  0.00  0.00    +0.000 OA
ATOM      5  C   UNL     1       5.125   4.809  17.214  0.00  0.00    +0.000 A 
ATOM      6  C   UNL     1       6.402   4.319  16.950  0.00  0.00    +0.000 A 
ATOM      7  C   UNL     1       7.457   5.218  16.864  0.00  0.00    +0.000 A 
ATOM      8  C   UNL     1       7.173   6.567  17.024  0.00  0.00    +0.000 A 
ATOM      9  N   UNL     1       5.933   7.062  17.266  0.00  0.00    +0.000 NA
ATOM     10  C   UNL     1       4.933   6.156  17.382  0.00  0.00    +0.000 A 
ATOM     11  O   UNL     1       3.662   6.653  17.529  0.00  0.00    +0.000 OA
ATOM     12  C   UNL     1       3.015   6.354  18.711  0.00  0.00    +0.000 A 
ATOM     13  C   UNL     1       2.353   7.483  19.230  0.00  0.00    +0.000 A 
ATOM     14  C   UNL     1       1.622   7.406  20.405  0.00  0.00    +0.000 A 
ATOM     15  C   UNL     1       1.559   6.194  21.070  0.00  0.00    +0.000 A 
ATOM     16  C   UNL     1       2.202   5.042  20.562  0.00  0.00    +0.000 A 
ATOM     17  C   UNL     1       2.938   5.082  19.342  0.00  0.00    +0.000 A 
ENDROOT
BRANCH  16  18
ATOM     18  C   UNL     1       1.992   3.869  21.364  0.00  0.00    +0.000 C 
ATOM     19  N   UNL     1       1.840   2.943  22.043  0.00  0.00    +0.000 NA
ENDBRANCH  16  18
TORSDOF 1
ENDMDL
MODEL 2
REMARK VINA RESULT:      -6.2      2.391      4.823
REMARK  Name = 
REMARK  2 active torsions:
REMARK  status: ('A' for Active; 'I' for Inactive)
REMARK    1  A    between atoms: C_1  and  N_2
REMARK    2  A    between atoms: C_16  and  C_17
REMARK                            x       y       z     vdW  Elec       q    Type
REMARK                         _______ _______ _______ _____ _____    ______ ____
ROOT
ATOM      1  C   UNL     1       3.466   7.603  17.407  0.00  0.00    +0.000 C 
ATOM      2  N   UNL     1       3.013   6.986  18.640  0.00  0.00    +0.000 N 
ATOM      3  C   UNL     1       3.640   5.770  18.898  0.00  0.00    +0.000 C 
ATOM      4  O   UNL     1       4.831   5.543  18.704  0.00  0.00    +0.000 OA
ATOM      5  C   UNL     1       2.735   4.642  19.042  0.00  0.00    +0.000 A 
ATOM      6  C   UNL     1       2.767   3.612  18.105  0.00  0.00    +0.000 A 
ATOM      7  C   UNL     1       1.819   2.602  18.193  0.00  0.00    +0.000 A 
ATOM      8  C   UNL     1       0.901   2.664  19.232  0.00  0.00    +0.000 A 
ATOM      9  N   UNL     1       0.866   3.652  20.161  0.00  0.00    +0.000 NA
ATOM     10  C   UNL     1       1.780   4.641  20.025  0.00  0.00    +0.000 A 
ATOM     11  O   UNL     1       1.815   5.592  21.015  0.00  0.00    +0.000 OA
ATOM     12  C   UNL     1       1.512   6.885  20.640  0.00  0.00    +0.000 A 
ATOM     13  C   UNL     1       0.657   7.500  21.575  0.00  0.00    +0.000 A 
ATOM     14  C   UNL     1       0.238   8.810  21.407  0.00  0.00    +0.000 A 
ATOM     15  C   UNL     1       0.670   9.508  20.293  0.00  0.00    +0.000 A 
ATOM     16  C   UNL     1       1.541   8.919  19.348  0.00  0.00    +0.000 A 
ATOM     17  C   UNL     1       2.012   7.584  19.507  0.00  0.00    +0.000 A 
ENDROOT
BRANCH  16  18
ATOM     18  C   UNL     1       1.914   9.807  18.282  0.00  0.00    +0.000 C 
ATOM     19  N   UNL     1       2.208  10.555  17.448  0.00  0.00    +0.000 NA
ENDBRANCH  16  18
TORSDOF 1
ENDMDL
MODEL 3
REMARK VINA RESULT:      -6.1      2.037      5.265
REMARK  Name = 
REMARK  2 active torsions:
REMARK  status: ('A' for Active; 'I' for Inactive)
REMARK    1  A    between atoms: C_1  and  N_2
REMARK    2  A    between atoms: C_16  and  C_17
REMARK                            x       y       z     vdW  Elec       q    Type
REMARK                         _______ _______ _______ _____ _____    ______ ____
ROOT
ATOM      1  C   UNL     1       4.443   3.431  15.694  0.00  0.00    +0.000 C 
ATOM      2  N   UNL     1       4.710   3.595  17.111  0.00  0.00    +0.000 N 
ATOM      3  C   UNL     1       3.960   2.730  17.904  0.00  0.00    +0.000 C 
ATOM      4  O   UNL     1       3.729   1.555  17.632  0.00  0.00    +0.000 OA
ATOM      5  C   UNL     1       3.121   3.389  18.891  0.00  0.00    +0.000 A 
ATOM      6  C   UNL     1       1.735   3.299  18.783  0.00  0.00    +0.000 A 
ATOM      7  C   UNL     1       0.951   4.029  19.666  0.00  0.00    +0.000 A 
ATOM      8  C   UNL     1       1.597   4.794  20.627  0.00  0.00    +0.000 A 
ATOM      9  N   UNL     1       2.945   4.880  20.755  0.00  0.00    +0.000 NA
ATOM     10  C   UNL     1       3.682   4.186  19.855  0.00  0.00    +0.000 A 
ATOM     11  O   UNL     1       5.042   4.188  20.036  0.00  0.00    +0.000 OA
ATOM     12  C   UNL     1       5.797   4.767  19.036  0.00  0.00    +0.000 A 
ATOM     13  C   UNL     1       6.811   5.585  19.571  0.00  0.00    +0.000 A 
ATOM     14  C   UNL     1       7.702   6.252  18.745  0.00  0.00    +0.000 A 
ATOM     15  C   UNL     1       7.573   6.108  17.374  0.00  0.00    +0.000 A 
ATOM     16  C   UNL     1       6.573   5.281  16.813  0.00  0.00    +0.000 A 
ATOM     17  C   UNL     1       5.660   4.560  17.635  0.00  0.00    +0.000 A 
ENDROOT
BRANCH  16  18
ATOM     18  C   UNL     1       6.618   5.222  15.378  0.00  0.00    +0.000 C 
ATOM     19  N   UNL     1       6.696   5.173  14.224  0.00  0.00    +0.000 NA
ENDBRANCH  16  18
TORSDOF 1
ENDMDL
MODEL 4
REMARK VINA RESULT:      -6.1      1.836      4.806
REMARK  Name = 
REMARK  2 active torsions:
REMARK  status: ('A' for Active; 'I' for Inactive)
REMARK    1  A    between atoms: C_1  and  N_2
REMARK    2  A    between atoms: C_16  and  C_17
REMARK                            x       y       z     vdW  Elec       q    Type
REMARK                         _______ _______ _______ _____ _____    ______ ____
ROOT
ATOM      1  C   UNL     1       5.322   4.200  17.194  0.00  0.00    +0.000 C 
ATOM      2  N   UNL     1       4.449   4.686  18.247  0.00  0.00    +0.000 N 
ATOM      3  C   UNL     1       4.356   3.805  19.320  0.00  0.00    +0.000 C 
ATOM      4  O   UNL     1       5.298   3.170  19.786  0.00  0.00    +0.000 OA
ATOM      5  C   UNL     1       3.007   3.363  19.624  0.00  0.00    +0.000 A 
ATOM      6  C   UNL     1       2.669   2.022  19.454  0.00  0.00    +0.000 A 
ATOM      7  C   UNL     1       1.347   1.640  19.638  0.00  0.00    +0.000 A 
ATOM      8  C   UNL     1       0.434   2.619  20.006  0.00  0.00    +0.000 A 
ATOM      9  N   UNL     1       0.750   3.926  20.190  0.00  0.00    +0.000 NA
ATOM     10  C   UNL     1       2.040   4.272  19.967  0.00  0.00    +0.000 A 
ATOM     11  O   UNL     1       2.389   5.570  20.244  0.00  0.00    +0.000 OA
ATOM     12  C   UNL     1       2.815   6.337  19.179  0.00  0.00    +0.000 A 
ATOM     13  C   UNL     1       2.242   7.623  19.214  0.00  0.00    +0.000 A 
ATOM     14  C   UNL     1       2.547   8.567  18.247  0.00  0.00    +0.000 A 
ATOM     15  C   UNL     1       3.423   8.222  17.233  0.00  0.00    +0.000 A 
ATOM     16  C   UNL     1       4.024   6.943  17.184  0.00  0.00    +0.000 A 
ATOM     17  C   UNL     1       3.753   5.959  18.178  0.00  0.00    +0.000 A 
ENDROOT
BRANCH  16  18
ATOM     18  C   UNL     1       4.935   6.780  16.085  0.00  0.00    +0.000 C 
ATOM     19  N   UNL     1       5.666   6.690  15.192  0.00  0.00    +0.000 NA
ENDBRANCH  16  18
TORSDOF 1
ENDMDL
MODEL 5
REMARK VINA RESULT:      -6.1      9.652     11.825
REMARK  Name = 
REMARK  2 active torsions:
REMARK  status: ('A' for Active; 'I' for Inactive)
REMARK    1  A    between atoms: C_1  and  N_2
REMARK    2  A    between atoms: C_16  and  C_17
REMARK                            x       y       z     vdW  Elec       q    Type
REMARK                         _______ _______ _______ _____ _____    ______ ____
ROOT
ATOM      1  C   UNL     1       7.008  14.621  18.816  0.00  0.00    +0.000 C 
ATOM      2  N   UNL     1       8.311  14.640  18.177  0.00  0.00    +0.000 N 
ATOM      3  C   UNL     1       8.714  13.382  17.736  0.00  0.00    +0.000 C 
ATOM      4  O   UNL     1       7.974  12.557  17.207  0.00  0.00    +0.000 OA
ATOM      5  C   UNL     1       9.977  12.924  18.289  0.00  0.00    +0.000 A 
ATOM      6  C   UNL     1       9.995  11.815  19.132  0.00  0.00    +0.000 A 
ATOM      7  C   UNL     1      11.191  11.462  19.742  0.00  0.00    +0.000 A 
ATOM      8  C   UNL     1      12.314  12.226  19.457  0.00  0.00    +0.000 A 
ATOM      9  N   UNL     1      12.316  13.299  18.627  0.00  0.00    +0.000 NA
ATOM     10  C   UNL     1      11.126  13.639  18.077  0.00  0.00    +0.000 A 
ATOM     11  O   UNL     1      11.137  14.662  17.162  0.00  0.00    +0.000 OA
ATOM     12  C   UNL     1      10.423  15.795  17.493  0.00  0.00    +0.000 A 
ATOM     13  C   UNL     1      11.150  16.963  17.190  0.00  0.00    +0.000 A 
ATOM     14  C   UNL     1      10.614  18.219  17.425  0.00  0.00    +0.000 A 
ATOM     15  C   UNL     1       9.347  18.310  17.973  0.00  0.00    +0.000 A 
ATOM     16  C   UNL     1       8.591  17.153  18.272  0.00  0.00    +0.000 A 
ATOM     17  C   UNL     1       9.102  15.848  18.017  0.00  0.00    +0.000 A 
ENDROOT
BRANCH  16  18
ATOM     18  C   UNL     1       7.284  17.442  18.796  0.00  0.00    +0.000 C 
ATOM     19  N   UNL     1       6.230  17.708  19.193  0.00  0.00    +0.000 NA
ENDBRANCH  16  18
TORSDOF 1
ENDMDL
MODEL 6
REMARK VINA RESULT:      -6.0      2.559      4.213
REMARK  Name = 
REMARK  2 active torsions:
REMARK  status: ('A' for Active; 'I' for Inactive)
REMARK    1  A    between atoms: C_1  and  N_2
REMARK    2  A    between atoms: C_16  and  C_17
REMARK                            x       y       z     vdW  Elec       q    Type
REMARK                         _______ _______ _______ _____ _____    ______ ____
ROOT
ATOM      1  C   UNL     1       5.408   7.567  17.194  0.00  0.00    +0.000 C 
ATOM      2  N   UNL     1       5.426   6.132  16.973  0.00  0.00    +0.000 N 
ATOM      3  C   UNL     1       6.677   5.662  16.582  0.00  0.00    +0.000 C 
ATOM      4  O   UNL     1       7.745   6.051  17.045  0.00  0.00    +0.000 OA
ATOM      5  C   UNL     1       6.689   4.964  15.308  0.00  0.00    +0.000 A 
ATOM      6  C   UNL     1       7.382   5.511  14.231  0.00  0.00    +0.000 A 
ATOM      7  C   UNL     1       7.286   4.890  12.993  0.00  0.00    +0.000 A 
ATOM      8  C   UNL     1       6.518   3.738  12.904  0.00  0.00    +0.000 A 
ATOM      9  N   UNL     1       5.850   3.183  13.946  0.00  0.00    +0.000 NA
ATOM     10  C   UNL     1       5.933   3.834  15.131  0.00  0.00    +0.000 A 
ATOM     11  O   UNL     1       5.342   3.229  16.212  0.00  0.00    +0.000 OA
ATOM     12  C   UNL     1       4.295   3.907  16.803  0.00  0.00    +0.000 A 
ATOM     13  C   UNL     1       3.227   3.038  17.100  0.00  0.00    +0.000 A 
ATOM     14  C   UNL     1       2.076   3.503  17.716  0.00  0.00    +0.000 A 
ATOM     15  C   UNL     1       1.988   4.849  18.028  0.00  0.00    +0.000 A 
ATOM     16  C   UNL     1       3.051   5.739  17.753  0.00  0.00    +0.000 A 
ATOM     17  C   UNL     1       4.258   5.287  17.147  0.00  0.00    +0.000 A 
ENDROOT
BRANCH  16  18
ATOM     18  C   UNL     1       2.796   7.086  18.184  0.00  0.00    +0.000 C 
ATOM     19  N   UNL     1       2.559   8.157  18.554  0.00  0.00    +0.000 NA
ENDBRANCH  16  18
TORSDOF 1
ENDMDL
MODEL 7
REMARK VINA RESULT:      -6.0      1.563      1.662
REMARK  Name = 
REMARK  2 active torsions:
REMARK  status: ('A' for Active; 'I' for Inactive)
REMARK    1  A    between atoms: C_1  and  N_2
REMARK    2  A    between atoms: C_16  and  C_17
REMARK                            x       y       z     vdW  Elec       q    Type
REMARK                         _______ _______ _______ _____ _____    ______ ____
ROOT
ATOM      1  C   UNL     1       2.997   2.466  17.132  0.00  0.00    +0.000 C 
ATOM      2  N   UNL     1       3.366   3.828  17.475  0.00  0.00    +0.000 N 
ATOM      3  C   UNL     1       4.322   4.360  16.613  0.00  0.00    +0.000 C 
ATOM      4  O   UNL     1       4.338   4.192  15.397  0.00  0.00    +0.000 OA
ATOM      5  C   UNL     1       5.541   4.808  17.265  0.00  0.00    +0.000 A 
ATOM      6  C   UNL     1       6.742   4.156  16.998  0.00  0.00    +0.000 A 
ATOM      7  C   UNL     1       7.873   4.522  17.715  0.00  0.00    +0.000 A 
ATOM      8  C   UNL     1       7.746   5.540  18.650  0.00  0.00    +0.000 A 
ATOM      9  N   UNL     1       6.587   6.195  18.911  0.00  0.00    +0.000 NA
ATOM     10  C   UNL     1       5.495   5.789  18.221  0.00  0.00    +0.000 A 
ATOM     11  O   UNL     1       4.342   6.510  18.408  0.00  0.00    +0.000 OA
ATOM     12  C   UNL     1       3.275   5.835  18.966  0.00  0.00    +0.000 A 
ATOM     13  C   UNL     1       2.638   6.614  19.952  0.00  0.00    +0.000 A 
ATOM     14  C   UNL     1       1.528   6.138  20.632  0.00  0.00    +0.000 A 
ATOM     15  C   UNL     1       1.056   4.872  20.330  0.00  0.00    +0.000 A 
ATOM     16  C   UNL     1       1.668   4.078  19.333  0.00  0.00    +0.000 A 
ATOM     17  C   UNL     1       2.793   4.548  18.598  0.00  0.00    +0.000 A 
ENDROOT
BRANCH  16  18
ATOM     18  C   UNL     1       1.017   2.813  19.130  0.00  0.00    +0.000 C 
ATOM     19  N   UNL     1       0.468   1.812  18.938  0.00  0.00    +0.000 NA
ENDBRANCH  16  18
TORSDOF 1
ENDMDL
MODEL 8
REMARK VINA RESULT:      -5.9      5.620      8.249
REMARK  Name = 
REMARK  2 active torsions:
REMARK  status: ('A' for Active; 'I' for Inactive)
REMARK    1  A    between atoms: C_1  and  N_2
REMARK    2  A    between atoms: C_16  and  C_17
REMARK                            x       y       z     vdW  Elec       q    Type
REMARK                         _______ _______ _______ _____ _____    ______ ____
ROOT
ATOM      1  C   UNL     1      -1.326  11.508  21.932  0.00  0.00    +0.000 C 
ATOM      2  N   UNL     1      -0.827  11.180  20.609  0.00  0.00    +0.000 N 
ATOM      3  C   UNL     1      -1.265  12.069  19.631  0.00  0.00    +0.000 C 
ATOM      4  O   UNL     1      -1.352  13.284  19.781  0.00  0.00    +0.000 OA
ATOM      5  C   UNL     1      -1.996  11.452  18.538  0.00  0.00    +0.000 A 
ATOM      6  C   UNL     1      -3.345  11.751  18.359  0.00  0.00    +0.000 A 
ATOM      7  C   UNL     1      -4.055  11.066  17.383  0.00  0.00    +0.000 A 
ATOM      8  C   UNL     1      -3.370  10.131  16.619  0.00  0.00    +0.000 A 
ATOM      9  N   UNL     1      -2.054   9.840  16.769  0.00  0.00    +0.000 NA
ATOM     10  C   UNL     1      -1.399  10.499  17.755  0.00  0.00    +0.000 A 
ATOM     11  O   UNL     1      -0.047  10.283  17.851  0.00  0.00    +0.000 OA
ATOM     12  C   UNL     1       0.404   9.694  19.015  0.00  0.00    +0.000 A 
ATOM     13  C   UNL     1       1.357   8.693  18.744  0.00  0.00    +0.000 A 
ATOM     14  C   UNL     1       1.957   7.981  19.771  0.00  0.00    +0.000 A 
ATOM     15  C   UNL     1       1.596   8.266  21.077  0.00  0.00    +0.000 A 
ATOM     16  C   UNL     1       0.653   9.276  21.375  0.00  0.00    +0.000 A 
ATOM     17  C   UNL     1       0.039  10.044  20.345  0.00  0.00    +0.000 A 
ENDROOT
BRANCH  16  18
ATOM     18  C   UNL     1       0.436   9.457  22.784  0.00  0.00    +0.000 C 
ATOM     19  N   UNL     1       0.262   9.562  23.924  0.00  0.00    +0.000 NA
ENDBRANCH  16  18
TORSDOF 1
ENDMDL
MODEL 9
REMARK VINA RESULT:      -5.9      1.587      5.647
REMARK  Name = 
REMARK  2 active torsions:
REMARK  status: ('A' for Active; 'I' for Inactive)
REMARK    1  A    between atoms: C_1  and  N_2
REMARK    2  A    between atoms: C_16  and  C_17
REMARK                            x       y       z     vdW  Elec       q    Type
REMARK                         _______ _______ _______ _____ _____    ______ ____
ROOT
ATOM      1  C   UNL     1       4.445   7.514  18.374  0.00  0.00    +0.000 C 
ATOM      2  N   UNL     1       3.987   6.270  17.782  0.00  0.00    +0.000 N 
ATOM      3  C   UNL     1       2.633   6.033  18.004  0.00  0.00    +0.000 C 
ATOM      4  O   UNL     1       1.757   6.892  17.957  0.00  0.00    +0.000 OA
ATOM      5  C   UNL     1       2.342   4.784  18.686  0.00  0.00    +0.000 A 
ATOM      6  C   UNL     1       1.784   4.812  19.962  0.00  0.00    +0.000 A 
ATOM      7  C   UNL     1       1.620   3.614  20.644  0.00  0.00    +0.000 A 
ATOM      8  C   UNL     1       2.003   2.445  20.001  0.00  0.00    +0.000 A 
ATOM      9  N   UNL     1       2.533   2.399  18.753  0.00  0.00    +0.000 NA
ATOM     10  C   UNL     1       2.715   3.587  18.130  0.00  0.00    +0.000 A 
ATOM     11  O   UNL     1       3.159   3.544  16.833  0.00  0.00    +0.000 OA
ATOM     12  C   UNL     1       4.392   4.111  16.582  0.00  0.00    +0.000 A 
ATOM     13  C   UNL     1       5.167   3.295  15.735  0.00  0.00    +0.000 A 
ATOM     14  C   UNL     1       6.437   3.680  15.337  0.00  0.00    +0.000 A 
ATOM     15  C   UNL     1       6.940   4.886  15.796  0.00  0.00    +0.000 A 
ATOM     16  C   UNL     1       6.177   5.730  16.634  0.00  0.00    +0.000 A 
ATOM     17  C   UNL     1       4.857   5.376  17.039  0.00  0.00    +0.000 A 
ENDROOT
BRANCH  16  18
ATOM     18  C   UNL     1       6.846   6.955  16.975  0.00  0.00    +0.000 C 
ATOM     19  N   UNL     1       7.417   7.931  17.226  0.00  0.00    +0.000 NA
ENDBRANCH  16  18
TORSDOF 1
ENDMDL
