MODEL 1
REMARK VINA RESULT:      -7.1      0.000      0.000
REMARK  Name = 
REMARK  5 active torsions:
REMARK  status: ('A' for Active; 'I' for Inactive)
REMARK    1  A    between atoms: C_5  and  N_6
REMARK    2  A    between atoms: N_11  and  C_12
REMARK    3  A    between atoms: C_12  and  C_13
REMARK    4  A    between atoms: C_13  and  C_14
REMARK    5  A    between atoms: C_14  and  N_15
REMARK                            x       y       z     vdW  Elec       q    Type
REMARK                         _______ _______ _______ _____ _____    ______ ____
ROOT
ATOM      1  N   UNL     1      -0.805  11.329  22.405  0.00  0.00    +0.000 N 
ATOM      2  N   UNL     1      -0.116  10.418  23.159  0.00  0.00    +0.000 NA
ATOM      3  C   UNL     1       0.475   9.624  22.267  0.00  0.00    +0.000 A 
ATOM      4  C   UNL     1       0.232  10.009  20.940  0.00  0.00    +0.000 A 
ATOM      5  C   UNL     1       0.617   9.589  19.660  0.00  0.00    +0.000 A 
ATOM      6  N   UNL     1       1.436   8.490  19.451  0.00  0.00    +0.000 N 
ATOM      7  N   UNL     1       0.194  10.321  18.605  0.00  0.00    +0.000 NA
ATOM      8  C   UNL     1      -0.589  11.391  18.825  0.00  0.00    +0.000 A 
ATOM      9  N   UNL     1      -1.022  11.862  20.002  0.00  0.00    +0.000 NA
ATOM     10  C   UNL     1      -0.579  11.127  21.043  0.00  0.00    +0.000 A 
ATOM     11  H   UNL     1       1.748   8.001  20.282  0.00  0.00    +0.000 HD
ENDROOT
BRANCH   1  16
ATOM     12  F   UNL     1      -3.895  15.193  24.948  0.00  0.00    +0.000 F 
ATOM     13  C   UNL     1      -3.156  14.262  24.331  0.00  0.00    +0.000 A 
ATOM     14  C   UNL     1      -1.859  14.562  23.940  0.00  0.00    +0.000 A 
ATOM     15  C   UNL     1      -1.087  13.587  23.302  0.00  0.00    +0.000 A 
ATOM     16  C   UNL     1      -1.621  12.310  23.050  0.00  0.00    +0.000 A 
ATOM     17  C   UNL     1      -2.935  12.028  23.451  0.00  0.00    +0.000 A 
ATOM     18  C   UNL     1      -3.700  13.006  24.094  0.00  0.00    +0.000 A 
ENDBRANCH   1  16
BRANCH   6  19
ATOM     19  C   UNL     1       2.355   8.513  18.323  0.00  0.00    +0.000 C 
BRANCH  19  20
ATOM     20  C   UNL     1       2.988   7.149  18.030  0.00  0.00    +0.000 C 
BRANCH  20  21
ATOM     21  C   UNL     1       3.001   6.225  19.247  0.00  0.00    +0.000 C 
BRANCH  21  22
ATOM     22  N   UNL     1       2.208   5.034  19.028  0.00  0.00    +0.000 N 
ATOM     23  C   UNL     1       1.545   4.313  19.979  0.00  0.00    +0.000 A 
ATOM     24  C   UNL     1       0.962   3.275  19.292  0.00  0.00    +0.000 A 
ATOM     25  N   UNL     1       1.259   3.346  17.955  0.00  0.00    +0.000 NA
ATOM     26  C   UNL     1       2.013   4.417  17.826  0.00  0.00    +0.000 A 
ENDBRANCH  21  22
ENDBRANCH  20  21
ENDBRANCH  19  20
ENDBRANCH   6  19
TORSDOF 5
ENDMDL
MODEL 2
REMARK VINA RESULT:      -7.1      7.912     10.566
REMARK  Name = 
REMARK  5 active torsions:
REMARK  status: ('A' for Active; 'I' for Inactive)
REMARK    1  A    between atoms: C_5  and  N_6
REMARK    2  A    between atoms: N_11  and  C_12
REMARK    3  A    between atoms: C_12  and  C_13
REMARK    4  A    between atoms: C_13  and  C_14
REMARK    5  A    between atoms: C_14  and  N_15
REMARK                            x       y       z     vdW  Elec       q    Type
REMARK                         _______ _______ _______ _____ _____    ______ ____
ROOT
ATOM      1  N   UNL     1       4.711   4.667  18.766  0.00  0.00    +0.000 N 
ATOM      2  N   UNL     1       5.614   4.487  19.779  0.00  0.00    +0.000 NA
ATOM      3  C   UNL     1       6.588   5.358  19.516  0.00  0.00    +0.000 A 
ATOM      4  C   UNL     1       6.335   6.142  18.381  0.00  0.00    +0.000 A 
ATOM      5  C   UNL     1       6.958   7.195  17.698  0.00  0.00    +0.000 A 
ATOM      6  N   UNL     1       8.182   7.717  18.090  0.00  0.00    +0.000 N 
ATOM      7  N   UNL     1       6.305   7.734  16.644  0.00  0.00    +0.000 NA
ATOM      8  C   UNL     1       5.114   7.226  16.285  0.00  0.00    +0.000 A 
ATOM      9  N   UNL     1       4.446   6.217  16.860  0.00  0.00    +0.000 NA
ATOM     10  C   UNL     1       5.107   5.702  17.917  0.00  0.00    +0.000 A 
ATOM     11  H   UNL     1       8.607   7.294  18.906  0.00  0.00    +0.000 HD
ENDROOT
BRANCH   1  16
ATOM     12  F   UNL     1       0.162   1.470  18.580  0.00  0.00    +0.000 F 
ATOM     13  C   UNL     1       1.257   2.240  18.618  0.00  0.00    +0.000 A 
ATOM     14  C   UNL     1       1.220   3.457  19.284  0.00  0.00    +0.000 A 
ATOM     15  C   UNL     1       2.366   4.255  19.329  0.00  0.00    +0.000 A 
ATOM     16  C   UNL     1       3.551   3.834  18.696  0.00  0.00    +0.000 A 
ATOM     17  C   UNL     1       3.566   2.602  18.026  0.00  0.00    +0.000 A 
ATOM     18  C   UNL     1       2.419   1.806  17.991  0.00  0.00    +0.000 A 
ENDBRANCH   1  16
BRANCH   6  19
ATOM     19  C   UNL     1       8.430   9.136  17.886  0.00  0.00    +0.000 C 
BRANCH  19  20
ATOM     20  C   UNL     1       9.293   9.763  18.984  0.00  0.00    +0.000 C 
BRANCH  20  21
ATOM     21  C   UNL     1       9.114  11.277  19.090  0.00  0.00    +0.000 C 
BRANCH  21  22
ATOM     22  N   UNL     1      10.135  11.994  18.357  0.00  0.00    +0.000 N 
ATOM     23  C   UNL     1      11.484  11.803  18.445  0.00  0.00    +0.000 A 
ATOM     24  C   UNL     1      12.027  12.723  17.580  0.00  0.00    +0.000 A 
ATOM     25  N   UNL     1      11.046  13.467  16.978  0.00  0.00    +0.000 NA
ATOM     26  C   UNL     1       9.915  13.005  17.466  0.00  0.00    +0.000 A 
ENDBRANCH  21  22
ENDBRANCH  20  21
ENDBRANCH  19  20
ENDBRANCH   6  19
TORSDOF 5
ENDMDL
MODEL 3
REMARK VINA RESULT:      -7.0      3.768      5.780
REMARK  Name = 
REMARK  5 active torsions:
REMARK  status: ('A' for Active; 'I' for Inactive)
REMARK    1  A    between atoms: C_5  and  N_6
REMARK    2  A    between atoms: N_11  and  C_12
REMARK    3  A    between atoms: C_12  and  C_13
REMARK    4  A    between atoms: C_13  and  C_14
REMARK    5  A    between atoms: C_14  and  N_15
REMARK                            x       y       z     vdW  Elec       q    Type
REMARK                         _______ _______ _______ _____ _____    ______ ____
ROOT
ATOM      1  N   UNL     1       1.540   8.654  19.635  0.00  0.00    +0.000 N 
ATOM      2  N   UNL     1       1.817   9.323  18.473  0.00  0.00    +0.000 NA
ATOM      3  C   UNL     1       2.617   8.501  17.796  0.00  0.00    +0.000 A 
ATOM      4  C   UNL     1       2.845   7.285  18.457  0.00  0.00    +0.000 A 
ATOM      5  C   UNL     1       3.533   6.091  18.206  0.00  0.00    +0.000 A 
ATOM      6  N   UNL     1       4.273   5.885  17.051  0.00  0.00    +0.000 N 
ATOM      7  N   UNL     1       3.426   5.100  19.119  0.00  0.00    +0.000 NA
ATOM      8  C   UNL     1       2.694   5.310  20.227  0.00  0.00    +0.000 A 
ATOM      9  N   UNL     1       2.016   6.415  20.565  0.00  0.00    +0.000 NA
ATOM     10  C   UNL     1       2.124   7.386  19.635  0.00  0.00    +0.000 A 
ATOM     11  H   UNL     1       4.289   6.652  16.389  0.00  0.00    +0.000 HD
ENDROOT
BRANCH   1  16
ATOM     12  F   UNL     1      -1.559  11.186  23.499  0.00  0.00    +0.000 F 
ATOM     13  C   UNL     1      -0.815  10.570  22.571  0.00  0.00    +0.000 A 
ATOM     14  C   UNL     1      -0.902  10.970  21.244  0.00  0.00    +0.000 A 
ATOM     15  C   UNL     1      -0.121  10.331  20.278  0.00  0.00    +0.000 A 
ATOM     16  C   UNL     1       0.745   9.283  20.643  0.00  0.00    +0.000 A 
ATOM     17  C   UNL     1       0.815   8.893  21.988  0.00  0.00    +0.000 A 
ATOM     18  C   UNL     1       0.036   9.540  22.951  0.00  0.00    +0.000 A 
ENDBRANCH   1  16
BRANCH   6  19
ATOM     19  C   UNL     1       4.336   4.542  16.497  0.00  0.00    +0.000 C 
BRANCH  19  20
ATOM     20  C   UNL     1       5.768   4.021  16.335  0.00  0.00    +0.000 C 
BRANCH  20  21
ATOM     21  C   UNL     1       6.658   4.966  15.529  0.00  0.00    +0.000 C 
BRANCH  21  22
ATOM     22  N   UNL     1       6.741   4.574  14.138  0.00  0.00    +0.000 N 
ATOM     23  C   UNL     1       6.025   3.584  13.529  0.00  0.00    +0.000 A 
ATOM     24  C   UNL     1       6.465   3.582  12.226  0.00  0.00    +0.000 A 
ATOM     25  N   UNL     1       7.428   4.538  12.034  0.00  0.00    +0.000 NA
ATOM     26  C   UNL     1       7.575   5.120  13.205  0.00  0.00    +0.000 A 
ENDBRANCH  21  22
ENDBRANCH  20  21
ENDBRANCH  19  20
ENDBRANCH   6  19
TORSDOF 5
ENDMDL
MODEL 4
REMARK VINA RESULT:      -7.0      2.298      4.111
REMARK  Name = 
REMARK  5 active torsions:
REMARK  status: ('A' for Active; 'I' for Inactive)
REMARK    1  A    between atoms: C_5  and  N_6
REMARK    2  A    between atoms: N_11  and  C_12
REMARK    3  A    between atoms: C_12  and  C_13
REMARK    4  A    between atoms: C_13  and  C_14
REMARK    5  A    between atoms: C_14  and  N_15
REMARK                            x       y       z     vdW  Elec       q    Type
REMARK                         _______ _______ _______ _____ _____    ______ ____
ROOT
ATOM      1  N   UNL     1       0.959   9.545  19.288  0.00  0.00    +0.000 N 
ATOM      2  N   UNL     1       1.323   9.836  18.001  0.00  0.00    +0.000 NA
ATOM      3  C   UNL     1       2.138   8.842  17.652  0.00  0.00    +0.000 A 
ATOM      4  C   UNL     1       2.292   7.875  18.656  0.00  0.00    +0.000 A 
ATOM      5  C   UNL     1       2.958   6.653  18.816  0.00  0.00    +0.000 A 
ATOM      6  N   UNL     1       3.759   6.107  17.824  0.00  0.00    +0.000 N 
ATOM      7  N   UNL     1       2.770   5.980  19.973  0.00  0.00    +0.000 NA
ATOM      8  C   UNL     1       1.981   6.518  20.919  0.00  0.00    +0.000 A 
ATOM      9  N   UNL     1       1.316   7.679  20.869  0.00  0.00    +0.000 NA
ATOM     10  C   UNL     1       1.506   8.329  19.702  0.00  0.00    +0.000 A 
ATOM     11  H   UNL     1       3.836   6.641  16.967  0.00  0.00    +0.000 HD
ENDROOT
BRANCH   1  16
ATOM     12  F   UNL     1      -2.319  13.121  22.011  0.00  0.00    +0.000 F 
ATOM     13  C   UNL     1      -1.531  12.256  21.361  0.00  0.00    +0.000 A 
ATOM     14  C   UNL     1      -1.817  11.920  20.045  0.00  0.00    +0.000 A 
ATOM     15  C   UNL     1      -0.989  11.023  19.365  0.00  0.00    +0.000 A 
ATOM     16  C   UNL     1       0.124  10.453  20.011  0.00  0.00    +0.000 A 
ATOM     17  C   UNL     1       0.394  10.803  21.342  0.00  0.00    +0.000 A 
ATOM     18  C   UNL     1      -0.434  11.707  22.014  0.00  0.00    +0.000 A 
ENDBRANCH   1  16
BRANCH   6  19
ATOM     19  C   UNL     1       3.817   4.658  17.698  0.00  0.00    +0.000 C 
BRANCH  19  20
ATOM     20  C   UNL     1       2.438   4.010  17.539  0.00  0.00    +0.000 C 
BRANCH  20  21
ATOM     21  C   UNL     1       2.366   2.609  18.145  0.00  0.00    +0.000 C 
BRANCH  21  22
ATOM     22  N   UNL     1       2.217   2.651  19.584  0.00  0.00    +0.000 N 
ATOM     23  C   UNL     1       1.061   2.871  20.276  0.00  0.00    +0.000 A 
ATOM     24  C   UNL     1       1.430   2.836  21.599  0.00  0.00    +0.000 A 
ATOM     25  N   UNL     1       2.775   2.607  21.726  0.00  0.00    +0.000 NA
ATOM     26  C   UNL     1       3.224   2.501  20.494  0.00  0.00    +0.000 A 
ENDBRANCH  21  22
ENDBRANCH  20  21
ENDBRANCH  19  20
ENDBRANCH   6  19
TORSDOF 5
ENDMDL
MODEL 5
REMARK VINA RESULT:      -6.9      2.925      5.066
REMARK  Name = 
REMARK  5 active torsions:
REMARK  status: ('A' for Active; 'I' for Inactive)
REMARK    1  A    between atoms: C_5  and  N_6
REMARK    2  A    between atoms: N_11  and  C_12
REMARK    3  A    between atoms: C_12  and  C_13
REMARK    4  A    between atoms: C_13  and  C_14
REMARK    5  A    between atoms: C_14  and  N_15
REMARK                            x       y       z     vdW  Elec       q    Type
REMARK                         _______ _______ _______ _____ _____    ______ ____
ROOT
ATOM      1  N   UNL     1       1.166   9.041  19.836  0.00  0.00    +0.000 N 
ATOM      2  N   UNL     1       1.518   9.638  18.656  0.00  0.00    +0.000 NA
ATOM      3  C   UNL     1       2.316   8.755  18.058  0.00  0.00    +0.000 A 
ATOM      4  C   UNL     1       2.471   7.568  18.790  0.00  0.00    +0.000 A 
ATOM      5  C   UNL     1       3.124   6.339  18.631  0.00  0.00    +0.000 A 
ATOM      6  N   UNL     1       3.906   6.048  17.523  0.00  0.00    +0.000 N 
ATOM      7  N   UNL     1       2.941   5.401  19.588  0.00  0.00    +0.000 NA
ATOM      8  C   UNL     1       2.171   5.695  20.650  0.00  0.00    +0.000 A 
ATOM      9  N   UNL     1       1.519   6.838  20.899  0.00  0.00    +0.000 NA
ATOM     10  C   UNL     1       1.703   7.756  19.928  0.00  0.00    +0.000 A 
ATOM     11  H   UNL     1       3.979   6.777  16.824  0.00  0.00    +0.000 HD
ENDROOT
BRANCH   1  16
ATOM     12  F   UNL     1      -2.013  11.709  23.540  0.00  0.00    +0.000 F 
ATOM     13  C   UNL     1      -1.244  11.073  22.647  0.00  0.00    +0.000 A 
ATOM     14  C   UNL     1      -0.526   9.950  23.034  0.00  0.00    +0.000 A 
ATOM     15  C   UNL     1       0.270   9.283  22.099  0.00  0.00    +0.000 A 
ATOM     16  C   UNL     1       0.352   9.749  20.773  0.00  0.00    +0.000 A 
ATOM     17  C   UNL     1      -0.379  10.887  20.404  0.00  0.00    +0.000 A 
ATOM     18  C   UNL     1      -1.179  11.546  21.342  0.00  0.00    +0.000 A 
ENDBRANCH   1  16
BRANCH   6  19
ATOM     19  C   UNL     1       3.943   4.675  17.041  0.00  0.00    +0.000 C 
BRANCH  19  20
ATOM     20  C   UNL     1       5.017   4.438  15.974  0.00  0.00    +0.000 C 
BRANCH  20  21
ATOM     21  C   UNL     1       6.397   4.164  16.569  0.00  0.00    +0.000 C 
BRANCH  21  22
ATOM     22  N   UNL     1       6.988   5.360  17.133  0.00  0.00    +0.000 N 
ATOM     23  C   UNL     1       7.498   5.498  18.392  0.00  0.00    +0.000 A 
ATOM     24  C   UNL     1       7.920   6.805  18.458  0.00  0.00    +0.000 A 
ATOM     25  N   UNL     1       7.674   7.459  17.279  0.00  0.00    +0.000 NA
ATOM     26  C   UNL     1       7.111   6.563  16.499  0.00  0.00    +0.000 A 
ENDBRANCH  21  22
ENDBRANCH  20  21
ENDBRANCH  19  20
ENDBRANCH   6  19
TORSDOF 5
ENDMDL
MODEL 6
REMARK VINA RESULT:      -6.9      4.261      9.305
REMARK  Name = 
REMARK  5 active torsions:
REMARK  status: ('A' for Active; 'I' for Inactive)
REMARK    1  A    between atoms: C_5  and  N_6
REMARK    2  A    between atoms: N_11  and  C_12
REMARK    3  A    between atoms: C_12  and  C_13
REMARK    4  A    between atoms: C_13  and  C_14
REMARK    5  A    between atoms: C_14  and  N_15
REMARK                            x       y       z     vdW  Elec       q    Type
REMARK                         _______ _______ _______ _____ _____    ______ ____
ROOT
ATOM      1  N   UNL     1       3.402   5.920  18.423  0.00  0.00    +0.000 N 
ATOM      2  N   UNL     1       3.292   5.111  19.523  0.00  0.00    +0.000 NA
ATOM      3  C   UNL     1       2.600   5.835  20.402  0.00  0.00    +0.000 A 
ATOM      4  C   UNL     1       2.210   7.085  19.901  0.00  0.00    +0.000 A 
ATOM      5  C   UNL     1       1.463   8.185  20.346  0.00  0.00    +0.000 A 
ATOM      6  N   UNL     1       0.906   8.243  21.614  0.00  0.00    +0.000 N 
ATOM      7  N   UNL     1       1.260   9.200  19.476  0.00  0.00    +0.000 NA
ATOM      8  C   UNL     1       1.797   9.122  18.246  0.00  0.00    +0.000 A 
ATOM      9  N   UNL     1       2.534   8.128  17.734  0.00  0.00    +0.000 NA
ATOM     10  C   UNL     1       2.715   7.120  18.612  0.00  0.00    +0.000 A 
ATOM     11  H   UNL     1       1.065   7.439  22.209  0.00  0.00    +0.000 HD
ENDROOT
BRANCH   1  16
ATOM     12  F   UNL     1       6.316   4.291  13.974  0.00  0.00    +0.000 F 
ATOM     13  C   UNL     1       5.618   4.679  15.049  0.00  0.00    +0.000 A 
ATOM     14  C   UNL     1       5.527   6.028  15.359  0.00  0.00    +0.000 A 
ATOM     15  C   UNL     1       4.793   6.432  16.477  0.00  0.00    +0.000 A 
ATOM     16  C   UNL     1       4.154   5.478  17.291  0.00  0.00    +0.000 A 
ATOM     17  C   UNL     1       4.262   4.119  16.961  0.00  0.00    +0.000 A 
ATOM     18  C   UNL     1       4.992   3.722  15.838  0.00  0.00    +0.000 A 
ENDBRANCH   1  16
BRANCH   6  19
ATOM     19  C   UNL     1      -0.359   8.942  21.785  0.00  0.00    +0.000 C 
BRANCH  19  20
ATOM     20  C   UNL     1      -0.354   9.925  22.960  0.00  0.00    +0.000 C 
BRANCH  20  21
ATOM     21  C   UNL     1      -1.065  11.238  22.640  0.00  0.00    +0.000 C 
BRANCH  21  22
ATOM     22  N   UNL     1      -0.616  11.803  21.385  0.00  0.00    +0.000 N 
ATOM     23  C   UNL     1       0.604  12.363  21.136  0.00  0.00    +0.000 A 
ATOM     24  C   UNL     1       0.545  12.766  19.823  0.00  0.00    +0.000 A 
ATOM     25  N   UNL     1      -0.676  12.469  19.275  0.00  0.00    +0.000 NA
ATOM     26  C   UNL     1      -1.356  11.890  20.240  0.00  0.00    +0.000 A 
ENDBRANCH  21  22
ENDBRANCH  20  21
ENDBRANCH  19  20
ENDBRANCH   6  19
TORSDOF 5
ENDMDL
MODEL 7
REMARK VINA RESULT:      -6.8      4.364      8.655
REMARK  Name = 
REMARK  5 active torsions:
REMARK  status: ('A' for Active; 'I' for Inactive)
REMARK    1  A    between atoms: C_5  and  N_6
REMARK    2  A    between atoms: N_11  and  C_12
REMARK    3  A    between atoms: C_12  and  C_13
REMARK    4  A    between atoms: C_13  and  C_14
REMARK    5  A    between atoms: C_14  and  N_15
REMARK                            x       y       z     vdW  Elec       q    Type
REMARK                         _______ _______ _______ _____ _____    ______ ____
ROOT
ATOM      1  N   UNL     1       2.770   6.907  18.844  0.00  0.00    +0.000 N 
ATOM      2  N   UNL     1       3.094   7.464  17.637  0.00  0.00    +0.000 NA
ATOM      3  C   UNL     1       2.412   8.608  17.602  0.00  0.00    +0.000 A 
ATOM      4  C   UNL     1       1.677   8.848  18.772  0.00  0.00    +0.000 A 
ATOM      5  C   UNL     1       0.855   9.862  19.282  0.00  0.00    +0.000 A 
ATOM      6  N   UNL     1       0.546  11.004  18.559  0.00  0.00    +0.000 N 
ATOM      7  N   UNL     1       0.387   9.717  20.542  0.00  0.00    +0.000 NA
ATOM      8  C   UNL     1       0.705   8.610  21.233  0.00  0.00    +0.000 A 
ATOM      9  N   UNL     1       1.466   7.583  20.832  0.00  0.00    +0.000 NA
ATOM     10  C   UNL     1       1.934   7.751  19.578  0.00  0.00    +0.000 A 
ATOM     11  H   UNL     1       0.953  11.071  17.634  0.00  0.00    +0.000 HD
ENDROOT
BRANCH   1  16
ATOM     12  F   UNL     1       4.842   1.907  20.126  0.00  0.00    +0.000 F 
ATOM     13  C   UNL     1       4.341   3.111  19.824  0.00  0.00    +0.000 A 
ATOM     14  C   UNL     1       5.174   4.093  19.308  0.00  0.00    +0.000 A 
ATOM     15  C   UNL     1       4.649   5.347  18.987  0.00  0.00    +0.000 A 
ATOM     16  C   UNL     1       3.283   5.619  19.191  0.00  0.00    +0.000 A 
ATOM     17  C   UNL     1       2.458   4.613  19.716  0.00  0.00    +0.000 A 
ATOM     18  C   UNL     1       2.989   3.359  20.029  0.00  0.00    +0.000 A 
ENDBRANCH   1  16
BRANCH   6  19
ATOM     19  C   UNL     1       0.360  12.253  19.282  0.00  0.00    +0.000 C 
BRANCH  19  20
ATOM     20  C   UNL     1      -1.038  12.854  19.102  0.00  0.00    +0.000 C 
BRANCH  20  21
ATOM     21  C   UNL     1      -2.157  11.861  19.417  0.00  0.00    +0.000 C 
BRANCH  21  22
ATOM     22  N   UNL     1      -3.039  11.667  18.285  0.00  0.00    +0.000 N 
ATOM     23  C   UNL     1      -4.397  11.804  18.281  0.00  0.00    +0.000 A 
ATOM     24  C   UNL     1      -4.777  11.500  16.995  0.00  0.00    +0.000 A 
ATOM     25  N   UNL     1      -3.689  11.178  16.226  0.00  0.00    +0.000 NA
ATOM     26  C   UNL     1      -2.654  11.287  17.031  0.00  0.00    +0.000 A 
ENDBRANCH  21  22
ENDBRANCH  20  21
ENDBRANCH  19  20
ENDBRANCH   6  19
TORSDOF 5
ENDMDL
MODEL 8
REMARK VINA RESULT:      -6.8      1.381      1.574
REMARK  Name = 
REMARK  5 active torsions:
REMARK  status: ('A' for Active; 'I' for Inactive)
REMARK    1  A    between atoms: C_5  and  N_6
REMARK    2  A    between atoms: N_11  and  C_12
REMARK    3  A    between atoms: C_12  and  C_13
REMARK    4  A    between atoms: C_13  and  C_14
REMARK    5  A    between atoms: C_14  and  N_15
REMARK                            x       y       z     vdW  Elec       q    Type
REMARK                         _______ _______ _______ _____ _____    ______ ____
ROOT
ATOM      1  N   UNL     1      -0.902  11.399  22.457  0.00  0.00    +0.000 N 
ATOM      2  N   UNL     1      -0.230  10.490  23.231  0.00  0.00    +0.000 NA
ATOM      3  C   UNL     1       0.364   9.681  22.355  0.00  0.00    +0.000 A 
ATOM      4  C   UNL     1       0.142  10.052  21.021  0.00  0.00    +0.000 A 
ATOM      5  C   UNL     1       0.539   9.614  19.751  0.00  0.00    +0.000 A 
ATOM      6  N   UNL     1       1.350   8.505  19.565  0.00  0.00    +0.000 N 
ATOM      7  N   UNL     1       0.136  10.338  18.682  0.00  0.00    +0.000 NA
ATOM      8  C   UNL     1      -0.639  11.417  18.880  0.00  0.00    +0.000 A 
ATOM      9  N   UNL     1      -1.083  11.906  20.046  0.00  0.00    +0.000 NA
ATOM     10  C   UNL     1      -0.660  11.179  21.100  0.00  0.00    +0.000 A 
ATOM     11  H   UNL     1       1.647   8.023  20.405  0.00  0.00    +0.000 HD
ENDROOT
BRANCH   1  16
ATOM     12  F   UNL     1      -3.987  15.320  24.918  0.00  0.00    +0.000 F 
ATOM     13  C   UNL     1      -3.249  14.375  24.320  0.00  0.00    +0.000 A 
ATOM     14  C   UNL     1      -1.937  14.652  23.961  0.00  0.00    +0.000 A 
ATOM     15  C   UNL     1      -1.167  13.663  23.345  0.00  0.00    +0.000 A 
ATOM     16  C   UNL     1      -1.716  12.394  23.080  0.00  0.00    +0.000 A 
ATOM     17  C   UNL     1      -3.045  12.136  23.449  0.00  0.00    +0.000 A 
ATOM     18  C   UNL     1      -3.808  13.128  24.072  0.00  0.00    +0.000 A 
ENDBRANCH   1  16
BRANCH   6  19
ATOM     19  C   UNL     1       2.284   8.507  18.449  0.00  0.00    +0.000 C 
BRANCH  19  20
ATOM     20  C   UNL     1       2.555   7.108  17.885  0.00  0.00    +0.000 C 
BRANCH  20  21
ATOM     21  C   UNL     1       4.045   6.784  17.788  0.00  0.00    +0.000 C 
BRANCH  21  22
ATOM     22  N   UNL     1       4.327   5.422  18.189  0.00  0.00    +0.000 N 
ATOM     23  C   UNL     1       3.780   4.289  17.660  0.00  0.00    +0.000 A 
ATOM     24  C   UNL     1       4.342   3.259  18.376  0.00  0.00    +0.000 A 
ATOM     25  N   UNL     1       5.208   3.738  19.325  0.00  0.00    +0.000 NA
ATOM     26  C   UNL     1       5.178   5.046  19.189  0.00  0.00    +0.000 A 
ENDBRANCH  21  22
ENDBRANCH  20  21
ENDBRANCH  19  20
ENDBRANCH   6  19
TORSDOF 5
ENDMDL
MODEL 9
REMARK VINA RESULT:      -6.8      1.502      2.323
REMARK  Name = 
REMARK  5 active torsions:
REMARK  status: ('A' for Active; 'I' for Inactive)
REMARK    1  A    between atoms: C_5  and  N_6
REMARK    2  A    between atoms: N_11  and  C_12
REMARK    3  A    between atoms: C_12  and  C_13
REMARK    4  A    between atoms: C_13  and  C_14
REMARK    5  A    between atoms: C_14  and  N_15
REMARK                            x       y       z     vdW  Elec       q    Type
REMARK                         _______ _______ _______ _____ _____    ______ ____
ROOT
ATOM      1  N   UNL     1      -0.823  11.350  22.492  0.00  0.00    +0.000 N 
ATOM      2  N   UNL     1      -0.190  10.418  23.268  0.00  0.00    +0.000 NA
ATOM      3  C   UNL     1       0.398   9.601  22.396  0.00  0.00    +0.000 A 
ATOM      4  C   UNL     1       0.210   9.989  21.061  0.00  0.00    +0.000 A 
ATOM      5  C   UNL     1       0.618   9.553  19.794  0.00  0.00    +0.000 A 
ATOM      6  N   UNL     1       1.402   8.424  19.612  0.00  0.00    +0.000 N 
ATOM      7  N   UNL     1       0.253  10.296  18.725  0.00  0.00    +0.000 NA
ATOM      8  C   UNL     1      -0.497  11.394  18.920  0.00  0.00    +0.000 A 
ATOM      9  N   UNL     1      -0.948  11.884  20.082  0.00  0.00    +0.000 NA
ATOM     10  C   UNL     1      -0.564  11.136  21.137  0.00  0.00    +0.000 A 
ATOM     11  H   UNL     1       1.672   7.927  20.452  0.00  0.00    +0.000 HD
ENDROOT
BRANCH   1  16
ATOM     12  F   UNL     1      -4.018  15.239  24.861  0.00  0.00    +0.000 F 
ATOM     13  C   UNL     1      -3.244  14.304  24.296  0.00  0.00    +0.000 A 
ATOM     14  C   UNL     1      -3.759  13.037  24.058  0.00  0.00    +0.000 A 
ATOM     15  C   UNL     1      -2.953  12.065  23.461  0.00  0.00    +0.000 A 
ATOM     16  C   UNL     1      -1.622  12.362  23.110  0.00  0.00    +0.000 A 
ATOM     17  C   UNL     1      -1.121  13.647  23.361  0.00  0.00    +0.000 A 
ATOM     18  C   UNL     1      -1.935  14.618  23.952  0.00  0.00    +0.000 A 
ENDBRANCH   1  16
BRANCH   6  19
ATOM     19  C   UNL     1       2.355   8.411  18.512  0.00  0.00    +0.000 C 
BRANCH  19  20
ATOM     20  C   UNL     1       2.655   7.003  17.988  0.00  0.00    +0.000 C 
BRANCH  20  21
ATOM     21  C   UNL     1       3.313   6.106  19.035  0.00  0.00    +0.000 C 
BRANCH  21  22
ATOM     22  N   UNL     1       4.627   5.664  18.618  0.00  0.00    +0.000 N 
ATOM     23  C   UNL     1       5.327   6.109  17.533  0.00  0.00    +0.000 A 
ATOM     24  C   UNL     1       6.496   5.386  17.548  0.00  0.00    +0.000 A 
ATOM     25  N   UNL     1       6.518   4.514  18.606  0.00  0.00    +0.000 NA
ATOM     26  C   UNL     1       5.378   4.704  19.233  0.00  0.00    +0.000 A 
ENDBRANCH  21  22
ENDBRANCH  20  21
ENDBRANCH  19  20
ENDBRANCH   6  19
TORSDOF 5
ENDMDL
