MODEL 1
REMARK VINA RESULT:      -7.0      0.000      0.000
REMARK  Name = 
REMARK  19 active torsions:
REMARK  status: ('A' for Active; 'I' for Inactive)
REMARK    1  A    between atoms: C_1  and  C_2
REMARK    2  A    between atoms: C_2  and  C_3
REMARK    3  A    between atoms: C_3  and  C_4
REMARK    4  A    between atoms: C_5  and  O_6
REMARK    5  A    between atoms: O_6  and  C_7
REMARK    6  A    between atoms: C_7  and  C_8
REMARK    7  A    between atoms: C_8  and  C_9
REMARK    8  A    between atoms: C_9  and  S_10
REMARK    9  A    between atoms: S_10  and  C_11
REMARK   10  A    between atoms: C_14  and  C_15
REMARK   11  A    between atoms: C_15  and  O_16
REMARK   12  A    between atoms: C_15  and  C_17
REMARK   13  A    between atoms: C_17  and  C_18
REMARK   14  A    between atoms: C_17  and  C_19
REMARK   15  A    between atoms: C_19  and  C_20
REMARK   16  A    between atoms: C_20  and  O_22
REMARK   17  A    between atoms: C_27  and  C_28
REMARK   18  A    between atoms: C_28  and  C_29
REMARK   19  A    between atoms: C_31  and  O_32
REMARK                            x       y       z     vdW  Elec       q    Type
REMARK                         _______ _______ _______ _____ _____    ______ ____
ROOT
ATOM      1  C   UNL     1       1.489   7.869  20.814  0.00  0.00    +0.000 C 
ENDROOT
BRANCH   1   2
ATOM      2  S   UNL     1       1.374   6.071  20.509  0.00  0.00    +0.000 S 
BRANCH   2   3
ATOM      3  C   UNL     1       2.498   5.924  19.154  0.00  0.00    +0.000 A 
ATOM      4  C   UNL     1       2.887   4.696  18.624  0.00  0.00    +0.000 A 
ATOM      5  C   UNL     1       3.855   4.644  17.618  0.00  0.00    +0.000 A 
ATOM      6  C   UNL     1       4.424   5.824  17.113  0.00  0.00    +0.000 A 
ATOM      7  C   UNL     1       3.943   7.048  17.586  0.00  0.00    +0.000 A 
ATOM      8  C   UNL     1       3.004   7.101  18.612  0.00  0.00    +0.000 A 
BRANCH   6   9
ATOM      9  C   UNL     1       5.557   5.747  16.108  0.00  0.00    +0.000 C 
BRANCH   9  10
ATOM     10  C   UNL     1       6.990   5.835  16.709  0.00  0.00    +0.000 C 
ATOM     11  C   UNL     1       7.324   7.207  17.316  0.00  0.00    +0.000 C 
BRANCH  10  12
ATOM     12  C   UNL     1       7.297   4.740  17.737  0.00  0.00    +0.000 C 
BRANCH  12  13
ATOM     13  C   UNL     1       7.289   5.273  19.148  0.00  0.00    +0.000 C 
ATOM     14  O   UNL     1       6.266   5.526  19.768  0.00  0.00    +0.000 OA
BRANCH  13  15
ATOM     15  O   UNL     1       8.523   5.399  19.679  0.00  0.00    +0.000 OA
ATOM     16  H   UNL     1       9.245   5.425  19.028  0.00  0.00    +0.000 HD
ENDBRANCH  13  15
ENDBRANCH  12  13
ENDBRANCH  10  12
ENDBRANCH   9  10
BRANCH   9  17
ATOM     17  O   UNL     1       5.436   6.775  15.120  0.00  0.00    +0.000 OA
ATOM     18  H   UNL     1       5.850   6.465  14.299  0.00  0.00    +0.000 HD
ENDBRANCH   9  17
ENDBRANCH   6   9
ENDBRANCH   2   3
ENDBRANCH   1   2
BRANCH   1  19
ATOM     19  C   UNL     1       0.280   8.333  21.617  0.00  0.00    +0.000 C 
BRANCH  19  20
ATOM     20  C   UNL     1       0.555   9.579  22.469  0.00  0.00    +0.000 C 
BRANCH  20  21
ATOM     21  O   UNL     1       0.382  10.783  21.699  0.00  0.00    +0.000 OA
BRANCH  21  23
ATOM     22  C   UNL     1      -1.458  11.960  20.696  0.00  0.00    +0.000 A 
ATOM     23  C   UNL     1      -0.854  11.369  21.824  0.00  0.00    +0.000 A 
ATOM     24  C   UNL     1      -1.516  11.379  23.057  0.00  0.00    +0.000 A 
ATOM     25  C   UNL     1      -2.707  12.073  23.236  0.00  0.00    +0.000 A 
ATOM     26  C   UNL     1      -3.307  12.721  22.160  0.00  0.00    +0.000 A 
ATOM     27  C   UNL     1      -2.692  12.628  20.890  0.00  0.00    +0.000 A 
BRANCH  26  28
ATOM     28  C   UNL     1      -4.570  13.501  22.334  0.00  0.00    +0.000 C 
ATOM     29  C   UNL     1      -5.928  12.861  22.181  0.00  0.00    +0.000 C 
ATOM     30  O   UNL     1      -4.490  14.696  22.611  0.00  0.00    +0.000 OA
ENDBRANCH  26  28
BRANCH  27  31
ATOM     31  O   UNL     1      -3.269  13.207  19.781  0.00  0.00    +0.000 OA
ATOM     32  H   UNL     1      -4.082  13.685  20.065  0.00  0.00    +0.000 HD
ENDBRANCH  27  31
BRANCH  22  33
ATOM     33  C   UNL     1      -0.797  11.981  19.326  0.00  0.00    +0.000 C 
BRANCH  33  35
ATOM     34  C   UNL     1       0.370  10.021  18.252  0.00  0.00    +0.000 C 
ATOM     35  C   UNL     1      -0.973  10.715  18.480  0.00  0.00    +0.000 C 
ENDBRANCH  33  35
ENDBRANCH  22  33
ENDBRANCH  21  23
ENDBRANCH  20  21
ENDBRANCH  19  20
ENDBRANCH   1  19
TORSDOF 16
ENDMDL
MODEL 2
REMARK VINA RESULT:      -6.8      2.631      9.748
REMARK  Name = 
REMARK  19 active torsions:
REMARK  status: ('A' for Active; 'I' for Inactive)
REMARK    1  A    between atoms: C_1  and  C_2
REMARK    2  A    between atoms: C_2  and  C_3
REMARK    3  A    between atoms: C_3  and  C_4
REMARK    4  A    between atoms: C_5  and  O_6
REMARK    5  A    between atoms: O_6  and  C_7
REMARK    6  A    between atoms: C_7  and  C_8
REMARK    7  A    between atoms: C_8  and  C_9
REMARK    8  A    between atoms: C_9  and  S_10
REMARK    9  A    between atoms: S_10  and  C_11
REMARK   10  A    between atoms: C_14  and  C_15
REMARK   11  A    between atoms: C_15  and  O_16
REMARK   12  A    between atoms: C_15  and  C_17
REMARK   13  A    between atoms: C_17  and  C_18
REMARK   14  A    between atoms: C_17  and  C_19
REMARK   15  A    between atoms: C_19  and  C_20
REMARK   16  A    between atoms: C_20  and  O_22
REMARK   17  A    between atoms: C_27  and  C_28
REMARK   18  A    between atoms: C_28  and  C_29
REMARK   19  A    between atoms: C_31  and  O_32
REMARK                            x       y       z     vdW  Elec       q    Type
REMARK                         _______ _______ _______ _____ _____    ______ ____
ROOT
ATOM      1  C   UNL     1       1.365   3.291  19.413  0.00  0.00    +0.000 C 
ENDROOT
BRANCH   1   2
ATOM      2  S   UNL     1       2.359   4.248  20.612  0.00  0.00    +0.000 S 
BRANCH   2   3
ATOM      3  C   UNL     1       2.037   5.884  20.030  0.00  0.00    +0.000 A 
ATOM      4  C   UNL     1       2.251   6.272  18.709  0.00  0.00    +0.000 A 
ATOM      5  C   UNL     1       2.071   7.607  18.336  0.00  0.00    +0.000 A 
ATOM      6  C   UNL     1       1.649   8.561  19.276  0.00  0.00    +0.000 A 
ATOM      7  C   UNL     1       1.341   8.128  20.568  0.00  0.00    +0.000 A 
ATOM      8  C   UNL     1       1.551   6.806  20.951  0.00  0.00    +0.000 A 
BRANCH   6   9
ATOM      9  C   UNL     1       1.573  10.024  18.885  0.00  0.00    +0.000 C 
BRANCH   9  10
ATOM     10  C   UNL     1       0.717  10.922  19.824  0.00  0.00    +0.000 C 
ATOM     11  C   UNL     1       1.322  12.313  20.073  0.00  0.00    +0.000 C 
BRANCH  10  12
ATOM     12  C   UNL     1      -0.739  11.079  19.371  0.00  0.00    +0.000 C 
BRANCH  12  13
ATOM     13  C   UNL     1      -1.029  12.476  18.881  0.00  0.00    +0.000 C 
ATOM     14  O   UNL     1      -1.518  13.349  19.582  0.00  0.00    +0.000 OA
BRANCH  13  15
ATOM     15  O   UNL     1      -0.652  12.683  17.602  0.00  0.00    +0.000 OA
ATOM     16  H   UNL     1      -1.074  12.093  16.953  0.00  0.00    +0.000 HD
ENDBRANCH  13  15
ENDBRANCH  12  13
ENDBRANCH  10  12
ENDBRANCH   9  10
BRANCH   9  17
ATOM     17  O   UNL     1       1.063  10.175  17.557  0.00  0.00    +0.000 OA
ATOM     18  H   UNL     1       1.812  10.225  16.942  0.00  0.00    +0.000 HD
ENDBRANCH   9  17
ENDBRANCH   6   9
ENDBRANCH   2   3
ENDBRANCH   1   2
BRANCH   1  19
ATOM     19  C   UNL     1       2.274   2.357  18.622  0.00  0.00    +0.000 C 
BRANCH  19  20
ATOM     20  C   UNL     1       2.944   3.034  17.419  0.00  0.00    +0.000 C 
BRANCH  20  21
ATOM     21  O   UNL     1       4.363   2.787  17.410  0.00  0.00    +0.000 OA
BRANCH  21  23
ATOM     22  C   UNL     1       5.991   4.321  16.529  0.00  0.00    +0.000 A 
ATOM     23  C   UNL     1       5.140   3.908  17.573  0.00  0.00    +0.000 A 
ATOM     24  C   UNL     1       5.087   4.643  18.764  0.00  0.00    +0.000 A 
ATOM     25  C   UNL     1       5.953   5.705  19.000  0.00  0.00    +0.000 A 
ATOM     26  C   UNL     1       6.851   6.106  18.016  0.00  0.00    +0.000 A 
ATOM     27  C   UNL     1       6.837   5.430  16.774  0.00  0.00    +0.000 A 
BRANCH  26  28
ATOM     28  C   UNL     1       7.814   7.223  18.259  0.00  0.00    +0.000 C 
ATOM     29  C   UNL     1       7.681   8.555  17.560  0.00  0.00    +0.000 C 
ATOM     30  O   UNL     1       8.735   7.044  19.051  0.00  0.00    +0.000 OA
ENDBRANCH  26  28
BRANCH  27  31
ATOM     31  O   UNL     1       7.669   5.819  15.748  0.00  0.00    +0.000 OA
ATOM     32  H   UNL     1       7.232   6.547  15.250  0.00  0.00    +0.000 HD
ENDBRANCH  27  31
BRANCH  22  33
ATOM     33  C   UNL     1       6.094   3.572  15.209  0.00  0.00    +0.000 C 
BRANCH  33  35
ATOM     34  C   UNL     1       5.802   3.537  12.704  0.00  0.00    +0.000 C 
ATOM     35  C   UNL     1       5.427   4.247  14.005  0.00  0.00    +0.000 C 
ENDBRANCH  33  35
ENDBRANCH  22  33
ENDBRANCH  21  23
ENDBRANCH  20  21
ENDBRANCH  19  20
ENDBRANCH   1  19
TORSDOF 16
ENDMDL
MODEL 3
REMARK VINA RESULT:      -6.8      5.946     10.376
REMARK  Name = 
REMARK  19 active torsions:
REMARK  status: ('A' for Active; 'I' for Inactive)
REMARK    1  A    between atoms: C_1  and  C_2
REMARK    2  A    between atoms: C_2  and  C_3
REMARK    3  A    between atoms: C_3  and  C_4
REMARK    4  A    between atoms: C_5  and  O_6
REMARK    5  A    between atoms: O_6  and  C_7
REMARK    6  A    between atoms: C_7  and  C_8
REMARK    7  A    between atoms: C_8  and  C_9
REMARK    8  A    between atoms: C_9  and  S_10
REMARK    9  A    between atoms: S_10  and  C_11
REMARK   10  A    between atoms: C_14  and  C_15
REMARK   11  A    between atoms: C_15  and  O_16
REMARK   12  A    between atoms: C_15  and  C_17
REMARK   13  A    between atoms: C_17  and  C_18
REMARK   14  A    between atoms: C_17  and  C_19
REMARK   15  A    between atoms: C_19  and  C_20
REMARK   16  A    between atoms: C_20  and  O_22
REMARK   17  A    between atoms: C_27  and  C_28
REMARK   18  A    between atoms: C_28  and  C_29
REMARK   19  A    between atoms: C_31  and  O_32
REMARK                            x       y       z     vdW  Elec       q    Type
REMARK                         _______ _______ _______ _____ _____    ______ ____
ROOT
ATOM      1  C   UNL     1       8.802   9.357  18.718  0.00  0.00    +0.000 C 
ENDROOT
BRANCH   1   2
ATOM      2  S   UNL     1       9.642  10.888  18.181  0.00  0.00    +0.000 S 
BRANCH   2   3
ATOM      3  C   UNL     1       9.310  11.918  19.577  0.00  0.00    +0.000 A 
ATOM      4  C   UNL     1       9.027  13.278  19.463  0.00  0.00    +0.000 A 
ATOM      5  C   UNL     1       8.871  14.058  20.612  0.00  0.00    +0.000 A 
ATOM      6  C   UNL     1       8.970  13.478  21.887  0.00  0.00    +0.000 A 
ATOM      7  C   UNL     1       9.149  12.095  21.975  0.00  0.00    +0.000 A 
ATOM      8  C   UNL     1       9.339  11.323  20.833  0.00  0.00    +0.000 A 
BRANCH   6   9
ATOM      9  C   UNL     1       8.917  14.356  23.122  0.00  0.00    +0.000 C 
BRANCH   9  10
ATOM     10  C   UNL     1       7.851  13.954  24.182  0.00  0.00    +0.000 C 
ATOM     11  C   UNL     1       8.376  13.970  25.626  0.00  0.00    +0.000 C 
BRANCH  10  12
ATOM     12  C   UNL     1       6.562  14.780  24.106  0.00  0.00    +0.000 C 
BRANCH  12  13
ATOM     13  C   UNL     1       5.415  13.986  23.532  0.00  0.00    +0.000 C 
ATOM     14  O   UNL     1       5.510  12.817  23.185  0.00  0.00    +0.000 OA
BRANCH  13  15
ATOM     15  O   UNL     1       4.258  14.677  23.482  0.00  0.00    +0.000 OA
ATOM     16  H   UNL     1       4.202  15.422  24.106  0.00  0.00    +0.000 HD
ENDBRANCH  13  15
ENDBRANCH  12  13
ENDBRANCH  10  12
ENDBRANCH   9  10
BRANCH   9  17
ATOM     17  O   UNL     1       8.685  15.723  22.770  0.00  0.00    +0.000 OA
ATOM     18  H   UNL     1       8.688  16.257  23.580  0.00  0.00    +0.000 HD
ENDBRANCH   9  17
ENDBRANCH   6   9
ENDBRANCH   2   3
ENDBRANCH   1   2
BRANCH   1  19
ATOM     19  C   UNL     1       7.718   8.986  17.713  0.00  0.00    +0.000 C 
BRANCH  19  20
ATOM     20  C   UNL     1       7.525   7.472  17.555  0.00  0.00    +0.000 C 
BRANCH  20  21
ATOM     21  O   UNL     1       6.529   7.176  16.559  0.00  0.00    +0.000 OA
BRANCH  21  23
ATOM     22  C   UNL     1       5.352   5.091  16.765  0.00  0.00    +0.000 A 
ATOM     23  C   UNL     1       5.445   6.472  17.025  0.00  0.00    +0.000 A 
ATOM     24  C   UNL     1       4.439   7.115  17.756  0.00  0.00    +0.000 A 
ATOM     25  C   UNL     1       3.276   6.452  18.128  0.00  0.00    +0.000 A 
ATOM     26  C   UNL     1       3.119   5.100  17.838  0.00  0.00    +0.000 A 
ATOM     27  C   UNL     1       4.177   4.423  17.188  0.00  0.00    +0.000 A 
BRANCH  26  28
ATOM     28  C   UNL     1       1.864   4.373  18.199  0.00  0.00    +0.000 C 
ATOM     29  C   UNL     1       1.429   4.200  19.634  0.00  0.00    +0.000 C 
ATOM     30  O   UNL     1       1.173   3.909  17.296  0.00  0.00    +0.000 OA
ENDBRANCH  26  28
BRANCH  27  31
ATOM     31  O   UNL     1       4.095   3.074  16.923  0.00  0.00    +0.000 OA
ATOM     32  H   UNL     1       3.742   2.955  16.012  0.00  0.00    +0.000 HD
ENDBRANCH  27  31
BRANCH  22  33
ATOM     33  C   UNL     1       6.410   4.328  15.981  0.00  0.00    +0.000 C 
BRANCH  33  35
ATOM     34  C   UNL     1       6.165   3.739  13.542  0.00  0.00    +0.000 C 
ATOM     35  C   UNL     1       6.638   4.796  14.539  0.00  0.00    +0.000 C 
ENDBRANCH  33  35
ENDBRANCH  22  33
ENDBRANCH  21  23
ENDBRANCH  20  21
ENDBRANCH  19  20
ENDBRANCH   1  19
TORSDOF 16
ENDMDL
MODEL 4
REMARK VINA RESULT:      -6.7      2.533     10.443
REMARK  Name = 
REMARK  19 active torsions:
REMARK  status: ('A' for Active; 'I' for Inactive)
REMARK    1  A    between atoms: C_1  and  C_2
REMARK    2  A    between atoms: C_2  and  C_3
REMARK    3  A    between atoms: C_3  and  C_4
REMARK    4  A    between atoms: C_5  and  O_6
REMARK    5  A    between atoms: O_6  and  C_7
REMARK    6  A    between atoms: C_7  and  C_8
REMARK    7  A    between atoms: C_8  and  C_9
REMARK    8  A    between atoms: C_9  and  S_10
REMARK    9  A    between atoms: S_10  and  C_11
REMARK   10  A    between atoms: C_14  and  C_15
REMARK   11  A    between atoms: C_15  and  O_16
REMARK   12  A    between atoms: C_15  and  C_17
REMARK   13  A    between atoms: C_17  and  C_18
REMARK   14  A    between atoms: C_17  and  C_19
REMARK   15  A    between atoms: C_19  and  C_20
REMARK   16  A    between atoms: C_20  and  O_22
REMARK   17  A    between atoms: C_27  and  C_28
REMARK   18  A    between atoms: C_28  and  C_29
REMARK   19  A    between atoms: C_31  and  O_32
REMARK                            x       y       z     vdW  Elec       q    Type
REMARK                         _______ _______ _______ _____ _____    ______ ____
ROOT
ATOM      1  C   UNL     1       1.743   3.896  19.454  0.00  0.00    +0.000 C 
ENDROOT
BRANCH   1   2
ATOM      2  S   UNL     1       2.390   4.897  20.839  0.00  0.00    +0.000 S 
BRANCH   2   3
ATOM      3  C   UNL     1       1.959   6.512  20.269  0.00  0.00    +0.000 A 
ATOM      4  C   UNL     1       2.380   7.019  19.041  0.00  0.00    +0.000 A 
ATOM      5  C   UNL     1       2.088   8.340  18.693  0.00  0.00    +0.000 A 
ATOM      6  C   UNL     1       1.347   9.159  19.559  0.00  0.00    +0.000 A 
ATOM      7  C   UNL     1       0.845   8.598  20.736  0.00  0.00    +0.000 A 
ATOM      8  C   UNL     1       1.164   7.293  21.101  0.00  0.00    +0.000 A 
BRANCH   6   9
ATOM      9  C   UNL     1       1.139  10.623  19.221  0.00  0.00    +0.000 C 
BRANCH   9  10
ATOM     10  C   UNL     1      -0.293  11.172  19.484  0.00  0.00    +0.000 C 
ATOM     11  C   UNL     1      -0.424  11.958  20.798  0.00  0.00    +0.000 C 
BRANCH  10  12
ATOM     12  C   UNL     1      -0.851  12.017  18.333  0.00  0.00    +0.000 C 
BRANCH  12  13
ATOM     13  C   UNL     1      -2.058  11.375  17.695  0.00  0.00    +0.000 C 
ATOM     14  O   UNL     1      -3.209  11.692  17.958  0.00  0.00    +0.000 OA
BRANCH  13  15
ATOM     15  O   UNL     1      -1.742  10.447  16.768  0.00  0.00    +0.000 OA
ATOM     16  H   UNL     1      -1.419   9.604  17.130  0.00  0.00    +0.000 HD
ENDBRANCH  13  15
ENDBRANCH  12  13
ENDBRANCH  10  12
ENDBRANCH   9  10
BRANCH   9  17
ATOM     17  O   UNL     1       1.460  10.884  17.851  0.00  0.00    +0.000 OA
ATOM     18  H   UNL     1       1.257  11.812  17.657  0.00  0.00    +0.000 HD
ENDBRANCH   9  17
ENDBRANCH   6   9
ENDBRANCH   2   3
ENDBRANCH   1   2
BRANCH   1  19
ATOM     19  C   UNL     1       2.822   3.730  18.391  0.00  0.00    +0.000 C 
BRANCH  19  20
ATOM     20  C   UNL     1       4.242   3.662  18.969  0.00  0.00    +0.000 C 
BRANCH  20  21
ATOM     21  O   UNL     1       5.074   4.704  18.426  0.00  0.00    +0.000 OA
BRANCH  21  23
ATOM     22  C   UNL     1       6.620   5.177  16.648  0.00  0.00    +0.000 A 
ATOM     23  C   UNL     1       5.491   4.490  17.135  0.00  0.00    +0.000 A 
ATOM     24  C   UNL     1       4.808   3.592  16.306  0.00  0.00    +0.000 A 
ATOM     25  C   UNL     1       5.135   3.453  14.962  0.00  0.00    +0.000 A 
ATOM     26  C   UNL     1       6.208   4.160  14.428  0.00  0.00    +0.000 A 
ATOM     27  C   UNL     1       6.963   4.991  15.287  0.00  0.00    +0.000 A 
BRANCH  26  28
ATOM     28  C   UNL     1       6.559   4.052  12.978  0.00  0.00    +0.000 C 
ATOM     29  C   UNL     1       5.843   3.096  12.055  0.00  0.00    +0.000 C 
ATOM     30  O   UNL     1       7.454   4.767  12.535  0.00  0.00    +0.000 OA
ENDBRANCH  26  28
BRANCH  27  31
ATOM     31  O   UNL     1       8.065   5.674  14.821  0.00  0.00    +0.000 OA
ATOM     32  H   UNL     1       8.850   5.395  15.344  0.00  0.00    +0.000 HD
ENDBRANCH  27  31
BRANCH  22  33
ATOM     33  C   UNL     1       7.412   6.163  17.496  0.00  0.00    +0.000 C 
BRANCH  33  35
ATOM     34  C   UNL     1       8.080   8.572  17.820  0.00  0.00    +0.000 C 
ATOM     35  C   UNL     1       6.948   7.622  17.430  0.00  0.00    +0.000 C 
ENDBRANCH  33  35
ENDBRANCH  22  33
ENDBRANCH  21  23
ENDBRANCH  20  21
ENDBRANCH  19  20
ENDBRANCH   1  19
TORSDOF 16
ENDMDL
MODEL 5
REMARK VINA RESULT:      -6.7      2.612      3.896
REMARK  Name = 
REMARK  19 active torsions:
REMARK  status: ('A' for Active; 'I' for Inactive)
REMARK    1  A    between atoms: C_1  and  C_2
REMARK    2  A    between atoms: C_2  and  C_3
REMARK    3  A    between atoms: C_3  and  C_4
REMARK    4  A    between atoms: C_5  and  O_6
REMARK    5  A    between atoms: O_6  and  C_7
REMARK    6  A    between atoms: C_7  and  C_8
REMARK    7  A    between atoms: C_8  and  C_9
REMARK    8  A    between atoms: C_9  and  S_10
REMARK    9  A    between atoms: S_10  and  C_11
REMARK   10  A    between atoms: C_14  and  C_15
REMARK   11  A    between atoms: C_15  and  O_16
REMARK   12  A    between atoms: C_15  and  C_17
REMARK   13  A    between atoms: C_17  and  C_18
REMARK   14  A    between atoms: C_17  and  C_19
REMARK   15  A    between atoms: C_19  and  C_20
REMARK   16  A    between atoms: C_20  and  O_22
REMARK   17  A    between atoms: C_27  and  C_28
REMARK   18  A    between atoms: C_28  and  C_29
REMARK   19  A    between atoms: C_31  and  O_32
REMARK                            x       y       z     vdW  Elec       q    Type
REMARK                         _______ _______ _______ _____ _____    ______ ____
ROOT
ATOM      1  C   UNL     1       1.060  10.454  18.761  0.00  0.00    +0.000 C 
ENDROOT
BRANCH   1   2
ATOM      2  S   UNL     1       1.251   9.679  20.406  0.00  0.00    +0.000 S 
BRANCH   2   3
ATOM      3  C   UNL     1       1.705   8.044  19.916  0.00  0.00    +0.000 A 
ATOM      4  C   UNL     1       2.216   7.746  18.654  0.00  0.00    +0.000 A 
ATOM      5  C   UNL     1       2.462   6.419  18.296  0.00  0.00    +0.000 A 
ATOM      6  C   UNL     1       2.225   5.377  19.207  0.00  0.00    +0.000 A 
ATOM      7  C   UNL     1       1.813   5.708  20.501  0.00  0.00    +0.000 A 
ATOM      8  C   UNL     1       1.535   7.027  20.849  0.00  0.00    +0.000 A 
BRANCH   6   9
ATOM      9  C   UNL     1       2.384   3.936  18.765  0.00  0.00    +0.000 C 
BRANCH   9  10
ATOM     10  C   UNL     1       3.851   3.440  18.615  0.00  0.00    +0.000 C 
ATOM     11  C   UNL     1       4.205   2.263  19.537  0.00  0.00    +0.000 C 
BRANCH  10  12
ATOM     12  C   UNL     1       4.240   3.087  17.174  0.00  0.00    +0.000 C 
BRANCH  12  13
ATOM     13  C   UNL     1       5.314   4.001  16.640  0.00  0.00    +0.000 C 
ATOM     14  O   UNL     1       5.176   4.693  15.642  0.00  0.00    +0.000 OA
BRANCH  13  15
ATOM     15  O   UNL     1       6.429   4.017  17.400  0.00  0.00    +0.000 OA
ATOM     16  H   UNL     1       7.143   4.584  17.062  0.00  0.00    +0.000 HD
ENDBRANCH  13  15
ENDBRANCH  12  13
ENDBRANCH  10  12
ENDBRANCH   9  10
BRANCH   9  17
ATOM     17  O   UNL     1       1.718   3.705  17.519  0.00  0.00    +0.000 OA
ATOM     18  H   UNL     1       1.624   2.748  17.390  0.00  0.00    +0.000 HD
ENDBRANCH   9  17
ENDBRANCH   6   9
ENDBRANCH   2   3
ENDBRANCH   1   2
BRANCH   1  19
ATOM     19  C   UNL     1       1.005  11.969  18.910  0.00  0.00    +0.000 C 
BRANCH  19  20
ATOM     20  C   UNL     1      -0.423  12.532  18.899  0.00  0.00    +0.000 C 
BRANCH  20  21
ATOM     21  O   UNL     1      -1.356  11.568  18.377  0.00  0.00    +0.000 OA
BRANCH  21  23
ATOM     22  C   UNL     1      -3.700  11.143  18.056  0.00  0.00    +0.000 A 
ATOM     23  C   UNL     1      -2.657  11.755  18.778  0.00  0.00    +0.000 A 
ATOM     24  C   UNL     1      -2.950  12.543  19.898  0.00  0.00    +0.000 A 
ATOM     25  C   UNL     1      -4.260  12.848  20.247  0.00  0.00    +0.000 A 
ATOM     26  C   UNL     1      -5.320  12.311  19.522  0.00  0.00    +0.000 A 
ATOM     27  C   UNL     1      -5.028  11.434  18.452  0.00  0.00    +0.000 A 
BRANCH  26  28
ATOM     28  C   UNL     1      -6.736  12.651  19.858  0.00  0.00    +0.000 C 
ATOM     29  C   UNL     1      -7.300  12.435  21.242  0.00  0.00    +0.000 C 
ATOM     30  O   UNL     1      -7.453  13.119  18.978  0.00  0.00    +0.000 OA
ENDBRANCH  26  28
BRANCH  27  31
ATOM     31  O   UNL     1      -6.039  10.834  17.734  0.00  0.00    +0.000 OA
ATOM     32  H   UNL     1      -6.846  10.800  18.298  0.00  0.00    +0.000 HD
ENDBRANCH  27  31
BRANCH  22  33
ATOM     33  C   UNL     1      -3.453  10.271  16.833  0.00  0.00    +0.000 C 
BRANCH  33  35
ATOM     34  C   UNL     1      -2.976  10.063  14.366  0.00  0.00    +0.000 C 
ATOM     35  C   UNL     1      -3.411  11.005  15.488  0.00  0.00    +0.000 C 
ENDBRANCH  33  35
ENDBRANCH  22  33
ENDBRANCH  21  23
ENDBRANCH  20  21
ENDBRANCH  19  20
ENDBRANCH   1  19
TORSDOF 16
ENDMDL
MODEL 6
REMARK VINA RESULT:      -6.7      6.227      9.666
REMARK  Name = 
REMARK  19 active torsions:
REMARK  status: ('A' for Active; 'I' for Inactive)
REMARK    1  A    between atoms: C_1  and  C_2
REMARK    2  A    between atoms: C_2  and  C_3
REMARK    3  A    between atoms: C_3  and  C_4
REMARK    4  A    between atoms: C_5  and  O_6
REMARK    5  A    between atoms: O_6  and  C_7
REMARK    6  A    between atoms: C_7  and  C_8
REMARK    7  A    between atoms: C_8  and  C_9
REMARK    8  A    between atoms: C_9  and  S_10
REMARK    9  A    between atoms: S_10  and  C_11
REMARK   10  A    between atoms: C_14  and  C_15
REMARK   11  A    between atoms: C_15  and  O_16
REMARK   12  A    between atoms: C_15  and  C_17
REMARK   13  A    between atoms: C_17  and  C_18
REMARK   14  A    between atoms: C_17  and  C_19
REMARK   15  A    between atoms: C_19  and  C_20
REMARK   16  A    between atoms: C_20  and  O_22
REMARK   17  A    between atoms: C_27  and  C_28
REMARK   18  A    between atoms: C_28  and  C_29
REMARK   19  A    between atoms: C_31  and  O_32
REMARK                            x       y       z     vdW  Elec       q    Type
REMARK                         _______ _______ _______ _____ _____    ______ ____
ROOT
ATOM      1  C   UNL     1       7.811   7.185  18.047  0.00  0.00    +0.000 C 
ENDROOT
BRANCH   1   2
ATOM      2  S   UNL     1       7.383   6.205  16.565  0.00  0.00    +0.000 S 
BRANCH   2   3
ATOM      3  C   UNL     1       5.732   5.738  16.981  0.00  0.00    +0.000 A 
ATOM      4  C   UNL     1       4.828   6.610  17.585  0.00  0.00    +0.000 A 
ATOM      5  C   UNL     1       3.569   6.149  17.978  0.00  0.00    +0.000 A 
ATOM      6  C   UNL     1       3.192   4.817  17.746  0.00  0.00    +0.000 A 
ATOM      7  C   UNL     1       4.073   3.990  17.045  0.00  0.00    +0.000 A 
ATOM      8  C   UNL     1       5.341   4.437  16.683  0.00  0.00    +0.000 A 
BRANCH   6   9
ATOM      9  C   UNL     1       1.871   4.301  18.284  0.00  0.00    +0.000 C 
BRANCH   9  10
ATOM     10  C   UNL     1       1.764   4.229  19.834  0.00  0.00    +0.000 C 
ATOM     11  C   UNL     1       1.001   5.409  20.458  0.00  0.00    +0.000 C 
BRANCH  10  12
ATOM     12  C   UNL     1       1.170   2.914  20.353  0.00  0.00    +0.000 C 
BRANCH  12  13
ATOM     13  C   UNL     1       1.715   2.544  21.709  0.00  0.00    +0.000 C 
ATOM     14  O   UNL     1       2.909   2.483  21.963  0.00  0.00    +0.000 OA
BRANCH  13  15
ATOM     15  O   UNL     1       0.754   2.333  22.633  0.00  0.00    +0.000 OA
ATOM     16  H   UNL     1       0.415   3.139  23.059  0.00  0.00    +0.000 HD
ENDBRANCH  13  15
ENDBRANCH  12  13
ENDBRANCH  10  12
ENDBRANCH   9  10
BRANCH   9  17
ATOM     17  O   UNL     1       1.582   2.998  17.768  0.00  0.00    +0.000 OA
ATOM     18  H   UNL     1       1.810   2.980  16.825  0.00  0.00    +0.000 HD
ENDBRANCH   9  17
ENDBRANCH   6   9
ENDBRANCH   2   3
ENDBRANCH   1   2
BRANCH   1  19
ATOM     19  C   UNL     1       7.526   8.659  17.789  0.00  0.00    +0.000 C 
BRANCH  19  20
ATOM     20  C   UNL     1       8.774   9.547  17.883  0.00  0.00    +0.000 C 
BRANCH  20  21
ATOM     21  O   UNL     1       8.813  10.257  19.135  0.00  0.00    +0.000 OA
BRANCH  21  23
ATOM     22  C   UNL     1       9.707  12.193  20.245  0.00  0.00    +0.000 A 
ATOM     23  C   UNL     1       9.346  11.521  19.060  0.00  0.00    +0.000 A 
ATOM     24  C   UNL     1       9.536  12.141  17.819  0.00  0.00    +0.000 A 
ATOM     25  C   UNL     1       9.956  13.463  17.725  0.00  0.00    +0.000 A 
ATOM     26  C   UNL     1      10.266  14.181  18.877  0.00  0.00    +0.000 A 
ATOM     27  C   UNL     1      10.171  13.526  20.126  0.00  0.00    +0.000 A 
BRANCH  26  28
ATOM     28  C   UNL     1      10.686  15.613  18.803  0.00  0.00    +0.000 C 
ATOM     29  C   UNL     1       9.729  16.704  18.386  0.00  0.00    +0.000 C 
ATOM     30  O   UNL     1      11.844  15.902  19.095  0.00  0.00    +0.000 OA
ENDBRANCH  26  28
BRANCH  27  31
ATOM     31  O   UNL     1      10.514  14.174  21.292  0.00  0.00    +0.000 OA
ATOM     32  H   UNL     1      10.176  15.097  21.247  0.00  0.00    +0.000 HD
ENDBRANCH  27  31
BRANCH  22  33
ATOM     33  C   UNL     1       9.531  11.577  21.625  0.00  0.00    +0.000 C 
BRANCH  33  35
ATOM     34  C   UNL     1       8.460  12.491  23.717  0.00  0.00    +0.000 C 
ATOM     35  C   UNL     1       8.209  11.892  22.333  0.00  0.00    +0.000 C 
ENDBRANCH  33  35
ENDBRANCH  22  33
ENDBRANCH  21  23
ENDBRANCH  20  21
ENDBRANCH  19  20
ENDBRANCH   1  19
TORSDOF 16
ENDMDL
MODEL 7
REMARK VINA RESULT:      -6.7      2.238     11.438
REMARK  Name = 
REMARK  19 active torsions:
REMARK  status: ('A' for Active; 'I' for Inactive)
REMARK    1  A    between atoms: C_1  and  C_2
REMARK    2  A    between atoms: C_2  and  C_3
REMARK    3  A    between atoms: C_3  and  C_4
REMARK    4  A    between atoms: C_5  and  O_6
REMARK    5  A    between atoms: O_6  and  C_7
REMARK    6  A    between atoms: C_7  and  C_8
REMARK    7  A    between atoms: C_8  and  C_9
REMARK    8  A    between atoms: C_9  and  S_10
REMARK    9  A    between atoms: S_10  and  C_11
REMARK   10  A    between atoms: C_14  and  C_15
REMARK   11  A    between atoms: C_15  and  O_16
REMARK   12  A    between atoms: C_15  and  C_17
REMARK   13  A    between atoms: C_17  and  C_18
REMARK   14  A    between atoms: C_17  and  C_19
REMARK   15  A    between atoms: C_19  and  C_20
REMARK   16  A    between atoms: C_20  and  O_22
REMARK   17  A    between atoms: C_27  and  C_28
REMARK   18  A    between atoms: C_28  and  C_29
REMARK   19  A    between atoms: C_31  and  O_32
REMARK                            x       y       z     vdW  Elec       q    Type
REMARK                         _______ _______ _______ _____ _____    ______ ____
ROOT
ATOM      1  C   UNL     1       0.598   8.736  21.122  0.00  0.00    +0.000 C 
ENDROOT
BRANCH   1   2
ATOM      2  S   UNL     1       0.636   9.968  19.773  0.00  0.00    +0.000 S 
BRANCH   2   3
ATOM      3  C   UNL     1      -0.294  11.267  20.525  0.00  0.00    +0.000 A 
ATOM      4  C   UNL     1      -0.856  12.314  19.799  0.00  0.00    +0.000 A 
ATOM      5  C   UNL     1      -1.496  13.363  20.465  0.00  0.00    +0.000 A 
ATOM      6  C   UNL     1      -1.604  13.359  21.864  0.00  0.00    +0.000 A 
ATOM      7  C   UNL     1      -1.126  12.248  22.564  0.00  0.00    +0.000 A 
ATOM      8  C   UNL     1      -0.458  11.219  21.906  0.00  0.00    +0.000 A 
BRANCH   6   9
ATOM      9  C   UNL     1      -2.194  14.559  22.580  0.00  0.00    +0.000 C 
BRANCH   9  10
ATOM     10  C   UNL     1      -2.686  14.294  24.032  0.00  0.00    +0.000 C 
ATOM     11  C   UNL     1      -2.027  15.200  25.085  0.00  0.00    +0.000 C 
BRANCH  10  12
ATOM     12  C   UNL     1      -4.209  14.363  24.191  0.00  0.00    +0.000 C 
BRANCH  12  13
ATOM     13  C   UNL     1      -4.828  12.992  24.300  0.00  0.00    +0.000 C 
ATOM     14  O   UNL     1      -4.186  11.954  24.230  0.00  0.00    +0.000 OA
BRANCH  13  15
ATOM     15  O   UNL     1      -6.158  13.023  24.531  0.00  0.00    +0.000 OA
ATOM     16  H   UNL     1      -6.410  12.942  25.467  0.00  0.00    +0.000 HD
ENDBRANCH  13  15
ENDBRANCH  12  13
ENDBRANCH  10  12
ENDBRANCH   9  10
BRANCH   9  17
ATOM     17  O   UNL     1      -3.291  15.107  21.843  0.00  0.00    +0.000 OA
ATOM     18  H   UNL     1      -3.200  16.072  21.823  0.00  0.00    +0.000 HD
ENDBRANCH   9  17
ENDBRANCH   6   9
ENDBRANCH   2   3
ENDBRANCH   1   2
BRANCH   1  19
ATOM     19  C   UNL     1       1.693   7.700  20.903  0.00  0.00    +0.000 C 
BRANCH  19  20
ATOM     20  C   UNL     1       1.989   7.427  19.423  0.00  0.00    +0.000 C 
BRANCH  20  21
ATOM     21  O   UNL     1       2.105   6.014  19.168  0.00  0.00    +0.000 OA
BRANCH  21  23
ATOM     22  C   UNL     1       3.418   4.315  18.090  0.00  0.00    +0.000 A 
ATOM     23  C   UNL     1       3.094   5.673  18.278  0.00  0.00    +0.000 A 
ATOM     24  C   UNL     1       3.775   6.661  17.557  0.00  0.00    +0.000 A 
ATOM     25  C   UNL     1       4.860   6.349  16.746  0.00  0.00    +0.000 A 
ATOM     26  C   UNL     1       5.250   5.024  16.580  0.00  0.00    +0.000 A 
ATOM     27  C   UNL     1       4.502   4.014  17.228  0.00  0.00    +0.000 A 
BRANCH  26  28
ATOM     28  C   UNL     1       6.435   4.667  15.741  0.00  0.00    +0.000 C 
ATOM     29  C   UNL     1       6.302   4.353  14.270  0.00  0.00    +0.000 C 
ATOM     30  O   UNL     1       7.542   4.632  16.271  0.00  0.00    +0.000 OA
ENDBRANCH  26  28
BRANCH  27  31
ATOM     31  O   UNL     1       4.814   2.684  17.058  0.00  0.00    +0.000 OA
ATOM     32  H   UNL     1       4.684   2.220  17.916  0.00  0.00    +0.000 HD
ENDBRANCH  27  31
BRANCH  22  33
ATOM     33  C   UNL     1       2.717   3.190  18.837  0.00  0.00    +0.000 C 
BRANCH  33  35
ATOM     34  C   UNL     1       1.940   3.028  21.230  0.00  0.00    +0.000 C 
ATOM     35  C   UNL     1       3.147   2.987  20.294  0.00  0.00    +0.000 C 
ENDBRANCH  33  35
ENDBRANCH  22  33
ENDBRANCH  21  23
ENDBRANCH  20  21
ENDBRANCH  19  20
ENDBRANCH   1  19
TORSDOF 16
ENDMDL
MODEL 8
REMARK VINA RESULT:      -6.6      2.305     11.690
REMARK  Name = 
REMARK  19 active torsions:
REMARK  status: ('A' for Active; 'I' for Inactive)
REMARK    1  A    between atoms: C_1  and  C_2
REMARK    2  A    between atoms: C_2  and  C_3
REMARK    3  A    between atoms: C_3  and  C_4
REMARK    4  A    between atoms: C_5  and  O_6
REMARK    5  A    between atoms: O_6  and  C_7
REMARK    6  A    between atoms: C_7  and  C_8
REMARK    7  A    between atoms: C_8  and  C_9
REMARK    8  A    between atoms: C_9  and  S_10
REMARK    9  A    between atoms: S_10  and  C_11
REMARK   10  A    between atoms: C_14  and  C_15
REMARK   11  A    between atoms: C_15  and  O_16
REMARK   12  A    between atoms: C_15  and  C_17
REMARK   13  A    between atoms: C_17  and  C_18
REMARK   14  A    between atoms: C_17  and  C_19
REMARK   15  A    between atoms: C_19  and  C_20
REMARK   16  A    between atoms: C_20  and  O_22
REMARK   17  A    between atoms: C_27  and  C_28
REMARK   18  A    between atoms: C_28  and  C_29
REMARK   19  A    between atoms: C_31  and  O_32
REMARK                            x       y       z     vdW  Elec       q    Type
REMARK                         _______ _______ _______ _____ _____    ______ ____
ROOT
ATOM      1  C   UNL     1       0.629   9.286  20.783  0.00  0.00    +0.000 C 
ENDROOT
BRANCH   1   2
ATOM      2  S   UNL     1       0.916  11.077  21.001  0.00  0.00    +0.000 S 
BRANCH   2   3
ATOM      3  C   UNL     1      -0.755  11.649  21.024  0.00  0.00    +0.000 A 
ATOM      4  C   UNL     1      -1.481  11.911  19.864  0.00  0.00    +0.000 A 
ATOM      5  C   UNL     1      -2.765  12.455  19.950  0.00  0.00    +0.000 A 
ATOM      6  C   UNL     1      -3.346  12.717  21.201  0.00  0.00    +0.000 A 
ATOM      7  C   UNL     1      -2.641  12.349  22.351  0.00  0.00    +0.000 A 
ATOM      8  C   UNL     1      -1.349  11.839  22.267  0.00  0.00    +0.000 A 
BRANCH   6   9
ATOM      9  C   UNL     1      -4.689  13.417  21.279  0.00  0.00    +0.000 C 
BRANCH   9  10
ATOM     10  C   UNL     1      -5.547  13.077  22.531  0.00  0.00    +0.000 C 
ATOM     11  C   UNL     1      -5.377  14.074  23.689  0.00  0.00    +0.000 C 
BRANCH  10  12
ATOM     12  C   UNL     1      -7.041  12.906  22.229  0.00  0.00    +0.000 C 
BRANCH  12  13
ATOM     13  C   UNL     1      -7.525  11.515  22.550  0.00  0.00    +0.000 C 
ATOM     14  O   UNL     1      -7.862  11.158  23.669  0.00  0.00    +0.000 OA
BRANCH  13  15
ATOM     15  O   UNL     1      -7.597  10.711  21.467  0.00  0.00    +0.000 OA
ATOM     16  H   UNL     1      -6.745  10.343  21.178  0.00  0.00    +0.000 HD
ENDBRANCH  13  15
ENDBRANCH  12  13
ENDBRANCH  10  12
ENDBRANCH   9  10
BRANCH   9  17
ATOM     17  O   UNL     1      -5.481  13.137  20.121  0.00  0.00    +0.000 OA
ATOM     18  H   UNL     1      -5.072  13.569  19.354  0.00  0.00    +0.000 HD
ENDBRANCH   9  17
ENDBRANCH   6   9
ENDBRANCH   2   3
ENDBRANCH   1   2
BRANCH   1  19
ATOM     19  C   UNL     1       1.235   8.825  19.463  0.00  0.00    +0.000 C 
BRANCH  19  20
ATOM     20  C   UNL     1       2.172   7.619  19.610  0.00  0.00    +0.000 C 
BRANCH  20  21
ATOM     21  O   UNL     1       1.943   6.653  18.568  0.00  0.00    +0.000 OA
BRANCH  21  23
ATOM     22  C   UNL     1       3.310   4.817  17.835  0.00  0.00    +0.000 A 
ATOM     23  C   UNL     1       3.081   6.202  17.944  0.00  0.00    +0.000 A 
ATOM     24  C   UNL     1       4.008   7.108  17.414  0.00  0.00    +0.000 A 
ATOM     25  C   UNL     1       5.222   6.681  16.891  0.00  0.00    +0.000 A 
ATOM     26  C   UNL     1       5.513   5.321  16.820  0.00  0.00    +0.000 A 
ATOM     27  C   UNL     1       4.536   4.399  17.262  0.00  0.00    +0.000 A 
BRANCH  26  28
ATOM     28  C   UNL     1       6.826   4.839  16.293  0.00  0.00    +0.000 C 
ATOM     29  C   UNL     1       7.161   4.893  14.822  0.00  0.00    +0.000 C 
ATOM     30  O   UNL     1       7.649   4.389  17.086  0.00  0.00    +0.000 OA
ENDBRANCH  26  28
BRANCH  27  31
ATOM     31  O   UNL     1       4.751   3.042  17.168  0.00  0.00    +0.000 OA
ATOM     32  H   UNL     1       5.549   2.815  17.697  0.00  0.00    +0.000 HD
ENDBRANCH  27  31
BRANCH  22  33
ATOM     33  C   UNL     1       2.343   3.778  18.384  0.00  0.00    +0.000 C 
BRANCH  33  35
ATOM     34  C   UNL     1       1.306   3.943  20.676  0.00  0.00    +0.000 C 
ATOM     35  C   UNL     1       2.502   3.438  19.871  0.00  0.00    +0.000 C 
ENDBRANCH  33  35
ENDBRANCH  22  33
ENDBRANCH  21  23
ENDBRANCH  20  21
ENDBRANCH  19  20
ENDBRANCH   1  19
TORSDOF 16
ENDMDL
MODEL 9
REMARK VINA RESULT:      -6.6      1.777      3.837
REMARK  Name = 
REMARK  19 active torsions:
REMARK  status: ('A' for Active; 'I' for Inactive)
REMARK    1  A    between atoms: C_1  and  C_2
REMARK    2  A    between atoms: C_2  and  C_3
REMARK    3  A    between atoms: C_3  and  C_4
REMARK    4  A    between atoms: C_5  and  O_6
REMARK    5  A    between atoms: O_6  and  C_7
REMARK    6  A    between atoms: C_7  and  C_8
REMARK    7  A    between atoms: C_8  and  C_9
REMARK    8  A    between atoms: C_9  and  S_10
REMARK    9  A    between atoms: S_10  and  C_11
REMARK   10  A    between atoms: C_14  and  C_15
REMARK   11  A    between atoms: C_15  and  O_16
REMARK   12  A    between atoms: C_15  and  C_17
REMARK   13  A    between atoms: C_17  and  C_18
REMARK   14  A    between atoms: C_17  and  C_19
REMARK   15  A    between atoms: C_19  and  C_20
REMARK   16  A    between atoms: C_20  and  O_22
REMARK   17  A    between atoms: C_27  and  C_28
REMARK   18  A    between atoms: C_28  and  C_29
REMARK   19  A    between atoms: C_31  and  O_32
REMARK                            x       y       z     vdW  Elec       q    Type
REMARK                         _______ _______ _______ _____ _____    ______ ____
ROOT
ATOM      1  C   UNL     1       1.545   8.724  21.923  0.00  0.00    +0.000 C 
ENDROOT
BRANCH   1   2
ATOM      2  S   UNL     1       0.480   7.474  21.121  0.00  0.00    +0.000 S 
BRANCH   2   3
ATOM      3  C   UNL     1       1.718   6.440  20.403  0.00  0.00    +0.000 A 
ATOM      4  C   UNL     1       1.934   5.125  20.809  0.00  0.00    +0.000 A 
ATOM      5  C   UNL     1       2.994   4.392  20.270  0.00  0.00    +0.000 A 
ATOM      6  C   UNL     1       3.835   4.960  19.300  0.00  0.00    +0.000 A 
ATOM      7  C   UNL     1       3.536   6.243  18.832  0.00  0.00    +0.000 A 
ATOM      8  C   UNL     1       2.501   6.987  19.392  0.00  0.00    +0.000 A 
BRANCH   6   9
ATOM      9  C   UNL     1       5.051   4.197  18.812  0.00  0.00    +0.000 C 
BRANCH   9  10
ATOM     10  C   UNL     1       5.826   4.858  17.636  0.00  0.00    +0.000 C 
ATOM     11  C   UNL     1       7.309   5.123  17.942  0.00  0.00    +0.000 C 
BRANCH  10  12
ATOM     12  C   UNL     1       5.714   4.090  16.313  0.00  0.00    +0.000 C 
BRANCH  12  13
ATOM     13  C   UNL     1       5.751   5.013  15.121  0.00  0.00    +0.000 C 
ATOM     14  O   UNL     1       5.490   6.205  15.181  0.00  0.00    +0.000 OA
BRANCH  13  15
ATOM     15  O   UNL     1       6.148   4.402  13.985  0.00  0.00    +0.000 OA
ATOM     16  H   UNL     1       6.536   3.519  14.112  0.00  0.00    +0.000 HD
ENDBRANCH  13  15
ENDBRANCH  12  13
ENDBRANCH  10  12
ENDBRANCH   9  10
BRANCH   9  17
ATOM     17  O   UNL     1       4.696   2.871  18.408  0.00  0.00    +0.000 OA
ATOM     18  H   UNL     1       5.064   2.708  17.525  0.00  0.00    +0.000 HD
ENDBRANCH   9  17
ENDBRANCH   6   9
ENDBRANCH   2   3
ENDBRANCH   1   2
BRANCH   1  19
ATOM     19  C   UNL     1       0.722   9.545  22.908  0.00  0.00    +0.000 C 
BRANCH  19  20
ATOM     20  C   UNL     1      -0.512  10.201  22.275  0.00  0.00    +0.000 C 
BRANCH  20  21
ATOM     21  O   UNL     1      -0.131  11.192  21.302  0.00  0.00    +0.000 OA
BRANCH  21  23
ATOM     22  C   UNL     1      -2.035  12.028  20.097  0.00  0.00    +0.000 A 
ATOM     23  C   UNL     1      -0.898  11.199  20.163  0.00  0.00    +0.000 A 
ATOM     24  C   UNL     1      -0.555  10.396  19.069  0.00  0.00    +0.000 A 
ATOM     25  C   UNL     1      -1.382  10.293  17.956  0.00  0.00    +0.000 A 
ATOM     26  C   UNL     1      -2.547  11.051  17.879  0.00  0.00    +0.000 A 
ATOM     27  C   UNL     1      -2.845  11.939  18.938  0.00  0.00    +0.000 A 
BRANCH  26  28
ATOM     28  C   UNL     1      -3.469  10.932  16.709  0.00  0.00    +0.000 C 
ATOM     29  C   UNL     1      -2.956  10.653  15.316  0.00  0.00    +0.000 C 
ATOM     30  O   UNL     1      -4.676  11.065  16.895  0.00  0.00    +0.000 OA
ENDBRANCH  26  28
BRANCH  27  31
ATOM     31  O   UNL     1      -3.957  12.748  18.890  0.00  0.00    +0.000 OA
ATOM     32  H   UNL     1      -4.729  12.203  18.614  0.00  0.00    +0.000 HD
ENDBRANCH  27  31
BRANCH  22  33
ATOM     33  C   UNL     1      -2.464  12.928  21.247  0.00  0.00    +0.000 C 
BRANCH  33  35
ATOM     34  C   UNL     1      -3.331  12.448  23.565  0.00  0.00    +0.000 C 
ATOM     35  C   UNL     1      -3.658  12.435  22.072  0.00  0.00    +0.000 C 
ENDBRANCH  33  35
ENDBRANCH  22  33
ENDBRANCH  21  23
ENDBRANCH  20  21
ENDBRANCH  19  20
ENDBRANCH   1  19
TORSDOF 16
ENDMDL
