MODEL 1
REMARK VINA RESULT:      -7.1      0.000      0.000
REMARK  Name = 
REMARK  9 active torsions:
REMARK  status: ('A' for Active; 'I' for Inactive)
REMARK    1  A    between atoms: C_1  and  O_2
REMARK    2  A    between atoms: O_2  and  C_3
REMARK    3  A    between atoms: C_7  and  N_8
REMARK    4  A    between atoms: C_9  and  C_11
REMARK    5  A    between atoms: C_11  and  O_12
REMARK    6  A    between atoms: O_12  and  C_13
REMARK    7  A    between atoms: C_13  and  C_15
REMARK    8  A    between atoms: C_15  and  C_16
REMARK    9  A    between atoms: C_16  and  C_17
REMARK                            x       y       z     vdW  Elec       q    Type
REMARK                         _______ _______ _______ _____ _____    ______ ____
ROOT
ATOM      1  N   UNL     1       4.509   3.089  17.779  0.00  0.00    +0.000 N 
ATOM      2  C   UNL     1       3.130   2.926  17.724  0.00  0.00    +0.000 C 
ATOM      3  O   UNL     1       2.389   3.282  16.810  0.00  0.00    +0.000 OA
ATOM      4  H   UNL     1       4.975   2.812  18.635  0.00  0.00    +0.000 HD
ENDROOT
BRANCH   1   9
ATOM      5  C   UNL     1       6.858   5.515  16.233  0.00  0.00    +0.000 A 
ATOM      6  C   UNL     1       6.916   5.049  14.918  0.00  0.00    +0.000 A 
ATOM      7  C   UNL     1       6.189   3.927  14.541  0.00  0.00    +0.000 A 
ATOM      8  C   UNL     1       5.400   3.263  15.476  0.00  0.00    +0.000 A 
ATOM      9  C   UNL     1       5.316   3.714  16.794  0.00  0.00    +0.000 A 
ATOM     10  C   UNL     1       6.056   4.847  17.168  0.00  0.00    +0.000 A 
BRANCH   5  12
ATOM     11  C   UNL     1       7.195   7.470  17.542  0.00  0.00    +0.000 C 
ATOM     12  O   UNL     1       7.614   6.628  16.474  0.00  0.00    +0.000 OA
ENDBRANCH   5  12
ENDBRANCH   1   9
BRANCH   2  13
ATOM     13  C   UNL     1       2.518   2.248  18.948  0.00  0.00    +0.000 C 
BRANCH  13  14
ATOM     14  O   UNL     1       3.112   2.752  20.146  0.00  0.00    +0.000 OA
BRANCH  14  15
ATOM     15  C   UNL     1       2.251   3.424  20.954  0.00  0.00    +0.000 C 
ATOM     16  O   UNL     1       2.109   3.211  22.150  0.00  0.00    +0.000 OA
BRANCH  15  17
ATOM     17  C   UNL     1       1.496   4.468  20.168  0.00  0.00    +0.000 C 
BRANCH  17  18
ATOM     18  C   UNL     1       1.664   5.865  20.759  0.00  0.00    +0.000 C 
BRANCH  18  19
ATOM     19  C   UNL     1       2.404   6.850  19.848  0.00  0.00    +0.000 C 
ATOM     20  C   UNL     1       2.615   6.359  18.417  0.00  0.00    +0.000 C 
ATOM     21  C   UNL     1       2.940   7.632  17.644  0.00  0.00    +0.000 C 
ATOM     22  C   UNL     1       2.206   8.760  18.368  0.00  0.00    +0.000 C 
ATOM     23  C   UNL     1       1.616   8.143  19.634  0.00  0.00    +0.000 C 
ENDBRANCH  18  19
ENDBRANCH  17  18
ENDBRANCH  15  17
ENDBRANCH  14  15
ENDBRANCH  13  14
ENDBRANCH   2  13
TORSDOF 8
ENDMDL
MODEL 2
REMARK VINA RESULT:      -7.1      2.286      5.483
REMARK  Name = 
REMARK  9 active torsions:
REMARK  status: ('A' for Active; 'I' for Inactive)
REMARK    1  A    between atoms: C_1  and  O_2
REMARK    2  A    between atoms: O_2  and  C_3
REMARK    3  A    between atoms: C_7  and  N_8
REMARK    4  A    between atoms: C_9  and  C_11
REMARK    5  A    between atoms: C_11  and  O_12
REMARK    6  A    between atoms: O_12  and  C_13
REMARK    7  A    between atoms: C_13  and  C_15
REMARK    8  A    between atoms: C_15  and  C_16
REMARK    9  A    between atoms: C_16  and  C_17
REMARK                            x       y       z     vdW  Elec       q    Type
REMARK                         _______ _______ _______ _____ _____    ______ ____
ROOT
ATOM      1  N   UNL     1       2.700   5.761  20.298  0.00  0.00    +0.000 N 
ATOM      2  C   UNL     1       1.884   4.666  20.552  0.00  0.00    +0.000 C 
ATOM      3  O   UNL     1       0.689   4.568  20.276  0.00  0.00    +0.000 OA
ATOM      4  H   UNL     1       3.649   5.725  20.654  0.00  0.00    +0.000 HD
ENDROOT
BRANCH   1   9
ATOM      5  C   UNL     1       1.188   9.133  19.925  0.00  0.00    +0.000 A 
ATOM      6  C   UNL     1       1.434   9.402  18.577  0.00  0.00    +0.000 A 
ATOM      7  C   UNL     1       2.109   8.476  17.791  0.00  0.00    +0.000 A 
ATOM      8  C   UNL     1       2.542   7.276  18.347  0.00  0.00    +0.000 A 
ATOM      9  C   UNL     1       2.301   6.979  19.689  0.00  0.00    +0.000 A 
ATOM     10  C   UNL     1       1.622   7.920  20.477  0.00  0.00    +0.000 A 
BRANCH   5  12
ATOM     11  C   UNL     1       0.216  11.301  19.849  0.00  0.00    +0.000 C 
ATOM     12  O   UNL     1       0.513  10.120  20.587  0.00  0.00    +0.000 OA
ENDBRANCH   5  12
ENDBRANCH   1   9
BRANCH   2  13
ATOM     13  C   UNL     1       2.577   3.502  21.256  0.00  0.00    +0.000 C 
BRANCH  13  14
ATOM     14  O   UNL     1       2.910   2.478  20.317  0.00  0.00    +0.000 OA
BRANCH  14  15
ATOM     15  C   UNL     1       4.232   2.412  20.013  0.00  0.00    +0.000 C 
ATOM     16  O   UNL     1       5.077   1.855  20.700  0.00  0.00    +0.000 OA
BRANCH  15  17
ATOM     17  C   UNL     1       4.510   3.121  18.710  0.00  0.00    +0.000 C 
BRANCH  17  18
ATOM     18  C   UNL     1       5.424   4.329  18.896  0.00  0.00    +0.000 C 
BRANCH  18  19
ATOM     19  C   UNL     1       5.811   5.033  17.592  0.00  0.00    +0.000 C 
ATOM     20  C   UNL     1       7.092   4.514  16.943  0.00  0.00    +0.000 C 
ATOM     21  C   UNL     1       7.005   5.032  15.512  0.00  0.00    +0.000 C 
ATOM     22  C   UNL     1       5.515   5.117  15.188  0.00  0.00    +0.000 C 
ATOM     23  C   UNL     1       4.776   4.812  16.488  0.00  0.00    +0.000 C 
ENDBRANCH  18  19
ENDBRANCH  17  18
ENDBRANCH  15  17
ENDBRANCH  14  15
ENDBRANCH  13  14
ENDBRANCH   2  13
TORSDOF 8
ENDMDL
MODEL 3
REMARK VINA RESULT:      -7.0      1.171      2.084
REMARK  Name = 
REMARK  9 active torsions:
REMARK  status: ('A' for Active; 'I' for Inactive)
REMARK    1  A    between atoms: C_1  and  O_2
REMARK    2  A    between atoms: O_2  and  C_3
REMARK    3  A    between atoms: C_7  and  N_8
REMARK    4  A    between atoms: C_9  and  C_11
REMARK    5  A    between atoms: C_11  and  O_12
REMARK    6  A    between atoms: O_12  and  C_13
REMARK    7  A    between atoms: C_13  and  C_15
REMARK    8  A    between atoms: C_15  and  C_16
REMARK    9  A    between atoms: C_16  and  C_17
REMARK                            x       y       z     vdW  Elec       q    Type
REMARK                         _______ _______ _______ _____ _____    ______ ____
ROOT
ATOM      1  N   UNL     1       4.937   3.210  18.160  0.00  0.00    +0.000 N 
ATOM      2  C   UNL     1       3.661   2.862  17.735  0.00  0.00    +0.000 C 
ATOM      3  O   UNL     1       2.991   3.446  16.885  0.00  0.00    +0.000 OA
ATOM      4  H   UNL     1       5.332   2.677  18.926  0.00  0.00    +0.000 HD
ENDROOT
BRANCH   1   9
ATOM      5  C   UNL     1       6.967   5.336  15.890  0.00  0.00    +0.000 A 
ATOM      6  C   UNL     1       7.244   6.434  16.707  0.00  0.00    +0.000 A 
ATOM      7  C   UNL     1       6.753   6.480  18.006  0.00  0.00    +0.000 A 
ATOM      8  C   UNL     1       5.981   5.429  18.495  0.00  0.00    +0.000 A 
ATOM      9  C   UNL     1       5.698   4.317  17.702  0.00  0.00    +0.000 A 
ATOM     10  C   UNL     1       6.195   4.279  16.390  0.00  0.00    +0.000 A 
BRANCH   5  12
ATOM     11  C   UNL     1       7.004   4.506  13.662  0.00  0.00    +0.000 C 
ATOM     12  O   UNL     1       7.512   5.409  14.638  0.00  0.00    +0.000 OA
ENDBRANCH   5  12
ENDBRANCH   1   9
BRANCH   2  13
ATOM     13  C   UNL     1       3.067   1.640  18.432  0.00  0.00    +0.000 C 
BRANCH  13  14
ATOM     14  O   UNL     1       2.171   2.043  19.468  0.00  0.00    +0.000 OA
BRANCH  14  15
ATOM     15  C   UNL     1       2.786   2.512  20.585  0.00  0.00    +0.000 C 
ATOM     16  O   UNL     1       3.957   2.307  20.872  0.00  0.00    +0.000 OA
BRANCH  15  17
ATOM     17  C   UNL     1       1.822   3.320  21.418  0.00  0.00    +0.000 C 
BRANCH  17  18
ATOM     18  C   UNL     1       1.101   4.384  20.594  0.00  0.00    +0.000 C 
BRANCH  18  19
ATOM     19  C   UNL     1       1.955   5.612  20.265  0.00  0.00    +0.000 C 
ATOM     20  C   UNL     1       2.152   5.870  18.773  0.00  0.00    +0.000 C 
ATOM     21  C   UNL     1       2.618   7.320  18.717  0.00  0.00    +0.000 C 
ATOM     22  C   UNL     1       1.979   8.011  19.920  0.00  0.00    +0.000 C 
ATOM     23  C   UNL     1       1.302   6.912  20.735  0.00  0.00    +0.000 C 
ENDBRANCH  18  19
ENDBRANCH  17  18
ENDBRANCH  15  17
ENDBRANCH  14  15
ENDBRANCH  13  14
ENDBRANCH   2  13
TORSDOF 8
ENDMDL
MODEL 4
REMARK VINA RESULT:      -7.0      2.124      5.519
REMARK  Name = 
REMARK  9 active torsions:
REMARK  status: ('A' for Active; 'I' for Inactive)
REMARK    1  A    between atoms: C_1  and  O_2
REMARK    2  A    between atoms: O_2  and  C_3
REMARK    3  A    between atoms: C_7  and  N_8
REMARK    4  A    between atoms: C_9  and  C_11
REMARK    5  A    between atoms: C_11  and  O_12
REMARK    6  A    between atoms: O_12  and  C_13
REMARK    7  A    between atoms: C_13  and  C_15
REMARK    8  A    between atoms: C_15  and  C_16
REMARK    9  A    between atoms: C_16  and  C_17
REMARK                            x       y       z     vdW  Elec       q    Type
REMARK                         _______ _______ _______ _____ _____    ______ ____
ROOT
ATOM      1  N   UNL     1       2.781   5.690  20.171  0.00  0.00    +0.000 N 
ATOM      2  C   UNL     1       1.935   4.661  20.563  0.00  0.00    +0.000 C 
ATOM      3  O   UNL     1       0.709   4.648  20.468  0.00  0.00    +0.000 OA
ATOM      4  H   UNL     1       3.767   5.587  20.384  0.00  0.00    +0.000 HD
ENDROOT
BRANCH   1   9
ATOM      5  C   UNL     1       1.385   9.124  19.939  0.00  0.00    +0.000 A 
ATOM      6  C   UNL     1       1.531   9.394  18.576  0.00  0.00    +0.000 A 
ATOM      7  C   UNL     1       2.100   8.448  17.733  0.00  0.00    +0.000 A 
ATOM      8  C   UNL     1       2.527   7.226  18.246  0.00  0.00    +0.000 A 
ATOM      9  C   UNL     1       2.384   6.928  19.602  0.00  0.00    +0.000 A 
ATOM     10  C   UNL     1       1.811   7.890  20.448  0.00  0.00    +0.000 A 
BRANCH   5  12
ATOM     11  C   UNL     1      -0.554   9.955  21.035  0.00  0.00    +0.000 C 
ATOM     12  O   UNL     1       0.807  10.133  20.658  0.00  0.00    +0.000 OA
ENDBRANCH   5  12
ENDBRANCH   1   9
BRANCH   2  13
ATOM     13  C   UNL     1       2.640   3.456  21.182  0.00  0.00    +0.000 C 
BRANCH  13  14
ATOM     14  O   UNL     1       3.517   2.849  20.232  0.00  0.00    +0.000 OA
BRANCH  14  15
ATOM     15  C   UNL     1       2.882   2.254  19.189  0.00  0.00    +0.000 C 
ATOM     16  O   UNL     1       1.796   1.696  19.262  0.00  0.00    +0.000 OA
BRANCH  15  17
ATOM     17  C   UNL     1       3.705   2.377  17.931  0.00  0.00    +0.000 C 
BRANCH  17  18
ATOM     18  C   UNL     1       3.470   3.706  17.218  0.00  0.00    +0.000 C 
BRANCH  18  19
ATOM     19  C   UNL     1       4.744   4.519  16.963  0.00  0.00    +0.000 C 
ATOM     20  C   UNL     1       5.761   4.483  18.101  0.00  0.00    +0.000 C 
ATOM     21  C   UNL     1       7.052   4.958  17.445  0.00  0.00    +0.000 C 
ATOM     22  C   UNL     1       6.960   4.528  15.982  0.00  0.00    +0.000 C 
ATOM     23  C   UNL     1       5.553   3.969  15.788  0.00  0.00    +0.000 C 
ENDBRANCH  18  19
ENDBRANCH  17  18
ENDBRANCH  15  17
ENDBRANCH  14  15
ENDBRANCH  13  14
ENDBRANCH   2  13
TORSDOF 8
ENDMDL
MODEL 5
REMARK VINA RESULT:      -6.9      1.200      1.386
REMARK  Name = 
REMARK  9 active torsions:
REMARK  status: ('A' for Active; 'I' for Inactive)
REMARK    1  A    between atoms: C_1  and  O_2
REMARK    2  A    between atoms: O_2  and  C_3
REMARK    3  A    between atoms: C_7  and  N_8
REMARK    4  A    between atoms: C_9  and  C_11
REMARK    5  A    between atoms: C_11  and  O_12
REMARK    6  A    between atoms: O_12  and  C_13
REMARK    7  A    between atoms: C_13  and  C_15
REMARK    8  A    between atoms: C_15  and  C_16
REMARK    9  A    between atoms: C_16  and  C_17
REMARK                            x       y       z     vdW  Elec       q    Type
REMARK                         _______ _______ _______ _____ _____    ______ ____
ROOT
ATOM      1  N   UNL     1       3.527   3.438  17.285  0.00  0.00    +0.000 N 
ATOM      2  C   UNL     1       3.341   2.575  18.357  0.00  0.00    +0.000 C 
ATOM      3  O   UNL     1       4.209   2.176  19.132  0.00  0.00    +0.000 OA
ATOM      4  H   UNL     1       2.726   3.616  16.688  0.00  0.00    +0.000 HD
ENDROOT
BRANCH   1   9
ATOM      5  C   UNL     1       6.670   5.410  17.433  0.00  0.00    +0.000 A 
ATOM      6  C   UNL     1       7.188   5.208  16.152  0.00  0.00    +0.000 A 
ATOM      7  C   UNL     1       6.507   4.411  15.240  0.00  0.00    +0.000 A 
ATOM      8  C   UNL     1       5.304   3.812  15.603  0.00  0.00    +0.000 A 
ATOM      9  C   UNL     1       4.760   4.007  16.873  0.00  0.00    +0.000 A 
ATOM     10  C   UNL     1       5.456   4.810  17.790  0.00  0.00    +0.000 A 
BRANCH   5  12
ATOM     11  C   UNL     1       7.767   5.713  19.520  0.00  0.00    +0.000 C 
ATOM     12  O   UNL     1       7.432   6.217  18.232  0.00  0.00    +0.000 OA
ENDBRANCH   5  12
ENDBRANCH   1   9
BRANCH   2  13
ATOM     13  C   UNL     1       1.905   2.088  18.544  0.00  0.00    +0.000 C 
BRANCH  13  14
ATOM     14  O   UNL     1       1.064   3.165  18.960  0.00  0.00    +0.000 OA
BRANCH  14  15
ATOM     15  C   UNL     1       1.157   3.464  20.282  0.00  0.00    +0.000 C 
ATOM     16  O   UNL     1       1.195   2.637  21.182  0.00  0.00    +0.000 OA
BRANCH  15  17
ATOM     17  C   UNL     1       1.204   4.959  20.482  0.00  0.00    +0.000 C 
BRANCH  17  18
ATOM     18  C   UNL     1       2.625   5.508  20.382  0.00  0.00    +0.000 C 
BRANCH  18  19
ATOM     19  C   UNL     1       2.734   6.844  19.640  0.00  0.00    +0.000 C 
ATOM     20  C   UNL     1       2.383   6.779  18.156  0.00  0.00    +0.000 C 
ATOM     21  C   UNL     1       2.137   8.236  17.780  0.00  0.00    +0.000 C 
ATOM     22  C   UNL     1       1.616   8.912  19.048  0.00  0.00    +0.000 C 
ATOM     23  C   UNL     1       1.736   7.878  20.164  0.00  0.00    +0.000 C 
ENDBRANCH  18  19
ENDBRANCH  17  18
ENDBRANCH  15  17
ENDBRANCH  14  15
ENDBRANCH  13  14
ENDBRANCH   2  13
TORSDOF 8
ENDMDL
MODEL 6
REMARK VINA RESULT:      -6.9      1.119      1.471
REMARK  Name = 
REMARK  9 active torsions:
REMARK  status: ('A' for Active; 'I' for Inactive)
REMARK    1  A    between atoms: C_1  and  O_2
REMARK    2  A    between atoms: O_2  and  C_3
REMARK    3  A    between atoms: C_7  and  N_8
REMARK    4  A    between atoms: C_9  and  C_11
REMARK    5  A    between atoms: C_11  and  O_12
REMARK    6  A    between atoms: O_12  and  C_13
REMARK    7  A    between atoms: C_13  and  C_15
REMARK    8  A    between atoms: C_15  and  C_16
REMARK    9  A    between atoms: C_16  and  C_17
REMARK                            x       y       z     vdW  Elec       q    Type
REMARK                         _______ _______ _______ _____ _____    ______ ____
ROOT
ATOM      1  N   UNL     1       3.381   3.865  17.668  0.00  0.00    +0.000 N 
ATOM      2  C   UNL     1       3.089   2.582  18.115  0.00  0.00    +0.000 C 
ATOM      3  O   UNL     1       3.854   1.620  18.118  0.00  0.00    +0.000 OA
ATOM      4  H   UNL     1       2.621   4.537  17.657  0.00  0.00    +0.000 HD
ENDROOT
BRANCH   1   9
ATOM      5  C   UNL     1       6.679   5.554  17.417  0.00  0.00    +0.000 A 
ATOM      6  C   UNL     1       7.058   5.236  16.111  0.00  0.00    +0.000 A 
ATOM      7  C   UNL     1       6.231   4.454  15.314  0.00  0.00    +0.000 A 
ATOM      8  C   UNL     1       5.021   3.985  15.818  0.00  0.00    +0.000 A 
ATOM      9  C   UNL     1       4.615   4.298  17.115  0.00  0.00    +0.000 A 
ATOM     10  C   UNL     1       5.457   5.085  17.915  0.00  0.00    +0.000 A 
BRANCH   5  12
ATOM     11  C   UNL     1       7.753   7.665  17.624  0.00  0.00    +0.000 C 
ATOM     12  O   UNL     1       7.576   6.333  18.093  0.00  0.00    +0.000 OA
ENDBRANCH   5  12
ENDBRANCH   1   9
BRANCH   2  13
ATOM     13  C   UNL     1       1.663   2.394  18.627  0.00  0.00    +0.000 C 
BRANCH  13  14
ATOM     14  O   UNL     1       1.676   1.884  19.961  0.00  0.00    +0.000 OA
BRANCH  14  15
ATOM     15  C   UNL     1       2.014   2.803  20.904  0.00  0.00    +0.000 C 
ATOM     16  O   UNL     1       2.832   2.617  21.794  0.00  0.00    +0.000 OA
BRANCH  15  17
ATOM     17  C   UNL     1       1.237   4.080  20.698  0.00  0.00    +0.000 C 
BRANCH  17  18
ATOM     18  C   UNL     1       2.134   5.314  20.757  0.00  0.00    +0.000 C 
BRANCH  18  19
ATOM     19  C   UNL     1       1.556   6.546  20.054  0.00  0.00    +0.000 C 
ATOM     20  C   UNL     1       1.413   7.779  20.945  0.00  0.00    +0.000 C 
ATOM     21  C   UNL     1       1.262   8.925  19.951  0.00  0.00    +0.000 C 
ATOM     22  C   UNL     1       2.035   8.501  18.703  0.00  0.00    +0.000 C 
ATOM     23  C   UNL     1       2.469   7.056  18.939  0.00  0.00    +0.000 C 
ENDBRANCH  18  19
ENDBRANCH  17  18
ENDBRANCH  15  17
ENDBRANCH  14  15
ENDBRANCH  13  14
ENDBRANCH   2  13
TORSDOF 8
ENDMDL
MODEL 7
REMARK VINA RESULT:      -6.9      2.300      4.508
REMARK  Name = 
REMARK  9 active torsions:
REMARK  status: ('A' for Active; 'I' for Inactive)
REMARK    1  A    between atoms: C_1  and  O_2
REMARK    2  A    between atoms: O_2  and  C_3
REMARK    3  A    between atoms: C_7  and  N_8
REMARK    4  A    between atoms: C_9  and  C_11
REMARK    5  A    between atoms: C_11  and  O_12
REMARK    6  A    between atoms: O_12  and  C_13
REMARK    7  A    between atoms: C_13  and  C_15
REMARK    8  A    between atoms: C_15  and  C_16
REMARK    9  A    between atoms: C_16  and  C_17
REMARK                            x       y       z     vdW  Elec       q    Type
REMARK                         _______ _______ _______ _____ _____    ______ ____
ROOT
ATOM      1  N   UNL     1       6.121   5.211  15.814  0.00  0.00    +0.000 N 
ATOM      2  C   UNL     1       6.862   4.935  16.957  0.00  0.00    +0.000 C 
ATOM      3  O   UNL     1       7.957   4.377  16.999  0.00  0.00    +0.000 OA
ATOM      4  H   UNL     1       5.198   5.609  15.945  0.00  0.00    +0.000 HD
ENDROOT
BRANCH   1   9
ATOM      5  C   UNL     1       6.039   3.542  12.498  0.00  0.00    +0.000 A 
ATOM      6  C   UNL     1       7.135   4.128  11.861  0.00  0.00    +0.000 A 
ATOM      7  C   UNL     1       7.897   5.083  12.522  0.00  0.00    +0.000 A 
ATOM      8  C   UNL     1       7.568   5.459  13.822  0.00  0.00    +0.000 A 
ATOM      9  C   UNL     1       6.484   4.881  14.482  0.00  0.00    +0.000 A 
ATOM     10  C   UNL     1       5.717   3.919  13.808  0.00  0.00    +0.000 A 
BRANCH   5  12
ATOM     11  C   UNL     1       4.115   3.004  11.209  0.00  0.00    +0.000 C 
ATOM     12  O   UNL     1       5.375   2.614  11.743  0.00  0.00    +0.000 OA
ENDBRANCH   5  12
ENDBRANCH   1   9
BRANCH   2  13
ATOM     13  C   UNL     1       6.206   5.373  18.264  0.00  0.00    +0.000 C 
BRANCH  13  14
ATOM     14  O   UNL     1       4.926   5.953  18.010  0.00  0.00    +0.000 OA
BRANCH  14  15
ATOM     15  C   UNL     1       3.899   5.064  18.025  0.00  0.00    +0.000 C 
ATOM     16  O   UNL     1       4.023   3.855  17.889  0.00  0.00    +0.000 OA
BRANCH  15  17
ATOM     17  C   UNL     1       2.586   5.779  18.233  0.00  0.00    +0.000 C 
BRANCH  17  18
ATOM     18  C   UNL     1       2.340   6.116  19.701  0.00  0.00    +0.000 C 
BRANCH  18  19
ATOM     19  C   UNL     1       1.637   5.008  20.492  0.00  0.00    +0.000 C 
ATOM     20  C   UNL     1       1.055   3.885  19.637  0.00  0.00    +0.000 C 
ATOM     21  C   UNL     1       0.834   2.752  20.632  0.00  0.00    +0.000 C 
ATOM     22  C   UNL     1       1.902   2.930  21.711  0.00  0.00    +0.000 C 
ATOM     23  C   UNL     1       2.601   4.252  21.408  0.00  0.00    +0.000 C 
ENDBRANCH  18  19
ENDBRANCH  17  18
ENDBRANCH  15  17
ENDBRANCH  14  15
ENDBRANCH  13  14
ENDBRANCH   2  13
TORSDOF 8
ENDMDL
MODEL 8
REMARK VINA RESULT:      -6.9      3.077      6.925
REMARK  Name = 
REMARK  9 active torsions:
REMARK  status: ('A' for Active; 'I' for Inactive)
REMARK    1  A    between atoms: C_1  and  O_2
REMARK    2  A    between atoms: O_2  and  C_3
REMARK    3  A    between atoms: C_7  and  N_8
REMARK    4  A    between atoms: C_9  and  C_11
REMARK    5  A    between atoms: C_11  and  O_12
REMARK    6  A    between atoms: O_12  and  C_13
REMARK    7  A    between atoms: C_13  and  C_15
REMARK    8  A    between atoms: C_15  and  C_16
REMARK    9  A    between atoms: C_16  and  C_17
REMARK                            x       y       z     vdW  Elec       q    Type
REMARK                         _______ _______ _______ _____ _____    ______ ____
ROOT
ATOM      1  N   UNL     1       4.668   5.597  17.748  0.00  0.00    +0.000 N 
ATOM      2  C   UNL     1       5.546   5.006  16.847  0.00  0.00    +0.000 C 
ATOM      3  O   UNL     1       5.445   3.881  16.361  0.00  0.00    +0.000 OA
ATOM      4  H   UNL     1       4.926   6.504  18.120  0.00  0.00    +0.000 HD
ENDROOT
BRANCH   1   9
ATOM      5  C   UNL     1       2.310   4.222  20.266  0.00  0.00    +0.000 A 
ATOM      6  C   UNL     1       1.251   3.802  19.458  0.00  0.00    +0.000 A 
ATOM      7  C   UNL     1       1.309   3.981  18.082  0.00  0.00    +0.000 A 
ATOM      8  C   UNL     1       2.424   4.582  17.504  0.00  0.00    +0.000 A 
ATOM      9  C   UNL     1       3.499   5.001  18.288  0.00  0.00    +0.000 A 
ATOM     10  C   UNL     1       3.433   4.819  19.678  0.00  0.00    +0.000 A 
BRANCH   5  12
ATOM     11  C   UNL     1       1.897   2.635  21.987  0.00  0.00    +0.000 C 
ATOM     12  O   UNL     1       2.134   3.984  21.601  0.00  0.00    +0.000 OA
ENDBRANCH   5  12
ENDBRANCH   1   9
BRANCH   2  13
ATOM     13  C   UNL     1       6.746   5.870  16.465  0.00  0.00    +0.000 C 
BRANCH  13  14
ATOM     14  O   UNL     1       6.612   7.181  17.015  0.00  0.00    +0.000 OA
BRANCH  14  15
ATOM     15  C   UNL     1       7.624   7.541  17.848  0.00  0.00    +0.000 C 
ATOM     16  O   UNL     1       8.128   6.809  18.688  0.00  0.00    +0.000 OA
BRANCH  15  17
ATOM     17  C   UNL     1       8.036   8.969  17.589  0.00  0.00    +0.000 C 
BRANCH  17  18
ATOM     18  C   UNL     1       8.788   9.574  18.772  0.00  0.00    +0.000 C 
BRANCH  18  19
ATOM     19  C   UNL     1       9.646  10.792  18.416  0.00  0.00    +0.000 C 
ATOM     20  C   UNL     1       8.864  11.988  17.877  0.00  0.00    +0.000 C 
ATOM     21  C   UNL     1       9.836  13.152  18.030  0.00  0.00    +0.000 C 
ATOM     22  C   UNL     1      10.712  12.810  19.234  0.00  0.00    +0.000 C 
ATOM     23  C   UNL     1      10.342  11.385  19.642  0.00  0.00    +0.000 C 
ENDBRANCH  18  19
ENDBRANCH  17  18
ENDBRANCH  15  17
ENDBRANCH  14  15
ENDBRANCH  13  14
ENDBRANCH   2  13
TORSDOF 8
ENDMDL
MODEL 9
REMARK VINA RESULT:      -6.8      3.029      6.954
REMARK  Name = 
REMARK  9 active torsions:
REMARK  status: ('A' for Active; 'I' for Inactive)
REMARK    1  A    between atoms: C_1  and  O_2
REMARK    2  A    between atoms: O_2  and  C_3
REMARK    3  A    between atoms: C_7  and  N_8
REMARK    4  A    between atoms: C_9  and  C_11
REMARK    5  A    between atoms: C_11  and  O_12
REMARK    6  A    between atoms: O_12  and  C_13
REMARK    7  A    between atoms: C_13  and  C_15
REMARK    8  A    between atoms: C_15  and  C_16
REMARK    9  A    between atoms: C_16  and  C_17
REMARK                            x       y       z     vdW  Elec       q    Type
REMARK                         _______ _______ _______ _____ _____    ______ ____
ROOT
ATOM      1  N   UNL     1       5.743   3.852  18.661  0.00  0.00    +0.000 N 
ATOM      2  C   UNL     1       6.088   5.153  19.005  0.00  0.00    +0.000 C 
ATOM      3  O   UNL     1       5.314   6.050  19.333  0.00  0.00    +0.000 OA
ATOM      4  H   UNL     1       6.488   3.245  18.336  0.00  0.00    +0.000 HD
ENDROOT
BRANCH   1   9
ATOM      5  C   UNL     1       2.542   2.366  19.817  0.00  0.00    +0.000 A 
ATOM      6  C   UNL     1       1.848   2.227  18.613  0.00  0.00    +0.000 A 
ATOM      7  C   UNL     1       2.430   2.632  17.419  0.00  0.00    +0.000 A 
ATOM      8  C   UNL     1       3.709   3.181  17.420  0.00  0.00    +0.000 A 
ATOM      9  C   UNL     1       4.428   3.322  18.608  0.00  0.00    +0.000 A 
ATOM     10  C   UNL     1       3.832   2.912  19.810  0.00  0.00    +0.000 A 
BRANCH   5  12
ATOM     11  C   UNL     1       1.307   2.920  21.771  0.00  0.00    +0.000 C 
ATOM     12  O   UNL     1       1.863   1.925  20.918  0.00  0.00    +0.000 OA
ENDBRANCH   5  12
ENDBRANCH   1   9
BRANCH   2  13
ATOM     13  C   UNL     1       7.583   5.457  18.938  0.00  0.00    +0.000 C 
BRANCH  13  14
ATOM     14  O   UNL     1       7.923   6.010  17.666  0.00  0.00    +0.000 OA
BRANCH  14  15
ATOM     15  C   UNL     1       7.710   7.348  17.566  0.00  0.00    +0.000 C 
ATOM     16  O   UNL     1       6.955   7.874  16.760  0.00  0.00    +0.000 OA
BRANCH  15  17
ATOM     17  C   UNL     1       8.535   8.092  18.588  0.00  0.00    +0.000 C 
BRANCH  17  18
ATOM     18  C   UNL     1       8.520   9.600  18.352  0.00  0.00    +0.000 C 
BRANCH  18  19
ATOM     19  C   UNL     1       9.736  10.339  18.920  0.00  0.00    +0.000 C 
ATOM     20  C   UNL     1      10.326  11.401  17.995  0.00  0.00    +0.000 C 
ATOM     21  C   UNL     1      11.181  12.253  18.924  0.00  0.00    +0.000 C 
ATOM     22  C   UNL     1      10.509  12.179  20.295  0.00  0.00    +0.000 C 
ATOM     23  C   UNL     1       9.386  11.153  20.166  0.00  0.00    +0.000 C 
ENDBRANCH  18  19
ENDBRANCH  17  18
ENDBRANCH  15  17
ENDBRANCH  14  15
ENDBRANCH  13  14
ENDBRANCH   2  13
TORSDOF 8
ENDMDL
