MODEL 1
REMARK VINA RESULT:      -6.5      0.000      0.000
REMARK  Name = 
REMARK  5 active torsions:
REMARK  status: ('A' for Active; 'I' for Inactive)
REMARK    1  A    between atoms: C_1  and  C_2
REMARK    2  A    between atoms: C_11  and  C_12
REMARK    3  A    between atoms: C_19  and  C_20
REMARK    4  A    between atoms: C_24  and  C_25
REMARK    5  A    between atoms: C_24  and  O_26
REMARK                            x       y       z     vdW  Elec       q    Type
REMARK                         _______ _______ _______ _____ _____    ______ ____
ROOT
ATOM      1  C   UNL     1       7.361  14.878  24.677  0.00  0.00    +0.000 C 
ATOM      2  C   UNL     1       7.022  13.815  23.603  0.00  0.00    +0.000 C 
ATOM      3  C   UNL     1       5.970  14.408  22.616  0.00  0.00    +0.000 C 
ATOM      4  C   UNL     1       6.557  15.421  21.596  0.00  0.00    +0.000 C 
ATOM      5  C   UNL     1       7.984  15.188  20.997  0.00  0.00    +0.000 C 
ATOM      6  C   UNL     1       8.939  14.633  22.064  0.00  0.00    +0.000 C 
ATOM      7  C   UNL     1      10.368  14.527  21.475  0.00  0.00    +0.000 C 
ATOM      8  C   UNL     1      10.618  15.583  20.332  0.00  0.00    +0.000 C 
ATOM      9  C   UNL     1       9.646  15.386  19.183  0.00  0.00    +0.000 C 
ATOM     10  O   UNL     1       9.442  16.286  18.182  0.00  0.00    +0.000 OA
ATOM     11  C   UNL     1      10.319  15.307  17.600  0.00  0.00    +0.000 C 
ATOM     12  C   UNL     1      11.207  16.111  16.700  0.00  0.00    +0.000 C 
ATOM     13  C   UNL     1      10.652  13.829  17.634  0.00  0.00    +0.000 A 
ATOM     14  O   UNL     1      11.697  13.248  16.981  0.00  0.00    +0.000 OA
ATOM     15  N   UNL     1      11.867  11.964  17.458  0.00  0.00    +0.000 NA
ATOM     16  C   UNL     1      10.867  11.759  18.320  0.00  0.00    +0.000 A 
ATOM     17  C   UNL     1      10.008  12.881  18.415  0.00  0.00    +0.000 A 
ATOM     18  C   UNL     1       8.757  13.073  19.282  0.00  0.00    +0.000 C 
ATOM     19  C   UNL     1       8.349  14.592  19.530  0.00  0.00    +0.000 C 
ATOM     20  C   UNL     1       7.181  14.881  18.562  0.00  0.00    +0.000 C 
ATOM     21  C   UNL     1       8.201  13.407  22.659  0.00  0.00    +0.000 C 
ATOM     22  C   UNL     1       8.942  12.290  23.342  0.00  0.00    +0.000 C 
ATOM     23  C   UNL     1       7.851  11.506  24.077  0.00  0.00    +0.000 C 
ATOM     24  C   UNL     1       6.643  12.451  24.313  0.00  0.00    +0.000 C 
ATOM     25  C   UNL     1       6.336  12.473  25.824  0.00  0.00    +0.000 C 
ENDROOT
BRANCH  24  26
ATOM     26  O   UNL     1       5.498  11.881  23.670  0.00  0.00    +0.000 OA
ATOM     27  H   UNL     1       4.728  12.446  23.856  0.00  0.00    +0.000 HD
ENDBRANCH  24  26
TORSDOF 1
ENDMDL
MODEL 2
REMARK VINA RESULT:      -6.4      1.922      3.270
REMARK  Name = 
REMARK  5 active torsions:
REMARK  status: ('A' for Active; 'I' for Inactive)
REMARK    1  A    between atoms: C_1  and  C_2
REMARK    2  A    between atoms: C_11  and  C_12
REMARK    3  A    between atoms: C_19  and  C_20
REMARK    4  A    between atoms: C_24  and  C_25
REMARK    5  A    between atoms: C_24  and  O_26
REMARK                            x       y       z     vdW  Elec       q    Type
REMARK                         _______ _______ _______ _____ _____    ______ ____
ROOT
ATOM      1  C   UNL     1       6.076  12.945  23.048  0.00  0.00    +0.000 C 
ATOM      2  C   UNL     1       7.529  13.374  23.367  0.00  0.00    +0.000 C 
ATOM      3  C   UNL     1       8.449  12.115  23.331  0.00  0.00    +0.000 C 
ATOM      4  C   UNL     1       8.786  11.617  21.900  0.00  0.00    +0.000 C 
ATOM      5  C   UNL     1       9.015  12.650  20.747  0.00  0.00    +0.000 C 
ATOM      6  C   UNL     1       8.036  13.827  20.867  0.00  0.00    +0.000 C 
ATOM      7  C   UNL     1       8.206  14.769  19.649  0.00  0.00    +0.000 C 
ATOM      8  C   UNL     1       8.726  14.001  18.373  0.00  0.00    +0.000 C 
ATOM      9  C   UNL     1      10.077  13.360  18.635  0.00  0.00    +0.000 C 
ATOM     10  O   UNL     1      10.658  12.429  17.829  0.00  0.00    +0.000 OA
ATOM     11  C   UNL     1      11.315  13.657  17.475  0.00  0.00    +0.000 C 
ATOM     12  C   UNL     1      11.548  13.528  16.000  0.00  0.00    +0.000 C 
ATOM     13  C   UNL     1      11.776  14.978  18.057  0.00  0.00    +0.000 A 
ATOM     14  O   UNL     1      12.294  16.012  17.337  0.00  0.00    +0.000 OA
ATOM     15  N   UNL     1      12.333  17.140  18.132  0.00  0.00    +0.000 NA
ATOM     16  C   UNL     1      11.928  16.746  19.343  0.00  0.00    +0.000 A 
ATOM     17  C   UNL     1      11.639  15.361  19.383  0.00  0.00    +0.000 A 
ATOM     18  C   UNL     1      11.142  14.509  20.558  0.00  0.00    +0.000 C 
ATOM     19  C   UNL     1      10.439  13.143  20.137  0.00  0.00    +0.000 C 
ATOM     20  C   UNL     1      11.493  12.037  20.356  0.00  0.00    +0.000 C 
ATOM     21  C   UNL     1       8.197  14.330  22.324  0.00  0.00    +0.000 C 
ATOM     22  C   UNL     1       7.835  15.734  22.723  0.00  0.00    +0.000 C 
ATOM     23  C   UNL     1       7.794  15.695  24.253  0.00  0.00    +0.000 C 
ATOM     24  C   UNL     1       7.545  14.230  24.699  0.00  0.00    +0.000 C 
ATOM     25  C   UNL     1       6.293  14.207  25.599  0.00  0.00    +0.000 C 
ENDROOT
BRANCH  24  26
ATOM     26  O   UNL     1       8.646  13.818  25.517  0.00  0.00    +0.000 OA
ATOM     27  H   UNL     1       8.315  13.198  26.189  0.00  0.00    +0.000 HD
ENDBRANCH  24  26
TORSDOF 1
ENDMDL
MODEL 3
REMARK VINA RESULT:      -6.4      2.658      6.941
REMARK  Name = 
REMARK  5 active torsions:
REMARK  status: ('A' for Active; 'I' for Inactive)
REMARK    1  A    between atoms: C_1  and  C_2
REMARK    2  A    between atoms: C_11  and  C_12
REMARK    3  A    between atoms: C_19  and  C_20
REMARK    4  A    between atoms: C_24  and  C_25
REMARK    5  A    between atoms: C_24  and  O_26
REMARK                            x       y       z     vdW  Elec       q    Type
REMARK                         _______ _______ _______ _____ _____    ______ ____
ROOT
ATOM      1  C   UNL     1      11.960  14.745  19.594  0.00  0.00    +0.000 C 
ATOM      2  C   UNL     1      10.519  14.254  19.313  0.00  0.00    +0.000 C 
ATOM      3  C   UNL     1      10.427  12.732  19.642  0.00  0.00    +0.000 C 
ATOM      4  C   UNL     1      10.366  12.414  21.160  0.00  0.00    +0.000 C 
ATOM      5  C   UNL     1       9.573  13.359  22.124  0.00  0.00    +0.000 C 
ATOM      6  C   UNL     1       9.761  14.829  21.722  0.00  0.00    +0.000 C 
ATOM      7  C   UNL     1       9.065  15.743  22.762  0.00  0.00    +0.000 C 
ATOM      8  C   UNL     1       9.001  15.076  24.190  0.00  0.00    +0.000 C 
ATOM      9  C   UNL     1       8.223  13.773  24.149  0.00  0.00    +0.000 C 
ATOM     10  O   UNL     1       8.213  12.849  25.149  0.00  0.00    +0.000 OA
ATOM     11  C   UNL     1       6.983  13.571  25.326  0.00  0.00    +0.000 C 
ATOM     12  C   UNL     1       6.807  13.621  26.814  0.00  0.00    +0.000 C 
ATOM     13  C   UNL     1       5.900  14.297  24.554  0.00  0.00    +0.000 A 
ATOM     14  O   UNL     1       4.880  15.005  25.115  0.00  0.00    +0.000 OA
ATOM     15  N   UNL     1       4.263  15.757  24.136  0.00  0.00    +0.000 NA
ATOM     16  C   UNL     1       4.858  15.421  22.988  0.00  0.00    +0.000 A 
ATOM     17  C   UNL     1       5.854  14.432  23.174  0.00  0.00    +0.000 A 
ATOM     18  C   UNL     1       6.773  13.776  22.137  0.00  0.00    +0.000 C 
ATOM     19  C   UNL     1       8.090  13.114  22.741  0.00  0.00    +0.000 C 
ATOM     20  C   UNL     1       7.812  11.596  22.803  0.00  0.00    +0.000 C 
ATOM     21  C   UNL     1       9.403  14.878  20.215  0.00  0.00    +0.000 C 
ATOM     22  C   UNL     1       8.960  16.150  19.546  0.00  0.00    +0.000 C 
ATOM     23  C   UNL     1       9.068  15.848  18.049  0.00  0.00    +0.000 C 
ATOM     24  C   UNL     1      10.087  14.694  17.854  0.00  0.00    +0.000 C 
ATOM     25  C   UNL     1      11.182  15.178  16.881  0.00  0.00    +0.000 C 
ENDROOT
BRANCH  24  26
ATOM     26  O   UNL     1       9.415  13.608  17.208  0.00  0.00    +0.000 OA
ATOM     27  H   UNL     1      10.034  13.189  16.587  0.00  0.00    +0.000 HD
ENDBRANCH  24  26
TORSDOF 1
ENDMDL
MODEL 4
REMARK VINA RESULT:      -6.3      8.990     11.411
REMARK  Name = 
REMARK  5 active torsions:
REMARK  status: ('A' for Active; 'I' for Inactive)
REMARK    1  A    between atoms: C_1  and  C_2
REMARK    2  A    between atoms: C_11  and  C_12
REMARK    3  A    between atoms: C_19  and  C_20
REMARK    4  A    between atoms: C_24  and  C_25
REMARK    5  A    between atoms: C_24  and  O_26
REMARK                            x       y       z     vdW  Elec       q    Type
REMARK                         _______ _______ _______ _____ _____    ______ ____
ROOT
ATOM      1  C   UNL     1      -2.857  15.323  25.502  0.00  0.00    +0.000 C 
ATOM      2  C   UNL     1      -2.922  15.698  24.001  0.00  0.00    +0.000 C 
ATOM      3  C   UNL     1      -1.543  16.284  23.564  0.00  0.00    +0.000 C 
ATOM      4  C   UNL     1      -0.433  15.216  23.369  0.00  0.00    +0.000 C 
ATOM      5  C   UNL     1      -0.791  13.818  22.764  0.00  0.00    +0.000 C 
ATOM      6  C   UNL     1      -2.151  13.330  23.286  0.00  0.00    +0.000 C 
ATOM      7  C   UNL     1      -2.421  11.896  22.765  0.00  0.00    +0.000 C 
ATOM      8  C   UNL     1      -1.086  11.101  22.496  0.00  0.00    +0.000 C 
ATOM      9  C   UNL     1      -0.234  11.802  21.453  0.00  0.00    +0.000 C 
ATOM     10  O   UNL     1       1.070  11.507  21.198  0.00  0.00    +0.000 OA
ATOM     11  C   UNL     1       0.348  10.839  20.150  0.00  0.00    +0.000 C 
ATOM     12  C   UNL     1       1.126   9.577  19.927  0.00  0.00    +0.000 C 
ATOM     13  C   UNL     1      -0.891  10.959  19.286  0.00  0.00    +0.000 A 
ATOM     14  O   UNL     1      -1.339  10.004  18.424  0.00  0.00    +0.000 OA
ATOM     15  N   UNL     1      -2.623  10.321  18.029  0.00  0.00    +0.000 NA
ATOM     16  C   UNL     1      -2.893  11.506  18.584  0.00  0.00    +0.000 A 
ATOM     17  C   UNL     1      -1.799  12.007  19.329  0.00  0.00    +0.000 A 
ATOM     18  C   UNL     1      -1.686  13.313  20.126  0.00  0.00    +0.000 C 
ATOM     19  C   UNL     1      -0.546  13.316  21.238  0.00  0.00    +0.000 C 
ATOM     20  C   UNL     1       0.638  14.101  20.632  0.00  0.00    +0.000 C 
ATOM     21  C   UNL     1      -3.127  14.502  23.012  0.00  0.00    +0.000 C 
ATOM     22  C   UNL     1      -4.610  14.287  22.888  0.00  0.00    +0.000 C 
ATOM     23  C   UNL     1      -5.206  15.694  22.990  0.00  0.00    +0.000 C 
ATOM     24  C   UNL     1      -4.195  16.602  23.738  0.00  0.00    +0.000 C 
ATOM     25  C   UNL     1      -4.913  17.224  24.953  0.00  0.00    +0.000 C 
ENDROOT
BRANCH  24  26
ATOM     26  O   UNL     1      -3.840  17.685  22.872  0.00  0.00    +0.000 OA
ATOM     27  H   UNL     1      -2.871  17.710  22.792  0.00  0.00    +0.000 HD
ENDBRANCH  24  26
TORSDOF 1
ENDMDL
MODEL 5
REMARK VINA RESULT:      -6.2      1.030      1.142
REMARK  Name = 
REMARK  5 active torsions:
REMARK  status: ('A' for Active; 'I' for Inactive)
REMARK    1  A    between atoms: C_1  and  C_2
REMARK    2  A    between atoms: C_11  and  C_12
REMARK    3  A    between atoms: C_19  and  C_20
REMARK    4  A    between atoms: C_24  and  C_25
REMARK    5  A    between atoms: C_24  and  O_26
REMARK                            x       y       z     vdW  Elec       q    Type
REMARK                         _______ _______ _______ _____ _____    ______ ____
ROOT
ATOM      1  C   UNL     1       7.796  14.699  25.004  0.00  0.00    +0.000 C 
ATOM      2  C   UNL     1       7.190  14.088  23.717  0.00  0.00    +0.000 C 
ATOM      3  C   UNL     1       6.224  15.127  23.067  0.00  0.00    +0.000 C 
ATOM      4  C   UNL     1       6.945  16.282  22.320  0.00  0.00    +0.000 C 
ATOM      5  C   UNL     1       8.259  15.994  21.521  0.00  0.00    +0.000 C 
ATOM      6  C   UNL     1       9.142  14.983  22.268  0.00  0.00    +0.000 C 
ATOM      7  C   UNL     1      10.484  14.812  21.515  0.00  0.00    +0.000 C 
ATOM      8  C   UNL     1      10.878  16.104  20.701  0.00  0.00    +0.000 C 
ATOM      9  C   UNL     1       9.822  16.437  19.662  0.00  0.00    +0.000 C 
ATOM     10  O   UNL     1       9.747  17.619  18.990  0.00  0.00    +0.000 OA
ATOM     11  C   UNL     1      10.374  16.724  18.057  0.00  0.00    +0.000 C 
ATOM     12  C   UNL     1      11.355  17.593  17.329  0.00  0.00    +0.000 C 
ATOM     13  C   UNL     1      10.404  15.271  17.628  0.00  0.00    +0.000 A 
ATOM     14  O   UNL     1      11.272  14.740  16.721  0.00  0.00    +0.000 OA
ATOM     15  N   UNL     1      11.206  13.363  16.789  0.00  0.00    +0.000 NA
ATOM     16  C   UNL     1      10.237  13.086  17.665  0.00  0.00    +0.000 A 
ATOM     17  C   UNL     1       9.628  14.259  18.173  0.00  0.00    +0.000 A 
ATOM     18  C   UNL     1       8.493  14.396  19.196  0.00  0.00    +0.000 C 
ATOM     19  C   UNL     1       8.413  15.816  19.913  0.00  0.00    +0.000 C 
ATOM     20  C   UNL     1       7.275  16.584  19.208  0.00  0.00    +0.000 C 
ATOM     21  C   UNL     1       8.207  13.784  22.568  0.00  0.00    +0.000 C 
ATOM     22  C   UNL     1       8.745  12.402  22.814  0.00  0.00    +0.000 C 
ATOM     23  C   UNL     1       7.562  11.636  23.413  0.00  0.00    +0.000 C 
ATOM     24  C   UNL     1       6.585  12.662  24.045  0.00  0.00    +0.000 C 
ATOM     25  C   UNL     1       6.374  12.279  25.525  0.00  0.00    +0.000 C 
ENDROOT
BRANCH  24  26
ATOM     26  O   UNL     1       5.313  12.524  23.401  0.00  0.00    +0.000 OA
ATOM     27  H   UNL     1       4.824  13.358  23.505  0.00  0.00    +0.000 HD
ENDBRANCH  24  26
TORSDOF 1
ENDMDL
MODEL 6
REMARK VINA RESULT:      -6.2      8.865     10.768
REMARK  Name = 
REMARK  5 active torsions:
REMARK  status: ('A' for Active; 'I' for Inactive)
REMARK    1  A    between atoms: C_1  and  C_2
REMARK    2  A    between atoms: C_11  and  C_12
REMARK    3  A    between atoms: C_19  and  C_20
REMARK    4  A    between atoms: C_24  and  C_25
REMARK    5  A    between atoms: C_24  and  O_26
REMARK                            x       y       z     vdW  Elec       q    Type
REMARK                         _______ _______ _______ _____ _____    ______ ____
ROOT
ATOM      1  C   UNL     1      -1.491  14.926  24.879  0.00  0.00    +0.000 C 
ATOM      2  C   UNL     1      -2.055  15.240  23.471  0.00  0.00    +0.000 C 
ATOM      3  C   UNL     1      -0.984  16.036  22.662  0.00  0.00    +0.000 C 
ATOM      4  C   UNL     1       0.185  15.165  22.128  0.00  0.00    +0.000 C 
ATOM      5  C   UNL     1      -0.094  13.709  21.624  0.00  0.00    +0.000 C 
ATOM      6  C   UNL     1      -1.138  13.015  22.511  0.00  0.00    +0.000 C 
ATOM      7  C   UNL     1      -1.303  11.542  22.062  0.00  0.00    +0.000 C 
ATOM      8  C   UNL     1       0.009  10.975  21.396  0.00  0.00    +0.000 C 
ATOM      9  C   UNL     1       0.388  11.778  20.165  0.00  0.00    +0.000 C 
ATOM     10  O   UNL     1       1.591  11.698  19.532  0.00  0.00    +0.000 OA
ATOM     11  C   UNL     1       0.718  10.888  18.728  0.00  0.00    +0.000 C 
ATOM     12  C   UNL     1       1.597   9.768  18.260  0.00  0.00    +0.000 C 
ATOM     13  C   UNL     1      -0.722  10.773  18.268  0.00  0.00    +0.000 A 
ATOM     14  O   UNL     1      -1.234   9.732  17.554  0.00  0.00    +0.000 OA
ATOM     15  N   UNL     1      -2.612   9.818  17.560  0.00  0.00    +0.000 NA
ATOM     16  C   UNL     1      -2.904  10.956  18.195  0.00  0.00    +0.000 A 
ATOM     17  C   UNL     1      -1.740  11.655  18.598  0.00  0.00    +0.000 A 
ATOM     18  C   UNL     1      -1.622  12.984  19.354  0.00  0.00    +0.000 C 
ATOM     19  C   UNL     1      -0.224  13.210  20.083  0.00  0.00    +0.000 C 
ATOM     20  C   UNL     1       0.580  14.164  19.173  0.00  0.00    +0.000 C 
ATOM     21  C   UNL     1      -2.335  13.999  22.561  0.00  0.00    +0.000 C 
ATOM     22  C   UNL     1      -3.731  13.535  22.872  0.00  0.00    +0.000 C 
ATOM     23  C   UNL     1      -4.500  14.824  23.174  0.00  0.00    +0.000 C 
ATOM     24  C   UNL     1      -3.482  15.910  23.613  0.00  0.00    +0.000 C 
ATOM     25  C   UNL     1      -3.909  16.439  24.998  0.00  0.00    +0.000 C 
ENDROOT
BRANCH  24  26
ATOM     26  O   UNL     1      -3.584  17.012  22.704  0.00  0.00    +0.000 OA
ATOM     27  H   UNL     1      -3.864  17.798  23.203  0.00  0.00    +0.000 HD
ENDBRANCH  24  26
TORSDOF 1
ENDMDL
MODEL 7
REMARK VINA RESULT:      -6.1      8.391     10.845
REMARK  Name = 
REMARK  5 active torsions:
REMARK  status: ('A' for Active; 'I' for Inactive)
REMARK    1  A    between atoms: C_1  and  C_2
REMARK    2  A    between atoms: C_11  and  C_12
REMARK    3  A    between atoms: C_19  and  C_20
REMARK    4  A    between atoms: C_24  and  C_25
REMARK    5  A    between atoms: C_24  and  O_26
REMARK                            x       y       z     vdW  Elec       q    Type
REMARK                         _______ _______ _______ _____ _____    ______ ____
ROOT
ATOM      1  C   UNL     1      -5.104  14.613  23.195  0.00  0.00    +0.000 C 
ATOM      2  C   UNL     1      -3.630  14.618  23.670  0.00  0.00    +0.000 C 
ATOM      3  C   UNL     1      -3.329  13.273  24.402  0.00  0.00    +0.000 C 
ATOM      4  C   UNL     1      -3.142  12.061  23.450  0.00  0.00    +0.000 C 
ATOM      5  C   UNL     1      -2.422  12.253  22.073  0.00  0.00    +0.000 C 
ATOM      6  C   UNL     1      -2.816  13.593  21.434  0.00  0.00    +0.000 C 
ATOM      7  C   UNL     1      -2.185  13.699  20.024  0.00  0.00    +0.000 C 
ATOM      8  C   UNL     1      -1.956  12.284  19.367  0.00  0.00    +0.000 C 
ATOM      9  C   UNL     1      -1.023  11.435  20.212  0.00  0.00    +0.000 C 
ATOM     10  O   UNL     1      -0.839  10.095  20.048  0.00  0.00    +0.000 OA
ATOM     11  C   UNL     1       0.297  10.687  19.398  0.00  0.00    +0.000 C 
ATOM     12  C   UNL     1       0.549   9.786  18.226  0.00  0.00    +0.000 C 
ATOM     13  C   UNL     1       1.235  11.875  19.472  0.00  0.00    +0.000 A 
ATOM     14  O   UNL     1       2.187  12.180  18.547  0.00  0.00    +0.000 OA
ATOM     15  N   UNL     1       2.648  13.460  18.780  0.00  0.00    +0.000 NA
ATOM     16  C   UNL     1       2.036  13.870  19.895  0.00  0.00    +0.000 A 
ATOM     17  C   UNL     1       1.185  12.875  20.433  0.00  0.00    +0.000 A 
ATOM     18  C   UNL     1       0.299  12.930  21.684  0.00  0.00    +0.000 C 
ATOM     19  C   UNL     1      -0.887  11.867  21.704  0.00  0.00    +0.000 C 
ATOM     20  C   UNL     1      -0.417  10.724  22.629  0.00  0.00    +0.000 C 
ATOM     21  C   UNL     1      -2.554  14.651  22.535  0.00  0.00    +0.000 C 
ATOM     22  C   UNL     1      -2.313  16.098  22.203  0.00  0.00    +0.000 C 
ATOM     23  C   UNL     1      -2.466  16.824  23.542  0.00  0.00    +0.000 C 
ATOM     24  C   UNL     1      -3.341  15.948  24.478  0.00  0.00    +0.000 C 
ATOM     25  C   UNL     1      -4.541  16.795  24.948  0.00  0.00    +0.000 C 
ENDROOT
BRANCH  24  26
ATOM     26  O   UNL     1      -2.574  15.639  25.646  0.00  0.00    +0.000 OA
ATOM     27  H   UNL     1      -3.155  15.193  26.286  0.00  0.00    +0.000 HD
ENDBRANCH  24  26
TORSDOF 1
ENDMDL
MODEL 8
REMARK VINA RESULT:      -6.1      5.364      6.881
REMARK  Name = 
REMARK  5 active torsions:
REMARK  status: ('A' for Active; 'I' for Inactive)
REMARK    1  A    between atoms: C_1  and  C_2
REMARK    2  A    between atoms: C_11  and  C_12
REMARK    3  A    between atoms: C_19  and  C_20
REMARK    4  A    between atoms: C_24  and  C_25
REMARK    5  A    between atoms: C_24  and  O_26
REMARK                            x       y       z     vdW  Elec       q    Type
REMARK                         _______ _______ _______ _____ _____    ______ ____
ROOT
ATOM      1  C   UNL     1      -0.825  13.751  20.886  0.00  0.00    +0.000 C 
ATOM      2  C   UNL     1      -0.220  13.681  19.462  0.00  0.00    +0.000 C 
ATOM      3  C   UNL     1      -0.452  15.046  18.744  0.00  0.00    +0.000 C 
ATOM      4  C   UNL     1       0.496  16.181  19.218  0.00  0.00    +0.000 C 
ATOM      5  C   UNL     1       1.984  15.856  19.580  0.00  0.00    +0.000 C 
ATOM      6  C   UNL     1       2.086  14.507  20.307  0.00  0.00    +0.000 C 
ATOM      7  C   UNL     1       3.549  14.270  20.757  0.00  0.00    +0.000 C 
ATOM      8  C   UNL     1       4.320  15.623  21.004  0.00  0.00    +0.000 C 
ATOM      9  C   UNL     1       4.371  16.461  19.739  0.00  0.00    +0.000 C 
ATOM     10  O   UNL     1       4.735  17.773  19.698  0.00  0.00    +0.000 OA
ATOM     11  C   UNL     1       5.914  17.068  19.272  0.00  0.00    +0.000 C 
ATOM     12  C   UNL     1       7.040  17.875  19.843  0.00  0.00    +0.000 C 
ATOM     13  C   UNL     1       6.362  15.828  18.525  0.00  0.00    +0.000 A 
ATOM     14  O   UNL     1       7.652  15.404  18.416  0.00  0.00    +0.000 OA
ATOM     15  N   UNL     1       7.661  14.114  17.925  0.00  0.00    +0.000 NA
ATOM     16  C   UNL     1       6.386  13.816  17.659  0.00  0.00    +0.000 A 
ATOM     17  C   UNL     1       5.517  14.897  17.939  0.00  0.00    +0.000 A 
ATOM     18  C   UNL     1       3.992  14.979  17.788  0.00  0.00    +0.000 C 
ATOM     19  C   UNL     1       3.299  16.116  18.661  0.00  0.00    +0.000 C 
ATOM     20  C   UNL     1       3.014  17.282  17.690  0.00  0.00    +0.000 C 
ATOM     21  C   UNL     1       1.333  13.505  19.395  0.00  0.00    +0.000 C 
ATOM     22  C   UNL     1       1.609  12.028  19.443  0.00  0.00    +0.000 C 
ATOM     23  C   UNL     1       0.436  11.399  18.685  0.00  0.00    +0.000 C 
ATOM     24  C   UNL     1      -0.759  12.388  18.724  0.00  0.00    +0.000 C 
ATOM     25  C   UNL     1      -1.973  11.653  19.328  0.00  0.00    +0.000 C 
ENDROOT
BRANCH  24  26
ATOM     26  O   UNL     1      -1.109  12.720  17.376  0.00  0.00    +0.000 OA
ATOM     27  H   UNL     1      -0.487  12.271  16.777  0.00  0.00    +0.000 HD
ENDBRANCH  24  26
TORSDOF 1
ENDMDL
MODEL 9
REMARK VINA RESULT:      -6.1      2.792      6.687
REMARK  Name = 
REMARK  5 active torsions:
REMARK  status: ('A' for Active; 'I' for Inactive)
REMARK    1  A    between atoms: C_1  and  C_2
REMARK    2  A    between atoms: C_11  and  C_12
REMARK    3  A    between atoms: C_19  and  C_20
REMARK    4  A    between atoms: C_24  and  C_25
REMARK    5  A    between atoms: C_24  and  O_26
REMARK                            x       y       z     vdW  Elec       q    Type
REMARK                         _______ _______ _______ _____ _____    ______ ____
ROOT
ATOM      1  C   UNL     1      11.600  12.121  20.234  0.00  0.00    +0.000 C 
ATOM      2  C   UNL     1      10.107  12.248  19.847  0.00  0.00    +0.000 C 
ATOM      3  C   UNL     1       9.310  11.081  20.508  0.00  0.00    +0.000 C 
ATOM      4  C   UNL     1       9.053  11.270  22.028  0.00  0.00    +0.000 C 
ATOM      5  C   UNL     1       8.753  12.697  22.597  0.00  0.00    +0.000 C 
ATOM      6  C   UNL     1       9.614  13.757  21.894  0.00  0.00    +0.000 C 
ATOM      7  C   UNL     1       9.383  15.136  22.559  0.00  0.00    +0.000 C 
ATOM      8  C   UNL     1       8.965  15.002  24.074  0.00  0.00    +0.000 C 
ATOM      9  C   UNL     1       7.675  14.216  24.217  0.00  0.00    +0.000 C 
ATOM     10  O   UNL     1       7.202  13.717  25.393  0.00  0.00    +0.000 OA
ATOM     11  C   UNL     1       6.441  14.919  25.190  0.00  0.00    +0.000 C 
ATOM     12  C   UNL     1       6.254  15.463  26.574  0.00  0.00    +0.000 C 
ATOM     13  C   UNL     1       5.845  15.788  24.102  0.00  0.00    +0.000 A 
ATOM     14  O   UNL     1       5.248  16.996  24.304  0.00  0.00    +0.000 OA
ATOM     15  N   UNL     1       5.085  17.627  23.087  0.00  0.00    +0.000 NA
ATOM     16  C   UNL     1       5.498  16.754  22.165  0.00  0.00    +0.000 A 
ATOM     17  C   UNL     1       5.916  15.529  22.741  0.00  0.00    +0.000 A 
ATOM     18  C   UNL     1       6.465  14.273  22.053  0.00  0.00    +0.000 C 
ATOM     19  C   UNL     1       7.303  13.308  23.004  0.00  0.00    +0.000 C 
ATOM     20  C   UNL     1       6.353  12.150  23.378  0.00  0.00    +0.000 C 
ATOM     21  C   UNL     1       9.374  13.523  20.380  0.00  0.00    +0.000 C 
ATOM     22  C   UNL     1       9.594  14.611  19.366  0.00  0.00    +0.000 C 
ATOM     23  C   UNL     1       9.604  13.878  18.021  0.00  0.00    +0.000 C 
ATOM     24  C   UNL     1       9.980  12.394  18.275  0.00  0.00    +0.000 C 
ATOM     25  C   UNL     1      11.210  12.053  17.407  0.00  0.00    +0.000 C 
ENDROOT
BRANCH  24  26
ATOM     26  O   UNL     1       8.906  11.573  17.805  0.00  0.00    +0.000 OA
ATOM     27  H   UNL     1       9.163  11.192  16.948  0.00  0.00    +0.000 HD
ENDBRANCH  24  26
TORSDOF 1
ENDMDL
