MODEL 1
REMARK VINA RESULT:      -8.1      0.000      0.000
REMARK  Name = 
REMARK  11 active torsions:
REMARK  status: ('A' for Active; 'I' for Inactive)
REMARK    1  A    between atoms: C_1  and  C_2
REMARK    2  A    between atoms: C_2  and  C_3
REMARK    3  A    between atoms: C_2  and  C_4
REMARK    4  A    between atoms: C_2  and  C_5
REMARK    5  A    between atoms: C_8  and  C_9
REMARK    6  A    between atoms: C_9  and  C_10
REMARK    7  A    between atoms: C_10  and  S_11
REMARK    8  A    between atoms: S_11  and  N_14
REMARK    9  A    between atoms: N_14  and  C_15
REMARK   10  A    between atoms: C_21  and  S_22
REMARK   11  A    between atoms: S_22  and  N_23
REMARK                            x       y       z     vdW  Elec       q    Type
REMARK                         _______ _______ _______ _____ _____    ______ ____
ROOT
ATOM      1  S   UNL     1       3.171   3.695  17.870  0.00  0.00    +0.000 S 
ATOM      2  O   UNL     1       2.915   3.372  19.256  0.00  0.00    +0.000 OA
ATOM      3  O   UNL     1       2.307   3.225  16.809  0.00  0.00    +0.000 OA
ENDROOT
BRANCH   1   4
ATOM      4  N   UNL     1       4.773   3.199  17.580  0.00  0.00    +0.000 N 
ATOM      5  H   UNL     1       4.809   2.170  17.599  0.00  0.00    +0.000 HD
BRANCH   4   6
ATOM      6  C   UNL     1       5.435   3.787  16.454  0.00  0.00    +0.000 A 
ATOM      7  C   UNL     1       4.894   3.531  15.191  0.00  0.00    +0.000 A 
ATOM      8  C   UNL     1       5.483   4.089  14.062  0.00  0.00    +0.000 A 
ATOM      9  F   UNL     1       4.957   3.841  12.855  0.00  0.00    +0.000 F 
ATOM     10  C   UNL     1       6.603   4.906  14.164  0.00  0.00    +0.000 A 
ATOM     11  C   UNL     1       7.175   5.134  15.415  0.00  0.00    +0.000 A 
ATOM     12  C   UNL     1       6.615   4.542  16.557  0.00  0.00    +0.000 A 
BRANCH  12  13
ATOM     13  S   UNL     1       7.397   4.800  18.119  0.00  0.00    +0.000 S 
ATOM     14  O   UNL     1       6.429   4.612  19.175  0.00  0.00    +0.000 OA
ATOM     15  O   UNL     1       8.666   4.110  18.092  0.00  0.00    +0.000 OA
BRANCH  13  16
ATOM     16  N   UNL     1       7.732   6.435  18.093  0.00  0.00    +0.000 NA
ATOM     17  H   UNL     1       7.373   6.932  18.907  0.00  0.00    +0.000 HD
ATOM     18  H   UNL     1       8.712   6.640  17.863  0.00  0.00    +0.000 HD
ENDBRANCH  13  16
ENDBRANCH  12  13
ENDBRANCH   4   6
ENDBRANCH   1   4
BRANCH   1  19
ATOM     19  C   UNL     1       3.357   5.451  17.702  0.00  0.00    +0.000 C 
BRANCH  19  20
ATOM     20  C   UNL     1       3.278   6.139  19.055  0.00  0.00    +0.000 C 
BRANCH  20  24
ATOM     21  C   UNL     1       0.786   9.715  19.188  0.00  0.00    +0.000 A 
ATOM     22  C   UNL     1       1.058   8.950  20.335  0.00  0.00    +0.000 A 
ATOM     23  C   UNL     1       1.854   7.801  20.276  0.00  0.00    +0.000 A 
ATOM     24  C   UNL     1       2.400   7.368  19.066  0.00  0.00    +0.000 A 
ATOM     25  C   UNL     1       2.151   8.130  17.921  0.00  0.00    +0.000 A 
ATOM     26  C   UNL     1       1.353   9.276  17.981  0.00  0.00    +0.000 A 
BRANCH  21  28
ATOM     27  C   UNL     1      -0.711  11.248  20.606  0.00  0.00    +0.000 C 
ATOM     28  C   UNL     1      -0.087  10.980  19.218  0.00  0.00    +0.000 C 
ATOM     29  C   UNL     1      -1.244  10.842  18.205  0.00  0.00    +0.000 C 
ATOM     30  C   UNL     1       0.752  12.221  18.843  0.00  0.00    +0.000 C 
ENDBRANCH  21  28
ENDBRANCH  20  24
ENDBRANCH  19  20
ENDBRANCH   1  19
TORSDOF 8
ENDMDL
MODEL 2
REMARK VINA RESULT:      -8.0      2.516      3.193
REMARK  Name = 
REMARK  11 active torsions:
REMARK  status: ('A' for Active; 'I' for Inactive)
REMARK    1  A    between atoms: C_1  and  C_2
REMARK    2  A    between atoms: C_2  and  C_3
REMARK    3  A    between atoms: C_2  and  C_4
REMARK    4  A    between atoms: C_2  and  C_5
REMARK    5  A    between atoms: C_8  and  C_9
REMARK    6  A    between atoms: C_9  and  C_10
REMARK    7  A    between atoms: C_10  and  S_11
REMARK    8  A    between atoms: S_11  and  N_14
REMARK    9  A    between atoms: N_14  and  C_15
REMARK   10  A    between atoms: C_21  and  S_22
REMARK   11  A    between atoms: S_22  and  N_23
REMARK                            x       y       z     vdW  Elec       q    Type
REMARK                         _______ _______ _______ _____ _____    ______ ____
ROOT
ATOM      1  S   UNL     1       3.354   3.795  17.944  0.00  0.00    +0.000 S 
ATOM      2  O   UNL     1       3.324   3.308  19.306  0.00  0.00    +0.000 OA
ATOM      3  O   UNL     1       2.410   3.329  16.951  0.00  0.00    +0.000 OA
ENDROOT
BRANCH   1   4
ATOM      4  N   UNL     1       4.946   3.527  17.404  0.00  0.00    +0.000 N 
ATOM      5  H   UNL     1       4.918   3.276  16.406  0.00  0.00    +0.000 HD
BRANCH   4   6
ATOM      6  C   UNL     1       5.913   4.533  17.728  0.00  0.00    +0.000 A 
ATOM      7  C   UNL     1       6.323   4.618  19.062  0.00  0.00    +0.000 A 
ATOM      8  C   UNL     1       7.273   5.562  19.433  0.00  0.00    +0.000 A 
ATOM      9  F   UNL     1       7.662   5.636  20.713  0.00  0.00    +0.000 F 
ATOM     10  C   UNL     1       7.834   6.424  18.499  0.00  0.00    +0.000 A 
ATOM     11  C   UNL     1       7.403   6.375  17.174  0.00  0.00    +0.000 A 
ATOM     12  C   UNL     1       6.413   5.456  16.794  0.00  0.00    +0.000 A 
BRANCH  12  13
ATOM     13  S   UNL     1       5.845   5.459  15.123  0.00  0.00    +0.000 S 
ATOM     14  O   UNL     1       5.217   4.191  14.829  0.00  0.00    +0.000 OA
ATOM     15  O   UNL     1       5.192   6.725  14.885  0.00  0.00    +0.000 OA
BRANCH  13  16
ATOM     16  N   UNL     1       7.270   5.474  14.254  0.00  0.00    +0.000 NA
ATOM     17  H   UNL     1       7.697   4.554  14.166  0.00  0.00    +0.000 HD
ATOM     18  H   UNL     1       7.196   5.998  13.373  0.00  0.00    +0.000 HD
ENDBRANCH  13  16
ENDBRANCH  12  13
ENDBRANCH   4   6
ENDBRANCH   1   4
BRANCH   1  19
ATOM     19  C   UNL     1       3.326   5.568  17.954  0.00  0.00    +0.000 C 
BRANCH  19  20
ATOM     20  C   UNL     1       3.007   6.100  19.342  0.00  0.00    +0.000 C 
BRANCH  20  24
ATOM     21  C   UNL     1       0.798   9.858  19.222  0.00  0.00    +0.000 A 
ATOM     22  C   UNL     1       1.419   9.320  18.083  0.00  0.00    +0.000 A 
ATOM     23  C   UNL     1       2.131   8.116  18.137  0.00  0.00    +0.000 A 
ATOM     24  C   UNL     1       2.255   7.410  19.336  0.00  0.00    +0.000 A 
ATOM     25  C   UNL     1       1.627   7.927  20.473  0.00  0.00    +0.000 A 
ATOM     26  C   UNL     1       0.919   9.132  20.418  0.00  0.00    +0.000 A 
BRANCH  21  28
ATOM     27  C   UNL     1      -1.186  11.149  18.223  0.00  0.00    +0.000 C 
ATOM     28  C   UNL     1       0.013  11.179  19.196  0.00  0.00    +0.000 C 
ATOM     29  C   UNL     1       0.942  12.332  18.758  0.00  0.00    +0.000 C 
ATOM     30  C   UNL     1      -0.544  11.501  20.601  0.00  0.00    +0.000 C 
ENDBRANCH  21  28
ENDBRANCH  20  24
ENDBRANCH  19  20
ENDBRANCH   1  19
TORSDOF 8
ENDMDL
MODEL 3
REMARK VINA RESULT:      -7.9      5.110      6.386
REMARK  Name = 
REMARK  11 active torsions:
REMARK  status: ('A' for Active; 'I' for Inactive)
REMARK    1  A    between atoms: C_1  and  C_2
REMARK    2  A    between atoms: C_2  and  C_3
REMARK    3  A    between atoms: C_2  and  C_4
REMARK    4  A    between atoms: C_2  and  C_5
REMARK    5  A    between atoms: C_8  and  C_9
REMARK    6  A    between atoms: C_9  and  C_10
REMARK    7  A    between atoms: C_10  and  S_11
REMARK    8  A    between atoms: S_11  and  N_14
REMARK    9  A    between atoms: N_14  and  C_15
REMARK   10  A    between atoms: C_21  and  S_22
REMARK   11  A    between atoms: S_22  and  N_23
REMARK                            x       y       z     vdW  Elec       q    Type
REMARK                         _______ _______ _______ _____ _____    ______ ____
ROOT
ATOM      1  S   UNL     1       7.341   5.653  18.660  0.00  0.00    +0.000 S 
ATOM      2  O   UNL     1       8.125   4.618  18.024  0.00  0.00    +0.000 OA
ATOM      3  O   UNL     1       6.614   5.410  19.887  0.00  0.00    +0.000 OA
ENDROOT
BRANCH   1   4
ATOM      4  N   UNL     1       6.278   6.218  17.457  0.00  0.00    +0.000 N 
ATOM      5  H   UNL     1       6.498   7.204  17.258  0.00  0.00    +0.000 HD
BRANCH   4   6
ATOM      6  C   UNL     1       6.136   5.403  16.287  0.00  0.00    +0.000 A 
ATOM      7  C   UNL     1       6.995   5.668  15.217  0.00  0.00    +0.000 A 
ATOM      8  C   UNL     1       6.917   4.898  14.062  0.00  0.00    +0.000 A 
ATOM      9  F   UNL     1       7.745   5.157  13.041  0.00  0.00    +0.000 F 
ATOM     10  C   UNL     1       6.000   3.859  13.951  0.00  0.00    +0.000 A 
ATOM     11  C   UNL     1       5.112   3.613  14.996  0.00  0.00    +0.000 A 
ATOM     12  C   UNL     1       5.152   4.410  16.150  0.00  0.00    +0.000 A 
BRANCH  12  13
ATOM     13  S   UNL     1       3.974   4.112  17.431  0.00  0.00    +0.000 S 
ATOM     14  O   UNL     1       3.636   5.363  18.070  0.00  0.00    +0.000 OA
ATOM     15  O   UNL     1       2.975   3.210  16.906  0.00  0.00    +0.000 OA
BRANCH  13  16
ATOM     16  N   UNL     1       4.864   3.253  18.552  0.00  0.00    +0.000 NA
ATOM     17  H   UNL     1       4.595   2.273  18.613  0.00  0.00    +0.000 HD
ATOM     18  H   UNL     1       5.875   3.416  18.471  0.00  0.00    +0.000 HD
ENDBRANCH  13  16
ENDBRANCH  12  13
ENDBRANCH   4   6
ENDBRANCH   1   4
BRANCH   1  19
ATOM     19  C   UNL     1       8.348   7.097  18.884  0.00  0.00    +0.000 C 
BRANCH  19  20
ATOM     20  C   UNL     1       7.985   8.175  17.875  0.00  0.00    +0.000 C 
BRANCH  20  24
ATOM     21  C   UNL     1       9.495  12.108  18.997  0.00  0.00    +0.000 A 
ATOM     22  C   UNL     1       9.798  10.953  19.736  0.00  0.00    +0.000 A 
ATOM     23  C   UNL     1       9.301   9.698  19.369  0.00  0.00    +0.000 A 
ATOM     24  C   UNL     1       8.474   9.553  18.253  0.00  0.00    +0.000 A 
ATOM     25  C   UNL     1       8.179  10.693  17.499  0.00  0.00    +0.000 A 
ATOM     26  C   UNL     1       8.674  11.947  17.870  0.00  0.00    +0.000 A 
BRANCH  21  28
ATOM     27  C   UNL     1      10.225  13.676  20.898  0.00  0.00    +0.000 C 
ATOM     28  C   UNL     1      10.022  13.502  19.376  0.00  0.00    +0.000 C 
ATOM     29  C   UNL     1       9.023  14.584  18.912  0.00  0.00    +0.000 C 
ATOM     30  C   UNL     1      11.384  13.765  18.698  0.00  0.00    +0.000 C 
ENDBRANCH  21  28
ENDBRANCH  20  24
ENDBRANCH  19  20
ENDBRANCH   1  19
TORSDOF 8
ENDMDL
MODEL 4
REMARK VINA RESULT:      -7.8      0.600      1.071
REMARK  Name = 
REMARK  11 active torsions:
REMARK  status: ('A' for Active; 'I' for Inactive)
REMARK    1  A    between atoms: C_1  and  C_2
REMARK    2  A    between atoms: C_2  and  C_3
REMARK    3  A    between atoms: C_2  and  C_4
REMARK    4  A    between atoms: C_2  and  C_5
REMARK    5  A    between atoms: C_8  and  C_9
REMARK    6  A    between atoms: C_9  and  C_10
REMARK    7  A    between atoms: C_10  and  S_11
REMARK    8  A    between atoms: S_11  and  N_14
REMARK    9  A    between atoms: N_14  and  C_15
REMARK   10  A    between atoms: C_21  and  S_22
REMARK   11  A    between atoms: S_22  and  N_23
REMARK                            x       y       z     vdW  Elec       q    Type
REMARK                         _______ _______ _______ _____ _____    ______ ____
ROOT
ATOM      1  S   UNL     1       3.251   3.626  18.307  0.00  0.00    +0.000 S 
ATOM      2  O   UNL     1       2.959   3.260  19.675  0.00  0.00    +0.000 OA
ATOM      3  O   UNL     1       2.587   2.986  17.192  0.00  0.00    +0.000 OA
ENDROOT
BRANCH   1   4
ATOM      4  N   UNL     1       4.938   3.467  18.148  0.00  0.00    +0.000 N 
ATOM      5  H   UNL     1       5.189   2.476  18.267  0.00  0.00    +0.000 HD
BRANCH   4   6
ATOM      6  C   UNL     1       5.539   4.090  17.007  0.00  0.00    +0.000 A 
ATOM      7  C   UNL     1       5.052   3.723  15.749  0.00  0.00    +0.000 A 
ATOM      8  C   UNL     1       5.584   4.307  14.605  0.00  0.00    +0.000 A 
ATOM      9  F   UNL     1       5.110   3.952  13.403  0.00  0.00    +0.000 F 
ATOM     10  C   UNL     1       6.593   5.260  14.687  0.00  0.00    +0.000 A 
ATOM     11  C   UNL     1       7.114   5.603  15.933  0.00  0.00    +0.000 A 
ATOM     12  C   UNL     1       6.616   4.989  17.092  0.00  0.00    +0.000 A 
BRANCH  12  13
ATOM     13  S   UNL     1       7.337   5.400  18.650  0.00  0.00    +0.000 S 
ATOM     14  O   UNL     1       6.294   5.520  19.643  0.00  0.00    +0.000 OA
ATOM     15  O   UNL     1       8.494   4.553  18.833  0.00  0.00    +0.000 OA
BRANCH  13  16
ATOM     16  N   UNL     1       7.903   6.948  18.393  0.00  0.00    +0.000 NA
ATOM     17  H   UNL     1       7.343   7.476  17.726  0.00  0.00    +0.000 HD
ATOM     18  H   UNL     1       8.113   7.448  19.265  0.00  0.00    +0.000 HD
ENDBRANCH  13  16
ENDBRANCH  12  13
ENDBRANCH   4   6
ENDBRANCH   1   4
BRANCH   1  19
ATOM     19  C   UNL     1       3.088   5.383  18.121  0.00  0.00    +0.000 C 
BRANCH  19  20
ATOM     20  C   UNL     1       2.994   6.066  19.476  0.00  0.00    +0.000 C 
BRANCH  20  24
ATOM     21  C   UNL     1       0.831   9.852  19.509  0.00  0.00    +0.000 A 
ATOM     22  C   UNL     1       0.908   9.026  20.641  0.00  0.00    +0.000 A 
ATOM     23  C   UNL     1       1.600   7.810  20.615  0.00  0.00    +0.000 A 
ATOM     24  C   UNL     1       2.233   7.371  19.450  0.00  0.00    +0.000 A 
ATOM     25  C   UNL     1       2.179   8.193  18.320  0.00  0.00    +0.000 A 
ATOM     26  C   UNL     1       1.484   9.406  18.348  0.00  0.00    +0.000 A 
BRANCH  21  28
ATOM     27  C   UNL     1       0.791  12.284  18.678  0.00  0.00    +0.000 C 
ATOM     28  C   UNL     1       0.076  11.192  19.504  0.00  0.00    +0.000 C 
ATOM     29  C   UNL     1      -0.068  11.717  20.949  0.00  0.00    +0.000 C 
ATOM     30  C   UNL     1      -1.335  11.010  18.902  0.00  0.00    +0.000 C 
ENDBRANCH  21  28
ENDBRANCH  20  24
ENDBRANCH  19  20
ENDBRANCH   1  19
TORSDOF 8
ENDMDL
MODEL 5
REMARK VINA RESULT:      -7.8      2.632      3.205
REMARK  Name = 
REMARK  11 active torsions:
REMARK  status: ('A' for Active; 'I' for Inactive)
REMARK    1  A    between atoms: C_1  and  C_2
REMARK    2  A    between atoms: C_2  and  C_3
REMARK    3  A    between atoms: C_2  and  C_4
REMARK    4  A    between atoms: C_2  and  C_5
REMARK    5  A    between atoms: C_8  and  C_9
REMARK    6  A    between atoms: C_9  and  C_10
REMARK    7  A    between atoms: C_10  and  S_11
REMARK    8  A    between atoms: S_11  and  N_14
REMARK    9  A    between atoms: N_14  and  C_15
REMARK   10  A    between atoms: C_21  and  S_22
REMARK   11  A    between atoms: S_22  and  N_23
REMARK                            x       y       z     vdW  Elec       q    Type
REMARK                         _______ _______ _______ _____ _____    ______ ____
ROOT
ATOM      1  S   UNL     1       3.523   3.822  18.453  0.00  0.00    +0.000 S 
ATOM      2  O   UNL     1       3.528   2.962  19.615  0.00  0.00    +0.000 OA
ATOM      3  O   UNL     1       2.478   3.744  17.455  0.00  0.00    +0.000 OA
ENDROOT
BRANCH   1   4
ATOM      4  N   UNL     1       5.043   3.601  17.720  0.00  0.00    +0.000 N 
ATOM      5  H   UNL     1       4.901   3.371  16.727  0.00  0.00    +0.000 HD
BRANCH   4   6
ATOM      6  C   UNL     1       6.024   4.619  17.951  0.00  0.00    +0.000 A 
ATOM      7  C   UNL     1       6.546   4.720  19.244  0.00  0.00    +0.000 A 
ATOM      8  C   UNL     1       7.514   5.677  19.524  0.00  0.00    +0.000 A 
ATOM      9  F   UNL     1       8.011   5.767  20.765  0.00  0.00    +0.000 F 
ATOM     10  C   UNL     1       7.983   6.537  18.538  0.00  0.00    +0.000 A 
ATOM     11  C   UNL     1       7.440   6.471  17.255  0.00  0.00    +0.000 A 
ATOM     12  C   UNL     1       6.431   5.539  16.970  0.00  0.00    +0.000 A 
BRANCH  12  13
ATOM     13  S   UNL     1       5.721   5.520  15.354  0.00  0.00    +0.000 S 
ATOM     14  O   UNL     1       5.027   4.269  15.151  0.00  0.00    +0.000 OA
ATOM     15  O   UNL     1       5.093   6.803  15.138  0.00  0.00    +0.000 OA
BRANCH  13  16
ATOM     16  N   UNL     1       7.064   5.463  14.366  0.00  0.00    +0.000 NA
ATOM     17  H   UNL     1       7.479   4.535  14.305  0.00  0.00    +0.000 HD
ATOM     18  H   UNL     1       6.917   5.927  13.462  0.00  0.00    +0.000 HD
ENDBRANCH  13  16
ENDBRANCH  12  13
ENDBRANCH   4   6
ENDBRANCH   1   4
BRANCH   1  19
ATOM     19  C   UNL     1       3.674   5.512  18.972  0.00  0.00    +0.000 C 
BRANCH  19  20
ATOM     20  C   UNL     1       3.005   6.448  17.979  0.00  0.00    +0.000 C 
BRANCH  20  24
ATOM     21  C   UNL     1       0.868   9.705  19.938  0.00  0.00    +0.000 A 
ATOM     22  C   UNL     1       1.282   8.557  20.634  0.00  0.00    +0.000 A 
ATOM     23  C   UNL     1       1.962   7.516  19.992  0.00  0.00    +0.000 A 
ATOM     24  C   UNL     1       2.243   7.581  18.625  0.00  0.00    +0.000 A 
ATOM     25  C   UNL     1       1.851   8.725  17.924  0.00  0.00    +0.000 A 
ATOM     26  C   UNL     1       1.170   9.763  18.568  0.00  0.00    +0.000 A 
BRANCH  21  28
ATOM     27  C   UNL     1      -1.151  11.291  19.842  0.00  0.00    +0.000 C 
ATOM     28  C   UNL     1       0.117  10.863  20.614  0.00  0.00    +0.000 C 
ATOM     29  C   UNL     1       1.040  12.097  20.718  0.00  0.00    +0.000 C 
ATOM     30  C   UNL     1      -0.327  10.458  22.037  0.00  0.00    +0.000 C 
ENDBRANCH  21  28
ENDBRANCH  20  24
ENDBRANCH  19  20
ENDBRANCH   1  19
TORSDOF 8
ENDMDL
MODEL 6
REMARK VINA RESULT:      -7.8      6.249      9.914
REMARK  Name = 
REMARK  11 active torsions:
REMARK  status: ('A' for Active; 'I' for Inactive)
REMARK    1  A    between atoms: C_1  and  C_2
REMARK    2  A    between atoms: C_2  and  C_3
REMARK    3  A    between atoms: C_2  and  C_4
REMARK    4  A    between atoms: C_2  and  C_5
REMARK    5  A    between atoms: C_8  and  C_9
REMARK    6  A    between atoms: C_9  and  C_10
REMARK    7  A    between atoms: C_10  and  S_11
REMARK    8  A    between atoms: S_11  and  N_14
REMARK    9  A    between atoms: N_14  and  C_15
REMARK   10  A    between atoms: C_21  and  S_22
REMARK   11  A    between atoms: S_22  and  N_23
REMARK                            x       y       z     vdW  Elec       q    Type
REMARK                         _______ _______ _______ _____ _____    ______ ____
ROOT
ATOM      1  S   UNL     1       0.282  10.509  19.335  0.00  0.00    +0.000 S 
ATOM      2  O   UNL     1      -0.648   9.677  20.067  0.00  0.00    +0.000 OA
ATOM      3  O   UNL     1       1.374  11.189  19.996  0.00  0.00    +0.000 OA
ENDROOT
BRANCH   1   4
ATOM      4  N   UNL     1      -0.682  11.634  18.497  0.00  0.00    +0.000 N 
ATOM      5  H   UNL     1      -0.832  11.290  17.538  0.00  0.00    +0.000 HD
BRANCH   4   6
ATOM      6  C   UNL     1      -1.875  12.076  19.154  0.00  0.00    +0.000 A 
ATOM      7  C   UNL     1      -1.720  12.775  20.355  0.00  0.00    +0.000 A 
ATOM      8  C   UNL     1      -2.840  13.246  21.030  0.00  0.00    +0.000 A 
ATOM      9  F   UNL     1      -2.682  13.916  22.180  0.00  0.00    +0.000 F 
ATOM     10  C   UNL     1      -4.120  13.041  20.529  0.00  0.00    +0.000 A 
ATOM     11  C   UNL     1      -4.289  12.310  19.354  0.00  0.00    +0.000 A 
ATOM     12  C   UNL     1      -3.168  11.793  18.686  0.00  0.00    +0.000 A 
BRANCH  12  13
ATOM     13  S   UNL     1      -3.418  10.821  17.234  0.00  0.00    +0.000 S 
ATOM     14  O   UNL     1      -2.859   9.504  17.437  0.00  0.00    +0.000 OA
ATOM     15  O   UNL     1      -4.779  11.030  16.795  0.00  0.00    +0.000 OA
BRANCH  13  16
ATOM     16  N   UNL     1      -2.427  11.570  16.119  0.00  0.00    +0.000 NA
ATOM     17  H   UNL     1      -1.535  11.868  16.510  0.00  0.00    +0.000 HD
ATOM     18  H   UNL     1      -2.355  11.052  15.235  0.00  0.00    +0.000 HD
ENDBRANCH  13  16
ENDBRANCH  12  13
ENDBRANCH   4   6
ENDBRANCH   1   4
BRANCH   1  19
ATOM     19  C   UNL     1       0.941   9.589  17.968  0.00  0.00    +0.000 C 
BRANCH  19  20
ATOM     20  C   UNL     1       2.288   8.980  18.322  0.00  0.00    +0.000 C 
BRANCH  20  24
ATOM     21  C   UNL     1       2.133   4.812  19.597  0.00  0.00    +0.000 A 
ATOM     22  C   UNL     1       2.378   5.177  18.263  0.00  0.00    +0.000 A 
ATOM     23  C   UNL     1       2.418   6.518  17.866  0.00  0.00    +0.000 A 
ATOM     24  C   UNL     1       2.205   7.545  18.789  0.00  0.00    +0.000 A 
ATOM     25  C   UNL     1       1.977   7.196  20.123  0.00  0.00    +0.000 A 
ATOM     26  C   UNL     1       1.934   5.855  20.516  0.00  0.00    +0.000 A 
BRANCH  21  28
ATOM     27  C   UNL     1       3.352   2.553  19.701  0.00  0.00    +0.000 C 
ATOM     28  C   UNL     1       2.079   3.348  20.064  0.00  0.00    +0.000 C 
ATOM     29  C   UNL     1       0.878   2.633  19.408  0.00  0.00    +0.000 C 
ATOM     30  C   UNL     1       1.916   3.280  21.598  0.00  0.00    +0.000 C 
ENDBRANCH  21  28
ENDBRANCH  20  24
ENDBRANCH  19  20
ENDBRANCH   1  19
TORSDOF 8
ENDMDL
MODEL 7
REMARK VINA RESULT:      -7.7      2.563      3.000
REMARK  Name = 
REMARK  11 active torsions:
REMARK  status: ('A' for Active; 'I' for Inactive)
REMARK    1  A    between atoms: C_1  and  C_2
REMARK    2  A    between atoms: C_2  and  C_3
REMARK    3  A    between atoms: C_2  and  C_4
REMARK    4  A    between atoms: C_2  and  C_5
REMARK    5  A    between atoms: C_8  and  C_9
REMARK    6  A    between atoms: C_9  and  C_10
REMARK    7  A    between atoms: C_10  and  S_11
REMARK    8  A    between atoms: S_11  and  N_14
REMARK    9  A    between atoms: N_14  and  C_15
REMARK   10  A    between atoms: C_21  and  S_22
REMARK   11  A    between atoms: S_22  and  N_23
REMARK                            x       y       z     vdW  Elec       q    Type
REMARK                         _______ _______ _______ _____ _____    ______ ____
ROOT
ATOM      1  S   UNL     1       3.535   3.698  18.246  0.00  0.00    +0.000 S 
ATOM      2  O   UNL     1       3.693   3.247  19.611  0.00  0.00    +0.000 OA
ATOM      3  O   UNL     1       2.536   3.128  17.369  0.00  0.00    +0.000 OA
ENDROOT
BRANCH   1   4
ATOM      4  N   UNL     1       5.078   3.553  17.542  0.00  0.00    +0.000 N 
ATOM      5  H   UNL     1       4.965   3.344  16.540  0.00  0.00    +0.000 HD
BRANCH   4   6
ATOM      6  C   UNL     1       6.015   4.600  17.820  0.00  0.00    +0.000 A 
ATOM      7  C   UNL     1       6.499   4.691  19.128  0.00  0.00    +0.000 A 
ATOM      8  C   UNL     1       7.424   5.675  19.454  0.00  0.00    +0.000 A 
ATOM      9  F   UNL     1       7.885   5.755  20.710  0.00  0.00    +0.000 F 
ATOM     10  C   UNL     1       7.887   6.573  18.499  0.00  0.00    +0.000 A 
ATOM     11  C   UNL     1       7.380   6.517  17.202  0.00  0.00    +0.000 A 
ATOM     12  C   UNL     1       6.413   5.555  16.870  0.00  0.00    +0.000 A 
BRANCH  12  13
ATOM     13  S   UNL     1       5.746   5.547  15.236  0.00  0.00    +0.000 S 
ATOM     14  O   UNL     1       5.027   4.313  15.019  0.00  0.00    +0.000 OA
ATOM     15  O   UNL     1       5.157   6.844  14.997  0.00  0.00    +0.000 OA
BRANCH  13  16
ATOM     16  N   UNL     1       7.114   5.452  14.284  0.00  0.00    +0.000 NA
ATOM     17  H   UNL     1       7.167   6.186  13.581  0.00  0.00    +0.000 HD
ATOM     18  H   UNL     1       7.974   5.320  14.830  0.00  0.00    +0.000 HD
ENDBRANCH  13  16
ENDBRANCH  12  13
ENDBRANCH   4   6
ENDBRANCH   1   4
BRANCH   1  19
ATOM     19  C   UNL     1       3.354   5.463  18.229  0.00  0.00    +0.000 C 
BRANCH  19  20
ATOM     20  C   UNL     1       2.796   5.965  19.550  0.00  0.00    +0.000 C 
BRANCH  20  24
ATOM     21  C   UNL     1       1.013   9.942  19.413  0.00  0.00    +0.000 A 
ATOM     22  C   UNL     1       0.997   9.156  20.576  0.00  0.00    +0.000 A 
ATOM     23  C   UNL     1       1.567   7.878  20.605  0.00  0.00    +0.000 A 
ATOM     24  C   UNL     1       2.166   7.336  19.465  0.00  0.00    +0.000 A 
ATOM     25  C   UNL     1       2.203   8.115  18.305  0.00  0.00    +0.000 A 
ATOM     26  C   UNL     1       1.630   9.390  18.279  0.00  0.00    +0.000 A 
BRANCH  21  28
ATOM     27  C   UNL     1       0.034  11.912  20.741  0.00  0.00    +0.000 C 
ATOM     28  C   UNL     1       0.392  11.347  19.348  0.00  0.00    +0.000 C 
ATOM     29  C   UNL     1      -0.905  11.309  18.512  0.00  0.00    +0.000 C 
ATOM     30  C   UNL     1       1.375  12.339  18.688  0.00  0.00    +0.000 C 
ENDBRANCH  21  28
ENDBRANCH  20  24
ENDBRANCH  19  20
ENDBRANCH   1  19
TORSDOF 8
ENDMDL
MODEL 8
REMARK VINA RESULT:      -7.7      1.105      1.769
REMARK  Name = 
REMARK  11 active torsions:
REMARK  status: ('A' for Active; 'I' for Inactive)
REMARK    1  A    between atoms: C_1  and  C_2
REMARK    2  A    between atoms: C_2  and  C_3
REMARK    3  A    between atoms: C_2  and  C_4
REMARK    4  A    between atoms: C_2  and  C_5
REMARK    5  A    between atoms: C_8  and  C_9
REMARK    6  A    between atoms: C_9  and  C_10
REMARK    7  A    between atoms: C_10  and  S_11
REMARK    8  A    between atoms: S_11  and  N_14
REMARK    9  A    between atoms: N_14  and  C_15
REMARK   10  A    between atoms: C_21  and  S_22
REMARK   11  A    between atoms: S_22  and  N_23
REMARK                            x       y       z     vdW  Elec       q    Type
REMARK                         _______ _______ _______ _____ _____    ______ ____
ROOT
ATOM      1  S   UNL     1       3.713   3.252  18.697  0.00  0.00    +0.000 S 
ATOM      2  O   UNL     1       3.629   2.896  20.096  0.00  0.00    +0.000 OA
ATOM      3  O   UNL     1       3.094   2.443  17.670  0.00  0.00    +0.000 OA
ENDROOT
BRANCH   1   4
ATOM      4  N   UNL     1       5.375   3.427  18.376  0.00  0.00    +0.000 N 
ATOM      5  H   UNL     1       5.825   2.504  18.448  0.00  0.00    +0.000 HD
BRANCH   4   6
ATOM      6  C   UNL     1       5.730   4.161  17.198  0.00  0.00    +0.000 A 
ATOM      7  C   UNL     1       5.229   3.692  15.980  0.00  0.00    +0.000 A 
ATOM      8  C   UNL     1       5.525   4.373  14.804  0.00  0.00    +0.000 A 
ATOM      9  F   UNL     1       5.039   3.919  13.641  0.00  0.00    +0.000 F 
ATOM     10  C   UNL     1       6.308   5.521  14.815  0.00  0.00    +0.000 A 
ATOM     11  C   UNL     1       6.846   5.973  16.019  0.00  0.00    +0.000 A 
ATOM     12  C   UNL     1       6.591   5.271  17.207  0.00  0.00    +0.000 A 
BRANCH  12  13
ATOM     13  S   UNL     1       7.336   5.833  18.705  0.00  0.00    +0.000 S 
ATOM     14  O   UNL     1       8.003   7.092  18.464  0.00  0.00    +0.000 OA
ATOM     15  O   UNL     1       6.373   5.653  19.767  0.00  0.00    +0.000 OA
BRANCH  13  16
ATOM     16  N   UNL     1       8.549   4.714  18.953  0.00  0.00    +0.000 NA
ATOM     17  H   UNL     1       8.216   3.846  19.368  0.00  0.00    +0.000 HD
ATOM     18  H   UNL     1       9.155   4.592  18.133  0.00  0.00    +0.000 HD
ENDBRANCH  13  16
ENDBRANCH  12  13
ENDBRANCH   4   6
ENDBRANCH   1   4
BRANCH   1  19
ATOM     19  C   UNL     1       3.179   4.930  18.485  0.00  0.00    +0.000 C 
BRANCH  19  20
ATOM     20  C   UNL     1       2.927   5.595  19.829  0.00  0.00    +0.000 C 
BRANCH  20  24
ATOM     21  C   UNL     1       1.061   9.514  19.421  0.00  0.00    +0.000 A 
ATOM     22  C   UNL     1       1.745   8.899  18.361  0.00  0.00    +0.000 A 
ATOM     23  C   UNL     1       2.346   7.643  18.507  0.00  0.00    +0.000 A 
ATOM     24  C   UNL     1       2.292   6.961  19.725  0.00  0.00    +0.000 A 
ATOM     25  C   UNL     1       1.598   7.555  20.783  0.00  0.00    +0.000 A 
ATOM     26  C   UNL     1       1.002   8.811  20.636  0.00  0.00    +0.000 A 
BRANCH  21  28
ATOM     27  C   UNL     1       1.346  11.973  18.732  0.00  0.00    +0.000 C 
ATOM     28  C   UNL     1       0.394  10.894  19.294  0.00  0.00    +0.000 C 
ATOM     29  C   UNL     1      -0.089  11.373  20.680  0.00  0.00    +0.000 C 
ATOM     30  C   UNL     1      -0.824  10.817  18.347  0.00  0.00    +0.000 C 
ENDBRANCH  21  28
ENDBRANCH  20  24
ENDBRANCH  19  20
ENDBRANCH   1  19
TORSDOF 8
ENDMDL
MODEL 9
REMARK VINA RESULT:      -7.7      0.736      1.429
REMARK  Name = 
REMARK  11 active torsions:
REMARK  status: ('A' for Active; 'I' for Inactive)
REMARK    1  A    between atoms: C_1  and  C_2
REMARK    2  A    between atoms: C_2  and  C_3
REMARK    3  A    between atoms: C_2  and  C_4
REMARK    4  A    between atoms: C_2  and  C_5
REMARK    5  A    between atoms: C_8  and  C_9
REMARK    6  A    between atoms: C_9  and  C_10
REMARK    7  A    between atoms: C_10  and  S_11
REMARK    8  A    between atoms: S_11  and  N_14
REMARK    9  A    between atoms: N_14  and  C_15
REMARK   10  A    between atoms: C_21  and  S_22
REMARK   11  A    between atoms: S_22  and  N_23
REMARK                            x       y       z     vdW  Elec       q    Type
REMARK                         _______ _______ _______ _____ _____    ______ ____
ROOT
ATOM      1  S   UNL     1       3.324   3.199  18.561  0.00  0.00    +0.000 S 
ATOM      2  O   UNL     1       3.088   2.859  19.946  0.00  0.00    +0.000 OA
ATOM      3  O   UNL     1       2.814   2.383  17.481  0.00  0.00    +0.000 OA
ENDROOT
BRANCH   1   4
ATOM      4  N   UNL     1       5.011   3.365  18.417  0.00  0.00    +0.000 N 
ATOM      5  H   UNL     1       5.449   2.450  18.592  0.00  0.00    +0.000 HD
BRANCH   4   6
ATOM      6  C   UNL     1       5.497   4.032  17.247  0.00  0.00    +0.000 A 
ATOM      7  C   UNL     1       4.914   3.682  16.025  0.00  0.00    +0.000 A 
ATOM      8  C   UNL     1       5.331   4.308  14.857  0.00  0.00    +0.000 A 
ATOM      9  F   UNL     1       4.765   3.969  13.690  0.00  0.00    +0.000 F 
ATOM     10  C   UNL     1       6.318   5.286  14.877  0.00  0.00    +0.000 A 
ATOM     11  C   UNL     1       6.934   5.614  16.084  0.00  0.00    +0.000 A 
ATOM     12  C   UNL     1       6.553   4.958  17.264  0.00  0.00    +0.000 A 
BRANCH  12  13
ATOM     13  S   UNL     1       7.394   5.351  18.766  0.00  0.00    +0.000 S 
ATOM     14  O   UNL     1       6.433   5.444  19.842  0.00  0.00    +0.000 OA
ATOM     15  O   UNL     1       8.570   4.515  18.841  0.00  0.00    +0.000 OA
BRANCH  13  16
ATOM     16  N   UNL     1       7.922   6.910  18.491  0.00  0.00    +0.000 NA
ATOM     17  H   UNL     1       7.918   7.168  17.506  0.00  0.00    +0.000 HD
ATOM     18  H   UNL     1       7.484   7.598  19.115  0.00  0.00    +0.000 HD
ENDBRANCH  13  16
ENDBRANCH  12  13
ENDBRANCH   4   6
ENDBRANCH   1   4
BRANCH   1  19
ATOM     19  C   UNL     1       2.824   4.878  18.276  0.00  0.00    +0.000 C 
BRANCH  19  20
ATOM     20  C   UNL     1       3.099   5.741  19.496  0.00  0.00    +0.000 C 
BRANCH  20  24
ATOM     21  C   UNL     1       0.996   9.558  19.336  0.00  0.00    +0.000 A 
ATOM     22  C   UNL     1       1.672   9.030  18.224  0.00  0.00    +0.000 A 
ATOM     23  C   UNL     1       2.349   7.807  18.291  0.00  0.00    +0.000 A 
ATOM     24  C   UNL     1       2.382   7.071  19.478  0.00  0.00    +0.000 A 
ATOM     25  C   UNL     1       1.699   7.578  20.587  0.00  0.00    +0.000 A 
ATOM     26  C   UNL     1       1.026   8.801  20.518  0.00  0.00    +0.000 A 
BRANCH  21  28
ATOM     27  C   UNL     1      -0.993  10.870  18.375  0.00  0.00    +0.000 C 
ATOM     28  C   UNL     1       0.247  10.900  19.295  0.00  0.00    +0.000 C 
ATOM     29  C   UNL     1       1.187  12.009  18.777  0.00  0.00    +0.000 C 
ATOM     30  C   UNL     1      -0.239  11.286  20.709  0.00  0.00    +0.000 C 
ENDBRANCH  21  28
ENDBRANCH  20  24
ENDBRANCH  19  20
ENDBRANCH   1  19
TORSDOF 8
ENDMDL
