MODEL 1
REMARK VINA RESULT:      -8.6      0.000      0.000
REMARK  Name = 
REMARK  4 active torsions:
REMARK  status: ('A' for Active; 'I' for Inactive)
REMARK    1  A    between atoms: C_2  and  C_3
REMARK    2  A    between atoms: C_3  and  C_4
REMARK    3  A    between atoms: C_4  and  C_5
REMARK    4  A    between atoms: C_5  and  N_6
REMARK                            x       y       z     vdW  Elec       q    Type
REMARK                         _______ _______ _______ _____ _____    ______ ____
ROOT
ATOM      1  O   UNL     1       3.330   7.227  17.598  0.00  0.00    +0.000 OA
ATOM      2  C   UNL     1       2.647   7.516  18.585  0.00  0.00    +0.000 C 
ATOM      3  N   UNL     1       1.862   8.638  18.518  0.00  0.00    +0.000 N 
ATOM      4  C   UNL     1       1.104   9.142  19.543  0.00  0.00    +0.000 A 
ATOM      5  N   UNL     1       0.950   8.652  20.748  0.00  0.00    +0.000 NA
ATOM      6  C   UNL     1       0.181   9.546  21.436  0.00  0.00    +0.000 A 
ATOM      7  C   UNL     1      -0.230   9.519  22.773  0.00  0.00    +0.000 A 
ATOM      8  C   UNL     1      -1.035  10.561  23.242  0.00  0.00    +0.000 A 
ATOM      9  C   UNL     1      -1.416  11.604  22.393  0.00  0.00    +0.000 A 
ATOM     10  C   UNL     1      -1.003  11.650  21.054  0.00  0.00    +0.000 A 
ATOM     11  C   UNL     1      -0.199  10.598  20.614  0.00  0.00    +0.000 A 
ATOM     12  N   UNL     1       0.394  10.311  19.408  0.00  0.00    +0.000 N 
ATOM     13  H   UNL     1       1.931   9.137  17.643  0.00  0.00    +0.000 HD
ATOM     14  H   UNL     1       0.339  10.875  18.575  0.00  0.00    +0.000 HD
ENDROOT
BRANCH   2  15
ATOM     15  C   UNL     1       2.610   6.634  19.819  0.00  0.00    +0.000 C 
BRANCH  15  16
ATOM     16  C   UNL     1       2.056   5.239  19.567  0.00  0.00    +0.000 C 
BRANCH  16  17
ATOM     17  C   UNL     1       3.173   4.212  19.767  0.00  0.00    +0.000 C 
BRANCH  17  18
ATOM     18  N   UNL     1       4.107   4.227  18.667  0.00  0.00    +0.000 N 
ATOM     19  C   UNL     1       3.779   3.880  17.385  0.00  0.00    +0.000 C 
ATOM     20  O   UNL     1       2.723   3.473  16.941  0.00  0.00    +0.000 OA
ATOM     21  C   UNL     1       4.977   4.104  16.581  0.00  0.00    +0.000 A 
ATOM     22  C   UNL     1       5.191   3.918  15.231  0.00  0.00    +0.000 A 
ATOM     23  C   UNL     1       6.458   4.248  14.738  0.00  0.00    +0.000 A 
ATOM     24  C   UNL     1       7.461   4.747  15.595  0.00  0.00    +0.000 A 
ATOM     25  C   UNL     1       7.219   4.923  16.961  0.00  0.00    +0.000 A 
ATOM     26  C   UNL     1       5.962   4.591  17.422  0.00  0.00    +0.000 A 
ATOM     27  C   UNL     1       5.396   4.676  18.765  0.00  0.00    +0.000 C 
ATOM     28  O   UNL     1       5.995   5.090  19.737  0.00  0.00    +0.000 OA
ENDBRANCH  17  18
ENDBRANCH  16  17
ENDBRANCH  15  16
ENDBRANCH   2  15
TORSDOF 4
ENDMDL
MODEL 2
REMARK VINA RESULT:      -8.4      0.250      1.733
REMARK  Name = 
REMARK  4 active torsions:
REMARK  status: ('A' for Active; 'I' for Inactive)
REMARK    1  A    between atoms: C_2  and  C_3
REMARK    2  A    between atoms: C_3  and  C_4
REMARK    3  A    between atoms: C_4  and  C_5
REMARK    4  A    between atoms: C_5  and  N_6
REMARK                            x       y       z     vdW  Elec       q    Type
REMARK                         _______ _______ _______ _____ _____    ______ ____
ROOT
ATOM      1  O   UNL     1       3.168   7.457  17.585  0.00  0.00    +0.000 OA
ATOM      2  C   UNL     1       2.490   7.749  18.574  0.00  0.00    +0.000 C 
ATOM      3  N   UNL     1       1.688   8.858  18.501  0.00  0.00    +0.000 N 
ATOM      4  C   UNL     1       0.932   9.364  19.526  0.00  0.00    +0.000 A 
ATOM      5  N   UNL     1       0.798   8.888  20.739  0.00  0.00    +0.000 NA
ATOM      6  C   UNL     1       0.022   9.779  21.423  0.00  0.00    +0.000 A 
ATOM      7  C   UNL     1      -0.376   9.762  22.765  0.00  0.00    +0.000 A 
ATOM      8  C   UNL     1      -1.192  10.798  23.228  0.00  0.00    +0.000 A 
ATOM      9  C   UNL     1      -1.597  11.825  22.370  0.00  0.00    +0.000 A 
ATOM     10  C   UNL     1      -1.198  11.859  21.026  0.00  0.00    +0.000 A 
ATOM     11  C   UNL     1      -0.382  10.814  20.592  0.00  0.00    +0.000 A 
ATOM     12  N   UNL     1       0.203  10.521  19.384  0.00  0.00    +0.000 N 
ATOM     13  H   UNL     1       1.741   9.347  17.619  0.00  0.00    +0.000 HD
ATOM     14  H   UNL     1       0.132  11.073  18.544  0.00  0.00    +0.000 HD
ENDROOT
BRANCH   2  15
ATOM     15  C   UNL     1       2.478   6.882  19.820  0.00  0.00    +0.000 C 
BRANCH  15  16
ATOM     16  C   UNL     1       1.970   5.467  19.585  0.00  0.00    +0.000 C 
BRANCH  16  17
ATOM     17  C   UNL     1       3.129   4.482  19.757  0.00  0.00    +0.000 C 
BRANCH  17  18
ATOM     18  N   UNL     1       4.032   4.530  18.632  0.00  0.00    +0.000 N 
ATOM     19  C   UNL     1       5.323   4.972  18.711  0.00  0.00    +0.000 C 
ATOM     20  O   UNL     1       5.928   5.425  19.664  0.00  0.00    +0.000 OA
ATOM     21  C   UNL     1       5.902   4.787  17.384  0.00  0.00    +0.000 A 
ATOM     22  C   UNL     1       7.171   5.065  16.918  0.00  0.00    +0.000 A 
ATOM     23  C   UNL     1       7.439   4.751  15.582  0.00  0.00    +0.000 A 
ATOM     24  C   UNL     1       6.447   4.177  14.759  0.00  0.00    +0.000 A 
ATOM     25  C   UNL     1       5.168   3.909  15.255  0.00  0.00    +0.000 A 
ATOM     26  C   UNL     1       4.928   4.227  16.576  0.00  0.00    +0.000 A 
ATOM     27  C   UNL     1       3.726   4.056  17.386  0.00  0.00    +0.000 C 
ATOM     28  O   UNL     1       2.691   3.565  16.982  0.00  0.00    +0.000 OA
ENDBRANCH  17  18
ENDBRANCH  16  17
ENDBRANCH  15  16
ENDBRANCH   2  15
TORSDOF 4
ENDMDL
MODEL 3
REMARK VINA RESULT:      -8.3      2.455      8.186
REMARK  Name = 
REMARK  4 active torsions:
REMARK  status: ('A' for Active; 'I' for Inactive)
REMARK    1  A    between atoms: C_2  and  C_3
REMARK    2  A    between atoms: C_3  and  C_4
REMARK    3  A    between atoms: C_4  and  C_5
REMARK    4  A    between atoms: C_5  and  N_6
REMARK                            x       y       z     vdW  Elec       q    Type
REMARK                         _______ _______ _______ _____ _____    ______ ____
ROOT
ATOM      1  O   UNL     1       6.624   5.311  19.761  0.00  0.00    +0.000 OA
ATOM      2  C   UNL     1       6.457   4.817  18.642  0.00  0.00    +0.000 C 
ATOM      3  N   UNL     1       7.174   5.335  17.595  0.00  0.00    +0.000 N 
ATOM      4  C   UNL     1       7.055   4.956  16.283  0.00  0.00    +0.000 A 
ATOM      5  N   UNL     1       6.280   4.027  15.780  0.00  0.00    +0.000 NA
ATOM      6  C   UNL     1       6.441   4.079  14.425  0.00  0.00    +0.000 A 
ATOM      7  C   UNL     1       5.804   3.333  13.427  0.00  0.00    +0.000 A 
ATOM      8  C   UNL     1       6.157   3.568  12.095  0.00  0.00    +0.000 A 
ATOM      9  C   UNL     1       7.122   4.528  11.772  0.00  0.00    +0.000 A 
ATOM     10  C   UNL     1       7.760   5.290  12.761  0.00  0.00    +0.000 A 
ATOM     11  C   UNL     1       7.387   5.035  14.081  0.00  0.00    +0.000 A 
ATOM     12  N   UNL     1       7.771   5.573  15.285  0.00  0.00    +0.000 N 
ATOM     13  H   UNL     1       7.782   6.100  17.850  0.00  0.00    +0.000 HD
ATOM     14  H   UNL     1       8.444   6.312  15.413  0.00  0.00    +0.000 HD
ENDROOT
BRANCH   2  15
ATOM     15  C   UNL     1       5.540   3.628  18.423  0.00  0.00    +0.000 C 
BRANCH  15  16
ATOM     16  C   UNL     1       4.613   3.335  19.594  0.00  0.00    +0.000 C 
BRANCH  16  17
ATOM     17  C   UNL     1       3.164   3.567  19.157  0.00  0.00    +0.000 C 
BRANCH  17  18
ATOM     18  N   UNL     1       2.790   4.955  19.290  0.00  0.00    +0.000 N 
ATOM     19  C   UNL     1       2.908   5.874  18.285  0.00  0.00    +0.000 C 
ATOM     20  O   UNL     1       3.359   5.740  17.163  0.00  0.00    +0.000 OA
ATOM     21  C   UNL     1       2.355   7.122  18.804  0.00  0.00    +0.000 A 
ATOM     22  C   UNL     1       2.226   8.357  18.204  0.00  0.00    +0.000 A 
ATOM     23  C   UNL     1       1.626   9.370  18.958  0.00  0.00    +0.000 A 
ATOM     24  C   UNL     1       1.178   9.125  20.274  0.00  0.00    +0.000 A 
ATOM     25  C   UNL     1       1.324   7.864  20.860  0.00  0.00    +0.000 A 
ATOM     26  C   UNL     1       1.918   6.882  20.095  0.00  0.00    +0.000 A 
ATOM     27  C   UNL     1       2.194   5.482  20.403  0.00  0.00    +0.000 C 
ATOM     28  O   UNL     1       1.909   4.942  21.453  0.00  0.00    +0.000 OA
ENDBRANCH  17  18
ENDBRANCH  16  17
ENDBRANCH  15  16
ENDBRANCH   2  15
TORSDOF 4
ENDMDL
MODEL 4
REMARK VINA RESULT:      -8.2      4.725      7.089
REMARK  Name = 
REMARK  4 active torsions:
REMARK  status: ('A' for Active; 'I' for Inactive)
REMARK    1  A    between atoms: C_2  and  C_3
REMARK    2  A    between atoms: C_3  and  C_4
REMARK    3  A    between atoms: C_4  and  C_5
REMARK    4  A    between atoms: C_5  and  N_6
REMARK                            x       y       z     vdW  Elec       q    Type
REMARK                         _______ _______ _______ _____ _____    ______ ____
ROOT
ATOM      1  O   UNL     1       7.724   5.658  18.841  0.00  0.00    +0.000 OA
ATOM      2  C   UNL     1       7.773   6.825  18.444  0.00  0.00    +0.000 C 
ATOM      3  N   UNL     1       8.631   7.687  19.078  0.00  0.00    +0.000 N 
ATOM      4  C   UNL     1       8.755   9.026  18.814  0.00  0.00    +0.000 A 
ATOM      5  N   UNL     1       8.124   9.730  17.907  0.00  0.00    +0.000 NA
ATOM      6  C   UNL     1       8.509  11.028  18.086  0.00  0.00    +0.000 A 
ATOM      7  C   UNL     1       8.088  12.179  17.410  0.00  0.00    +0.000 A 
ATOM      8  C   UNL     1       8.649  13.406  17.776  0.00  0.00    +0.000 A 
ATOM      9  C   UNL     1       9.605  13.477  18.795  0.00  0.00    +0.000 A 
ATOM     10  C   UNL     1      10.027  12.334  19.487  0.00  0.00    +0.000 A 
ATOM     11  C   UNL     1       9.449  11.123  19.102  0.00  0.00    +0.000 A 
ATOM     12  N   UNL     1       9.597   9.831  19.543  0.00  0.00    +0.000 N 
ATOM     13  H   UNL     1       9.147   7.268  19.838  0.00  0.00    +0.000 HD
ATOM     14  H   UNL     1      10.201   9.528  20.291  0.00  0.00    +0.000 HD
ENDROOT
BRANCH   2  15
ATOM     15  C   UNL     1       6.968   7.297  17.247  0.00  0.00    +0.000 C 
BRANCH  15  16
ATOM     16  C   UNL     1       6.043   6.237  16.666  0.00  0.00    +0.000 C 
BRANCH  16  17
ATOM     17  C   UNL     1       4.591   6.693  16.830  0.00  0.00    +0.000 C 
BRANCH  17  18
ATOM     18  N   UNL     1       3.810   5.715  17.548  0.00  0.00    +0.000 N 
ATOM     19  C   UNL     1       2.989   6.019  18.598  0.00  0.00    +0.000 C 
ATOM     20  O   UNL     1       2.789   7.090  19.138  0.00  0.00    +0.000 OA
ATOM     21  C   UNL     1       2.337   4.771  18.983  0.00  0.00    +0.000 A 
ATOM     22  C   UNL     1       1.414   4.516  19.977  0.00  0.00    +0.000 A 
ATOM     23  C   UNL     1       0.947   3.203  20.089  0.00  0.00    +0.000 A 
ATOM     24  C   UNL     1       1.409   2.193  19.218  0.00  0.00    +0.000 A 
ATOM     25  C   UNL     1       2.346   2.477  18.221  0.00  0.00    +0.000 A 
ATOM     26  C   UNL     1       2.790   3.780  18.130  0.00  0.00    +0.000 A 
ATOM     27  C   UNL     1       3.735   4.393  17.202  0.00  0.00    +0.000 C 
ATOM     28  O   UNL     1       4.300   3.799  16.305  0.00  0.00    +0.000 OA
ENDBRANCH  17  18
ENDBRANCH  16  17
ENDBRANCH  15  16
ENDBRANCH   2  15
TORSDOF 4
ENDMDL
MODEL 5
REMARK VINA RESULT:      -8.1      2.002      8.506
REMARK  Name = 
REMARK  4 active torsions:
REMARK  status: ('A' for Active; 'I' for Inactive)
REMARK    1  A    between atoms: C_2  and  C_3
REMARK    2  A    between atoms: C_3  and  C_4
REMARK    3  A    between atoms: C_4  and  C_5
REMARK    4  A    between atoms: C_5  and  N_6
REMARK                            x       y       z     vdW  Elec       q    Type
REMARK                         _______ _______ _______ _____ _____    ______ ____
ROOT
ATOM      1  O   UNL     1       5.896   5.368  19.791  0.00  0.00    +0.000 OA
ATOM      2  C   UNL     1       5.760   4.904  18.655  0.00  0.00    +0.000 C 
ATOM      3  N   UNL     1       6.687   5.243  17.705  0.00  0.00    +0.000 N 
ATOM      4  C   UNL     1       6.645   4.879  16.384  0.00  0.00    +0.000 A 
ATOM      5  N   UNL     1       5.755   4.128  15.783  0.00  0.00    +0.000 NA
ATOM      6  C   UNL     1       6.080   4.125  14.457  0.00  0.00    +0.000 A 
ATOM      7  C   UNL     1       5.421   3.517  13.383  0.00  0.00    +0.000 A 
ATOM      8  C   UNL     1       5.968   3.653  12.105  0.00  0.00    +0.000 A 
ATOM      9  C   UNL     1       7.145   4.383  11.907  0.00  0.00    +0.000 A 
ATOM     10  C   UNL     1       7.810   5.006  12.972  0.00  0.00    +0.000 A 
ATOM     11  C   UNL     1       7.240   4.855  14.237  0.00  0.00    +0.000 A 
ATOM     12  N   UNL     1       7.587   5.317  15.484  0.00  0.00    +0.000 N 
ATOM     13  H   UNL     1       7.409   5.866  18.037  0.00  0.00    +0.000 HD
ATOM     14  H   UNL     1       8.381   5.898  15.697  0.00  0.00    +0.000 HD
ENDROOT
BRANCH   2  15
ATOM     15  C   UNL     1       4.644   3.933  18.317  0.00  0.00    +0.000 C 
BRANCH  15  16
ATOM     16  C   UNL     1       3.249   4.534  18.412  0.00  0.00    +0.000 C 
BRANCH  16  17
ATOM     17  C   UNL     1       3.259   5.928  17.780  0.00  0.00    +0.000 C 
BRANCH  17  18
ATOM     18  N   UNL     1       2.620   6.899  18.636  0.00  0.00    +0.000 N 
ATOM     19  C   UNL     1       2.255   8.151  18.226  0.00  0.00    +0.000 C 
ATOM     20  O   UNL     1       2.417   8.690  17.147  0.00  0.00    +0.000 OA
ATOM     21  C   UNL     1       1.581   8.774  19.362  0.00  0.00    +0.000 A 
ATOM     22  C   UNL     1       1.016  10.027  19.485  0.00  0.00    +0.000 A 
ATOM     23  C   UNL     1       0.414  10.333  20.710  0.00  0.00    +0.000 A 
ATOM     24  C   UNL     1       0.393   9.393  21.762  0.00  0.00    +0.000 A 
ATOM     25  C   UNL     1       0.976   8.132  21.612  0.00  0.00    +0.000 A 
ATOM     26  C   UNL     1       1.563   7.854  20.395  0.00  0.00    +0.000 A 
ATOM     27  C   UNL     1       2.227   6.643  19.921  0.00  0.00    +0.000 C 
ATOM     28  O   UNL     1       2.359   5.631  20.580  0.00  0.00    +0.000 OA
ENDBRANCH  17  18
ENDBRANCH  16  17
ENDBRANCH  15  16
ENDBRANCH   2  15
TORSDOF 4
ENDMDL
MODEL 6
REMARK VINA RESULT:      -8.1      1.968      8.587
REMARK  Name = 
REMARK  4 active torsions:
REMARK  status: ('A' for Active; 'I' for Inactive)
REMARK    1  A    between atoms: C_2  and  C_3
REMARK    2  A    between atoms: C_3  and  C_4
REMARK    3  A    between atoms: C_4  and  C_5
REMARK    4  A    between atoms: C_5  and  N_6
REMARK                            x       y       z     vdW  Elec       q    Type
REMARK                         _______ _______ _______ _____ _____    ______ ____
ROOT
ATOM      1  O   UNL     1       5.697   5.300  19.764  0.00  0.00    +0.000 OA
ATOM      2  C   UNL     1       5.574   4.868  18.614  0.00  0.00    +0.000 C 
ATOM      3  N   UNL     1       6.563   5.152  17.710  0.00  0.00    +0.000 N 
ATOM      4  C   UNL     1       6.550   4.815  16.381  0.00  0.00    +0.000 A 
ATOM      5  N   UNL     1       5.632   4.145  15.729  0.00  0.00    +0.000 NA
ATOM      6  C   UNL     1       6.012   4.140  14.418  0.00  0.00    +0.000 A 
ATOM      7  C   UNL     1       5.355   3.602  13.305  0.00  0.00    +0.000 A 
ATOM      8  C   UNL     1       5.965   3.719  12.053  0.00  0.00    +0.000 A 
ATOM      9  C   UNL     1       7.200   4.360  11.919  0.00  0.00    +0.000 A 
ATOM     10  C   UNL     1       7.865   4.912  13.023  0.00  0.00    +0.000 A 
ATOM     11  C   UNL     1       7.232   4.783  14.260  0.00  0.00    +0.000 A 
ATOM     12  N   UNL     1       7.559   5.195  15.529  0.00  0.00    +0.000 N 
ATOM     13  H   UNL     1       7.316   5.712  18.085  0.00  0.00    +0.000 HD
ATOM     14  H   UNL     1       8.386   5.711  15.787  0.00  0.00    +0.000 HD
ENDROOT
BRANCH   2  15
ATOM     15  C   UNL     1       4.403   3.990  18.211  0.00  0.00    +0.000 C 
BRANCH  15  16
ATOM     16  C   UNL     1       3.089   4.743  18.053  0.00  0.00    +0.000 C 
BRANCH  16  17
ATOM     17  C   UNL     1       3.387   6.217  17.770  0.00  0.00    +0.000 C 
BRANCH  17  18
ATOM     18  N   UNL     1       2.580   7.085  18.594  0.00  0.00    +0.000 N 
ATOM     19  C   UNL     1       2.239   6.805  19.888  0.00  0.00    +0.000 C 
ATOM     20  O   UNL     1       2.487   5.820  20.557  0.00  0.00    +0.000 OA
ATOM     21  C   UNL     1       1.492   7.961  20.374  0.00  0.00    +0.000 A 
ATOM     22  C   UNL     1       0.922   8.200  21.608  0.00  0.00    +0.000 A 
ATOM     23  C   UNL     1       0.281   9.430  21.784  0.00  0.00    +0.000 A 
ATOM     24  C   UNL     1       0.226  10.375  20.737  0.00  0.00    +0.000 A 
ATOM     25  C   UNL     1       0.808  10.106  19.495  0.00  0.00    +0.000 A 
ATOM     26  C   UNL     1       1.436   8.887  19.347  0.00  0.00    +0.000 A 
ATOM     27  C   UNL     1       2.144   8.321  18.202  0.00  0.00    +0.000 C 
ATOM     28  O   UNL     1       2.300   8.893  17.142  0.00  0.00    +0.000 OA
ENDBRANCH  17  18
ENDBRANCH  16  17
ENDBRANCH  15  16
ENDBRANCH   2  15
TORSDOF 4
ENDMDL
MODEL 7
REMARK VINA RESULT:      -8.0      4.619      6.911
REMARK  Name = 
REMARK  4 active torsions:
REMARK  status: ('A' for Active; 'I' for Inactive)
REMARK    1  A    between atoms: C_2  and  C_3
REMARK    2  A    between atoms: C_3  and  C_4
REMARK    3  A    between atoms: C_4  and  C_5
REMARK    4  A    between atoms: C_5  and  N_6
REMARK                            x       y       z     vdW  Elec       q    Type
REMARK                         _______ _______ _______ _____ _____    ______ ____
ROOT
ATOM      1  O   UNL     1       7.782   5.391  18.832  0.00  0.00    +0.000 OA
ATOM      2  C   UNL     1       7.812   6.554  18.420  0.00  0.00    +0.000 C 
ATOM      3  N   UNL     1       8.603   7.454  19.086  0.00  0.00    +0.000 N 
ATOM      4  C   UNL     1       8.694   8.793  18.809  0.00  0.00    +0.000 A 
ATOM      5  N   UNL     1       8.088   9.462  17.860  0.00  0.00    +0.000 NA
ATOM      6  C   UNL     1       8.417  10.775  18.039  0.00  0.00    +0.000 A 
ATOM      7  C   UNL     1       7.993  11.902  17.325  0.00  0.00    +0.000 A 
ATOM      8  C   UNL     1       8.489  13.153  17.702  0.00  0.00    +0.000 A 
ATOM      9  C   UNL     1       9.386  13.272  18.768  0.00  0.00    +0.000 A 
ATOM     10  C   UNL     1       9.811  12.153  19.499  0.00  0.00    +0.000 A 
ATOM     11  C   UNL     1       9.297  10.918  19.102  0.00  0.00    +0.000 A 
ATOM     12  N   UNL     1       9.467   9.637  19.570  0.00  0.00    +0.000 N 
ATOM     13  H   UNL     1       9.092   7.064  19.879  0.00  0.00    +0.000 HD
ATOM     14  H   UNL     1      10.040   9.367  20.353  0.00  0.00    +0.000 HD
ENDROOT
BRANCH   2  15
ATOM     15  C   UNL     1       7.055   6.981  17.176  0.00  0.00    +0.000 C 
BRANCH  15  16
ATOM     16  C   UNL     1       5.573   7.237  17.409  0.00  0.00    +0.000 C 
BRANCH  16  17
ATOM     17  C   UNL     1       4.758   6.407  16.414  0.00  0.00    +0.000 C 
BRANCH  17  18
ATOM     18  N   UNL     1       3.954   5.417  17.088  0.00  0.00    +0.000 N 
ATOM     19  C   UNL     1       4.231   4.078  17.082  0.00  0.00    +0.000 C 
ATOM     20  O   UNL     1       5.123   3.476  16.515  0.00  0.00    +0.000 OA
ATOM     21  C   UNL     1       3.227   3.448  17.934  0.00  0.00    +0.000 A 
ATOM     22  C   UNL     1       3.051   2.122  18.272  0.00  0.00    +0.000 A 
ATOM     23  C   UNL     1       1.996   1.823  19.142  0.00  0.00    +0.000 A 
ATOM     24  C   UNL     1       1.159   2.843  19.641  0.00  0.00    +0.000 A 
ATOM     25  C   UNL     1       1.357   4.178  19.280  0.00  0.00    +0.000 A 
ATOM     26  C   UNL     1       2.404   4.447  18.423  0.00  0.00    +0.000 A 
ATOM     27  C   UNL     1       2.879   5.716  17.880  0.00  0.00    +0.000 C 
ATOM     28  O   UNL     1       2.387   6.798  18.134  0.00  0.00    +0.000 OA
ENDBRANCH  17  18
ENDBRANCH  16  17
ENDBRANCH  15  16
ENDBRANCH   2  15
TORSDOF 4
ENDMDL
MODEL 8
REMARK VINA RESULT:      -7.9      1.978      7.508
REMARK  Name = 
REMARK  4 active torsions:
REMARK  status: ('A' for Active; 'I' for Inactive)
REMARK    1  A    between atoms: C_2  and  C_3
REMARK    2  A    between atoms: C_3  and  C_4
REMARK    3  A    between atoms: C_4  and  C_5
REMARK    4  A    between atoms: C_5  and  N_6
REMARK                            x       y       z     vdW  Elec       q    Type
REMARK                         _______ _______ _______ _____ _____    ______ ____
ROOT
ATOM      1  O   UNL     1       0.187   2.147  18.803  0.00  0.00    +0.000 OA
ATOM      2  C   UNL     1       1.255   2.756  18.912  0.00  0.00    +0.000 C 
ATOM      3  N   UNL     1       2.054   2.861  17.803  0.00  0.00    +0.000 N 
ATOM      4  C   UNL     1       3.298   3.436  17.768  0.00  0.00    +0.000 A 
ATOM      5  N   UNL     1       3.946   4.015  18.748  0.00  0.00    +0.000 NA
ATOM      6  C   UNL     1       5.175   4.349  18.258  0.00  0.00    +0.000 A 
ATOM      7  C   UNL     1       6.261   4.943  18.913  0.00  0.00    +0.000 A 
ATOM      8  C   UNL     1       7.422   5.196  18.177  0.00  0.00    +0.000 A 
ATOM      9  C   UNL     1       7.494   4.861  16.821  0.00  0.00    +0.000 A 
ATOM     10  C   UNL     1       6.419   4.256  16.156  0.00  0.00    +0.000 A 
ATOM     11  C   UNL     1       5.273   4.013  16.915  0.00  0.00    +0.000 A 
ATOM     12  N   UNL     1       4.058   3.442  16.623  0.00  0.00    +0.000 N 
ATOM     13  H   UNL     1       1.680   2.406  16.983  0.00  0.00    +0.000 HD
ATOM     14  H   UNL     1       3.782   3.068  15.729  0.00  0.00    +0.000 HD
ENDROOT
BRANCH   2  15
ATOM     15  C   UNL     1       1.660   3.435  20.208  0.00  0.00    +0.000 C 
BRANCH  15  16
ATOM     16  C   UNL     1       0.999   4.787  20.433  0.00  0.00    +0.000 C 
BRANCH  16  17
ATOM     17  C   UNL     1       2.064   5.804  20.848  0.00  0.00    +0.000 C 
BRANCH  17  18
ATOM     18  N   UNL     1       1.784   7.112  20.307  0.00  0.00    +0.000 N 
ATOM     19  C   UNL     1       1.173   8.113  21.011  0.00  0.00    +0.000 C 
ATOM     20  O   UNL     1       0.730   8.102  22.143  0.00  0.00    +0.000 OA
ATOM     21  C   UNL     1       1.150   9.277  20.131  0.00  0.00    +0.000 A 
ATOM     22  C   UNL     1       0.653  10.546  20.346  0.00  0.00    +0.000 A 
ATOM     23  C   UNL     1       0.799  11.470  19.306  0.00  0.00    +0.000 A 
ATOM     24  C   UNL     1       1.428  11.105  18.096  0.00  0.00    +0.000 A 
ATOM     25  C   UNL     1       1.920   9.811  17.903  0.00  0.00    +0.000 A 
ATOM     26  C   UNL     1       1.764   8.919  18.944  0.00  0.00    +0.000 A 
ATOM     27  C   UNL     1       2.178   7.524  19.063  0.00  0.00    +0.000 C 
ATOM     28  O   UNL     1       2.771   6.909  18.200  0.00  0.00    +0.000 OA
ENDBRANCH  17  18
ENDBRANCH  16  17
ENDBRANCH  15  16
ENDBRANCH   2  15
TORSDOF 4
ENDMDL
MODEL 9
REMARK VINA RESULT:      -7.9      1.958      7.718
REMARK  Name = 
REMARK  4 active torsions:
REMARK  status: ('A' for Active; 'I' for Inactive)
REMARK    1  A    between atoms: C_2  and  C_3
REMARK    2  A    between atoms: C_3  and  C_4
REMARK    3  A    between atoms: C_4  and  C_5
REMARK    4  A    between atoms: C_5  and  N_6
REMARK                            x       y       z     vdW  Elec       q    Type
REMARK                         _______ _______ _______ _____ _____    ______ ____
ROOT
ATOM      1  O   UNL     1       2.536   2.726  21.972  0.00  0.00    +0.000 OA
ATOM      2  C   UNL     1       2.793   3.156  20.845  0.00  0.00    +0.000 C 
ATOM      3  N   UNL     1       4.096   3.117  20.422  0.00  0.00    +0.000 N 
ATOM      4  C   UNL     1       4.565   3.618  19.235  0.00  0.00    +0.000 A 
ATOM      5  N   UNL     1       3.880   4.190  18.276  0.00  0.00    +0.000 NA
ATOM      6  C   UNL     1       4.788   4.604  17.344  0.00  0.00    +0.000 A 
ATOM      7  C   UNL     1       4.579   5.310  16.154  0.00  0.00    +0.000 A 
ATOM      8  C   UNL     1       5.687   5.608  15.355  0.00  0.00    +0.000 A 
ATOM      9  C   UNL     1       6.971   5.210  15.740  0.00  0.00    +0.000 A 
ATOM     10  C   UNL     1       7.196   4.511  16.934  0.00  0.00    +0.000 A 
ATOM     11  C   UNL     1       6.072   4.229  17.713  0.00  0.00    +0.000 A 
ATOM     12  N   UNL     1       5.902   3.592  18.918  0.00  0.00    +0.000 N 
ATOM     13  H   UNL     1       4.739   2.735  21.101  0.00  0.00    +0.000 HD
ATOM     14  H   UNL     1       6.635   3.196  19.485  0.00  0.00    +0.000 HD
ENDROOT
BRANCH   2  15
ATOM     15  C   UNL     1       1.705   3.655  19.911  0.00  0.00    +0.000 C 
BRANCH  15  16
ATOM     16  C   UNL     1       1.035   4.942  20.372  0.00  0.00    +0.000 C 
BRANCH  16  17
ATOM     17  C   UNL     1       2.113   5.974  20.712  0.00  0.00    +0.000 C 
BRANCH  17  18
ATOM     18  N   UNL     1       1.729   7.297  20.283  0.00  0.00    +0.000 N 
ATOM     19  C   UNL     1       1.053   8.187  21.071  0.00  0.00    +0.000 C 
ATOM     20  O   UNL     1       0.625   8.050  22.201  0.00  0.00    +0.000 OA
ATOM     21  C   UNL     1       0.932   9.415  20.291  0.00  0.00    +0.000 A 
ATOM     22  C   UNL     1       0.344  10.621  20.612  0.00  0.00    +0.000 A 
ATOM     23  C   UNL     1       0.408  11.636  19.651  0.00  0.00    +0.000 A 
ATOM     24  C   UNL     1       1.049  11.420  18.413  0.00  0.00    +0.000 A 
ATOM     25  C   UNL     1       1.633  10.187  18.110  0.00  0.00    +0.000 A 
ATOM     26  C   UNL     1       1.557   9.204  19.074  0.00  0.00    +0.000 A 
ATOM     27  C   UNL     1       2.076   7.839  19.075  0.00  0.00    +0.000 C 
ATOM     28  O   UNL     1       2.703   7.343  18.161  0.00  0.00    +0.000 OA
ENDBRANCH  17  18
ENDBRANCH  16  17
ENDBRANCH  15  16
ENDBRANCH   2  15
TORSDOF 4
ENDMDL
