MODEL 1
REMARK VINA RESULT:      -7.7      0.000      0.000
REMARK  Name = 
REMARK  5 active torsions:
REMARK  status: ('A' for Active; 'I' for Inactive)
REMARK    1  A    between atoms: C_1  and  O_2
REMARK    2  A    between atoms: O_2  and  C_3
REMARK    3  A    between atoms: C_13  and  C_14
REMARK    4  A    between atoms: C_25  and  O_26
REMARK    5  A    between atoms: O_26  and  C_27
REMARK                            x       y       z     vdW  Elec       q    Type
REMARK                         _______ _______ _______ _____ _____    ______ ____
ROOT
ATOM      1  C   UNL     1       1.652   6.610  20.375  0.00  0.00    +0.000 A 
ATOM      2  C   UNL     1       1.145   5.319  20.626  0.00  0.00    +0.000 A 
ATOM      3  C   UNL     1       1.429   4.215  19.826  0.00  0.00    +0.000 A 
ATOM      4  N   UNL     1       0.945   3.020  20.166  0.00  0.00    +0.000 NA
ATOM      5  C   UNL     1       1.258   1.990  19.370  0.00  0.00    +0.000 A 
ATOM      6  N   UNL     1       2.040   2.039  18.287  0.00  0.00    +0.000 NA
ATOM      7  C   UNL     1       2.562   3.237  17.979  0.00  0.00    +0.000 A 
ATOM      8  N   UNL     1       3.489   3.226  16.924  0.00  0.00    +0.000 N 
ATOM      9  C   UNL     1       4.577   3.993  16.708  0.00  0.00    +0.000 A 
ATOM     10  C   UNL     1       5.364   4.591  17.726  0.00  0.00    +0.000 A 
ATOM     11  C   UNL     1       6.162   5.524  17.091  0.00  0.00    +0.000 A 
ATOM     12  N   UNL     1       5.927   5.302  15.757  0.00  0.00    +0.000 N 
ATOM     13  N   UNL     1       5.031   4.331  15.504  0.00  0.00    +0.000 NA
ATOM     14  C   UNL     1       2.222   4.408  18.697  0.00  0.00    +0.000 A 
ATOM     15  C   UNL     1       2.598   5.732  18.365  0.00  0.00    +0.000 A 
ATOM     16  C   UNL     1       2.384   6.821  19.211  0.00  0.00    +0.000 A 
ATOM     17  H   UNL     1       3.405   2.374  16.382  0.00  0.00    +0.000 HD
ATOM     18  H   UNL     1       6.303   5.816  14.968  0.00  0.00    +0.000 HD
ENDROOT
BRANCH  11  19
ATOM     19  C   UNL     1       6.999   6.597  17.621  0.00  0.00    +0.000 A 
ATOM     20  C   UNL     1       7.844   6.394  18.721  0.00  0.00    +0.000 A 
ATOM     21  C   UNL     1       8.638   7.434  19.210  0.00  0.00    +0.000 A 
ATOM     22  C   UNL     1       8.592   8.682  18.601  0.00  0.00    +0.000 A 
ATOM     23  F   UNL     1       9.351   9.677  19.077  0.00  0.00    +0.000 F 
ATOM     24  C   UNL     1       7.770   8.910  17.507  0.00  0.00    +0.000 A 
ATOM     25  C   UNL     1       6.977   7.870  17.016  0.00  0.00    +0.000 A 
ENDBRANCH  11  19
BRANCH   1  27
ATOM     26  C   UNL     1       0.105   8.254  21.085  0.00  0.00    +0.000 C 
ATOM     27  O   UNL     1       1.398   7.663  21.211  0.00  0.00    +0.000 OA
ENDBRANCH   1  27
BRANCH  16  28
ATOM     28  O   UNL     1       2.996   7.938  18.727  0.00  0.00    +0.000 OA
ATOM     29  C   UNL     1       2.305   8.886  17.936  0.00  0.00    +0.000 C 
ENDBRANCH  16  28
TORSDOF 3
ENDMDL
MODEL 2
REMARK VINA RESULT:      -7.2      1.553      1.931
REMARK  Name = 
REMARK  5 active torsions:
REMARK  status: ('A' for Active; 'I' for Inactive)
REMARK    1  A    between atoms: C_1  and  O_2
REMARK    2  A    between atoms: O_2  and  C_3
REMARK    3  A    between atoms: C_13  and  C_14
REMARK    4  A    between atoms: C_25  and  O_26
REMARK    5  A    between atoms: O_26  and  C_27
REMARK                            x       y       z     vdW  Elec       q    Type
REMARK                         _______ _______ _______ _____ _____    ______ ____
ROOT
ATOM      1  C   UNL     1       2.065   7.105  19.964  0.00  0.00    +0.000 A 
ATOM      2  C   UNL     1       1.839   5.923  20.698  0.00  0.00    +0.000 A 
ATOM      3  C   UNL     1       2.553   4.746  20.493  0.00  0.00    +0.000 A 
ATOM      4  N   UNL     1       2.305   3.689  21.268  0.00  0.00    +0.000 NA
ATOM      5  C   UNL     1       3.028   2.585  21.037  0.00  0.00    +0.000 A 
ATOM      6  N   UNL     1       4.000   2.454  20.129  0.00  0.00    +0.000 NA
ATOM      7  C   UNL     1       4.275   3.538  19.386  0.00  0.00    +0.000 A 
ATOM      8  N   UNL     1       5.393   3.411  18.544  0.00  0.00    +0.000 N 
ATOM      9  C   UNL     1       6.285   4.333  18.131  0.00  0.00    +0.000 A 
ATOM     10  C   UNL     1       6.654   5.492  18.861  0.00  0.00    +0.000 A 
ATOM     11  C   UNL     1       7.327   6.306  17.971  0.00  0.00    +0.000 A 
ATOM     12  N   UNL     1       7.461   5.524  16.851  0.00  0.00    +0.000 N 
ATOM     13  N   UNL     1       6.905   4.304  16.953  0.00  0.00    +0.000 NA
ATOM     14  C   UNL     1       3.511   4.725  19.483  0.00  0.00    +0.000 A 
ATOM     15  C   UNL     1       3.625   5.863  18.648  0.00  0.00    +0.000 A 
ATOM     16  C   UNL     1       2.970   7.068  18.908  0.00  0.00    +0.000 A 
ATOM     17  H   UNL     1       5.640   2.436  18.422  0.00  0.00    +0.000 HD
ATOM     18  H   UNL     1       7.872   5.783  15.960  0.00  0.00    +0.000 HD
ENDROOT
BRANCH  11  19
ATOM     19  C   UNL     1       7.740   7.703  18.064  0.00  0.00    +0.000 A 
ATOM     20  C   UNL     1       7.168   8.693  17.255  0.00  0.00    +0.000 A 
ATOM     21  C   UNL     1       7.575  10.025  17.362  0.00  0.00    +0.000 A 
ATOM     22  C   UNL     1       8.558  10.374  18.279  0.00  0.00    +0.000 A 
ATOM     23  F   UNL     1       8.951  11.650  18.375  0.00  0.00    +0.000 F 
ATOM     24  C   UNL     1       9.139   9.415  19.099  0.00  0.00    +0.000 A 
ATOM     25  C   UNL     1       8.730   8.084  18.994  0.00  0.00    +0.000 A 
ENDBRANCH  11  19
BRANCH   1  27
ATOM     26  C   UNL     1       1.149   8.541  21.607  0.00  0.00    +0.000 C 
ATOM     27  O   UNL     1       1.384   8.263  20.226  0.00  0.00    +0.000 OA
ENDBRANCH   1  27
BRANCH  16  28
ATOM     28  O   UNL     1       3.389   8.041  18.051  0.00  0.00    +0.000 OA
ATOM     29  C   UNL     1       2.513   9.041  17.567  0.00  0.00    +0.000 C 
ENDBRANCH  16  28
TORSDOF 3
ENDMDL
MODEL 3
REMARK VINA RESULT:      -6.8      9.720     11.859
REMARK  Name = 
REMARK  5 active torsions:
REMARK  status: ('A' for Active; 'I' for Inactive)
REMARK    1  A    between atoms: C_1  and  O_2
REMARK    2  A    between atoms: O_2  and  C_3
REMARK    3  A    between atoms: C_13  and  C_14
REMARK    4  A    between atoms: C_25  and  O_26
REMARK    5  A    between atoms: O_26  and  C_27
REMARK                            x       y       z     vdW  Elec       q    Type
REMARK                         _______ _______ _______ _____ _____    ______ ____
ROOT
ATOM      1  C   UNL     1      -2.367  12.270  22.804  0.00  0.00    +0.000 A 
ATOM      2  C   UNL     1      -3.349  12.211  23.814  0.00  0.00    +0.000 A 
ATOM      3  C   UNL     1      -4.681  12.558  23.606  0.00  0.00    +0.000 A 
ATOM      4  N   UNL     1      -5.554  12.427  24.606  0.00  0.00    +0.000 NA
ATOM      5  C   UNL     1      -6.824  12.763  24.351  0.00  0.00    +0.000 A 
ATOM      6  N   UNL     1      -7.310  13.182  23.178  0.00  0.00    +0.000 NA
ATOM      7  C   UNL     1      -6.433  13.266  22.164  0.00  0.00    +0.000 A 
ATOM      8  N   UNL     1      -7.001  13.572  20.915  0.00  0.00    +0.000 N 
ATOM      9  C   UNL     1      -6.630  13.201  19.673  0.00  0.00    +0.000 A 
ATOM     10  C   UNL     1      -5.956  11.995  19.352  0.00  0.00    +0.000 A 
ATOM     11  C   UNL     1      -5.494  12.149  18.060  0.00  0.00    +0.000 A 
ATOM     12  N   UNL     1      -6.057  13.332  17.650  0.00  0.00    +0.000 N 
ATOM     13  N   UNL     1      -6.808  13.944  18.583  0.00  0.00    +0.000 NA
ATOM     14  C   UNL     1      -5.051  13.025  22.347  0.00  0.00    +0.000 A 
ATOM     15  C   UNL     1      -4.032  13.229  21.386  0.00  0.00    +0.000 A 
ATOM     16  C   UNL     1      -2.716  12.803  21.567  0.00  0.00    +0.000 A 
ATOM     17  H   UNL     1      -7.931  13.956  21.029  0.00  0.00    +0.000 HD
ATOM     18  H   UNL     1      -5.923  13.807  16.764  0.00  0.00    +0.000 HD
ENDROOT
BRANCH  11  19
ATOM     19  C   UNL     1      -4.548  11.362  17.273  0.00  0.00    +0.000 A 
ATOM     20  C   UNL     1      -4.444  11.514  15.884  0.00  0.00    +0.000 A 
ATOM     21  C   UNL     1      -3.530  10.753  15.150  0.00  0.00    +0.000 A 
ATOM     22  C   UNL     1      -2.717   9.835  15.803  0.00  0.00    +0.000 A 
ATOM     23  F   UNL     1      -1.847   9.102  15.096  0.00  0.00    +0.000 F 
ATOM     24  C   UNL     1      -2.794   9.667  17.179  0.00  0.00    +0.000 A 
ATOM     25  C   UNL     1      -3.706  10.429  17.913  0.00  0.00    +0.000 A 
ENDBRANCH  11  19
BRANCH   1  27
ATOM     26  C   UNL     1      -0.866  10.458  23.064  0.00  0.00    +0.000 C 
ATOM     27  O   UNL     1      -1.076  11.870  23.025  0.00  0.00    +0.000 OA
ENDBRANCH   1  27
BRANCH  16  28
ATOM     28  O   UNL     1      -1.991  12.967  20.425  0.00  0.00    +0.000 OA
ATOM     29  C   UNL     1      -1.162  14.094  20.220  0.00  0.00    +0.000 C 
ENDBRANCH  16  28
TORSDOF 3
ENDMDL
MODEL 4
REMARK VINA RESULT:      -6.7      9.005     11.355
REMARK  Name = 
REMARK  5 active torsions:
REMARK  status: ('A' for Active; 'I' for Inactive)
REMARK    1  A    between atoms: C_1  and  O_2
REMARK    2  A    between atoms: O_2  and  C_3
REMARK    3  A    between atoms: C_13  and  C_14
REMARK    4  A    between atoms: C_25  and  O_26
REMARK    5  A    between atoms: O_26  and  C_27
REMARK                            x       y       z     vdW  Elec       q    Type
REMARK                         _______ _______ _______ _____ _____    ______ ____
ROOT
ATOM      1  C   UNL     1      -1.276  12.072  22.295  0.00  0.00    +0.000 A 
ATOM      2  C   UNL     1      -2.077  11.965  23.450  0.00  0.00    +0.000 A 
ATOM      3  C   UNL     1      -3.432  12.283  23.473  0.00  0.00    +0.000 A 
ATOM      4  N   UNL     1      -4.125  12.106  24.599  0.00  0.00    +0.000 NA
ATOM      5  C   UNL     1      -5.427  12.416  24.565  0.00  0.00    +0.000 A 
ATOM      6  N   UNL     1      -6.108  12.851  23.500  0.00  0.00    +0.000 NA
ATOM      7  C   UNL     1      -5.412  12.981  22.358  0.00  0.00    +0.000 A 
ATOM      8  N   UNL     1      -6.184  13.302  21.228  0.00  0.00    +0.000 N 
ATOM      9  C   UNL     1      -6.015  12.969  19.932  0.00  0.00    +0.000 A 
ATOM     10  C   UNL     1      -5.378  11.788  19.472  0.00  0.00    +0.000 A 
ATOM     11  C   UNL     1      -5.138  11.985  18.126  0.00  0.00    +0.000 A 
ATOM     12  N   UNL     1      -5.785  13.162  17.846  0.00  0.00    +0.000 N 
ATOM     13  N   UNL     1      -6.385  13.733  18.907  0.00  0.00    +0.000 NA
ATOM     14  C   UNL     1      -4.014  12.770  22.305  0.00  0.00    +0.000 A 
ATOM     15  C   UNL     1      -3.171  13.022  21.196  0.00  0.00    +0.000 A 
ATOM     16  C   UNL     1      -1.835  12.625  21.147  0.00  0.00    +0.000 A 
ATOM     17  H   UNL     1      -7.090  13.659  21.503  0.00  0.00    +0.000 HD
ATOM     18  H   UNL     1      -5.809  13.662  16.964  0.00  0.00    +0.000 HD
ENDROOT
BRANCH  11  19
ATOM     19  C   UNL     1      -4.318  11.240  17.174  0.00  0.00    +0.000 A 
ATOM     20  C   UNL     1      -3.324  10.349  17.600  0.00  0.00    +0.000 A 
ATOM     21  C   UNL     1      -2.553   9.644  16.672  0.00  0.00    +0.000 A 
ATOM     22  C   UNL     1      -2.773   9.828  15.313  0.00  0.00    +0.000 A 
ATOM     23  F   UNL     1      -2.028   9.155  14.426  0.00  0.00    +0.000 F 
ATOM     24  C   UNL     1      -3.755  10.699  14.861  0.00  0.00    +0.000 A 
ATOM     25  C   UNL     1      -4.527  11.402  15.788  0.00  0.00    +0.000 A 
ENDBRANCH  11  19
BRANCH   1  27
ATOM     26  C   UNL     1       0.309  10.384  21.802  0.00  0.00    +0.000 C 
ATOM     27  O   UNL     1       0.042  11.699  22.290  0.00  0.00    +0.000 OA
ENDBRANCH   1  27
BRANCH  16  28
ATOM     28  O   UNL     1      -1.312  12.834  19.906  0.00  0.00    +0.000 OA
ATOM     29  C   UNL     1      -0.574  13.999  19.591  0.00  0.00    +0.000 C 
ENDBRANCH  16  28
TORSDOF 3
ENDMDL
MODEL 5
REMARK VINA RESULT:      -6.6      9.875     12.009
REMARK  Name = 
REMARK  5 active torsions:
REMARK  status: ('A' for Active; 'I' for Inactive)
REMARK    1  A    between atoms: C_1  and  O_2
REMARK    2  A    between atoms: O_2  and  C_3
REMARK    3  A    between atoms: C_13  and  C_14
REMARK    4  A    between atoms: C_25  and  O_26
REMARK    5  A    between atoms: O_26  and  C_27
REMARK                            x       y       z     vdW  Elec       q    Type
REMARK                         _______ _______ _______ _____ _____    ______ ____
ROOT
ATOM      1  C   UNL     1      -2.676  12.533  22.845  0.00  0.00    +0.000 A 
ATOM      2  C   UNL     1      -3.696  12.522  23.818  0.00  0.00    +0.000 A 
ATOM      3  C   UNL     1      -5.019  12.862  23.544  0.00  0.00    +0.000 A 
ATOM      4  N   UNL     1      -5.929  12.777  24.515  0.00  0.00    +0.000 NA
ATOM      5  C   UNL     1      -7.188  13.104  24.195  0.00  0.00    +0.000 A 
ATOM      6  N   UNL     1      -7.626  13.471  22.987  0.00  0.00    +0.000 NA
ATOM      7  C   UNL     1      -6.711  13.507  22.005  0.00  0.00    +0.000 A 
ATOM      8  N   UNL     1      -7.229  13.757  20.723  0.00  0.00    +0.000 N 
ATOM      9  C   UNL     1      -6.813  13.330  19.514  0.00  0.00    +0.000 A 
ATOM     10  C   UNL     1      -6.131  12.109  19.274  0.00  0.00    +0.000 A 
ATOM     11  C   UNL     1      -5.619  12.204  17.994  0.00  0.00    +0.000 A 
ATOM     12  N   UNL     1      -6.161  13.368  17.510  0.00  0.00    +0.000 N 
ATOM     13  N   UNL     1      -6.945  14.023  18.385  0.00  0.00    +0.000 NA
ATOM     14  C   UNL     1      -5.338  13.272  22.251  0.00  0.00    +0.000 A 
ATOM     15  C   UNL     1      -4.282  13.430  21.322  0.00  0.00    +0.000 A 
ATOM     16  C   UNL     1      -2.975  13.010  21.573  0.00  0.00    +0.000 A 
ATOM     17  H   UNL     1      -8.162  14.148  20.783  0.00  0.00    +0.000 HD
ATOM     18  H   UNL     1      -5.992  13.802  16.609  0.00  0.00    +0.000 HD
ENDROOT
BRANCH  11  19
ATOM     19  C   UNL     1      -4.647  11.380  17.281  0.00  0.00    +0.000 A 
ATOM     20  C   UNL     1      -3.981  10.319  17.910  0.00  0.00    +0.000 A 
ATOM     21  C   UNL     1      -3.057   9.541  17.209  0.00  0.00    +0.000 A 
ATOM     22  C   UNL     1      -2.793   9.821  15.874  0.00  0.00    +0.000 A 
ATOM     23  F   UNL     1      -1.902   9.078  15.206  0.00  0.00    +0.000 F 
ATOM     24  C   UNL     1      -3.441  10.862  15.223  0.00  0.00    +0.000 A 
ATOM     25  C   UNL     1      -4.367  11.638  15.923  0.00  0.00    +0.000 A 
ENDBRANCH  11  19
BRANCH   1  27
ATOM     26  C   UNL     1      -1.170  10.732  23.141  0.00  0.00    +0.000 C 
ATOM     27  O   UNL     1      -1.396  12.141  23.134  0.00  0.00    +0.000 OA
ENDBRANCH   1  27
BRANCH  16  28
ATOM     28  O   UNL     1      -2.207  13.121  20.453  0.00  0.00    +0.000 OA
ATOM     29  C   UNL     1      -1.668  11.989  19.799  0.00  0.00    +0.000 C 
ENDBRANCH  16  28
TORSDOF 3
ENDMDL
MODEL 6
REMARK VINA RESULT:      -6.4      7.809      9.828
REMARK  Name = 
REMARK  5 active torsions:
REMARK  status: ('A' for Active; 'I' for Inactive)
REMARK    1  A    between atoms: C_1  and  O_2
REMARK    2  A    between atoms: O_2  and  C_3
REMARK    3  A    between atoms: C_13  and  C_14
REMARK    4  A    between atoms: C_25  and  O_26
REMARK    5  A    between atoms: O_26  and  C_27
REMARK                            x       y       z     vdW  Elec       q    Type
REMARK                         _______ _______ _______ _____ _____    ______ ____
ROOT
ATOM      1  C   UNL     1      -3.006  10.765  16.391  0.00  0.00    +0.000 A 
ATOM      2  C   UNL     1      -4.326  11.253  16.473  0.00  0.00    +0.000 A 
ATOM      3  C   UNL     1      -4.862  11.821  17.626  0.00  0.00    +0.000 A 
ATOM      4  N   UNL     1      -6.106  12.300  17.600  0.00  0.00    +0.000 NA
ATOM      5  C   UNL     1      -6.568  12.848  18.731  0.00  0.00    +0.000 A 
ATOM      6  N   UNL     1      -5.889  12.994  19.873  0.00  0.00    +0.000 NA
ATOM      7  C   UNL     1      -4.621  12.551  19.875  0.00  0.00    +0.000 A 
ATOM      8  N   UNL     1      -3.893  12.847  21.040  0.00  0.00    +0.000 N 
ATOM      9  C   UNL     1      -2.579  13.101  21.208  0.00  0.00    +0.000 A 
ATOM     10  C   UNL     1      -1.732  13.682  20.230  0.00  0.00    +0.000 A 
ATOM     11  C   UNL     1      -0.440  13.479  20.675  0.00  0.00    +0.000 A 
ATOM     12  N   UNL     1      -0.606  12.960  21.934  0.00  0.00    +0.000 N 
ATOM     13  N   UNL     1      -1.889  12.795  22.304  0.00  0.00    +0.000 NA
ATOM     14  C   UNL     1      -4.063  11.873  18.766  0.00  0.00    +0.000 A 
ATOM     15  C   UNL     1      -2.796  11.243  18.721  0.00  0.00    +0.000 A 
ATOM     16  C   UNL     1      -2.230  10.749  17.545  0.00  0.00    +0.000 A 
ATOM     17  H   UNL     1      -4.516  13.094  21.799  0.00  0.00    +0.000 HD
ATOM     18  H   UNL     1       0.115  12.643  22.574  0.00  0.00    +0.000 HD
ENDROOT
BRANCH  11  19
ATOM     19  C   UNL     1       0.847  13.640  20.005  0.00  0.00    +0.000 A 
ATOM     20  C   UNL     1       1.976  14.110  20.688  0.00  0.00    +0.000 A 
ATOM     21  C   UNL     1       3.200  14.254  20.029  0.00  0.00    +0.000 A 
ATOM     22  C   UNL     1       3.300  13.928  18.683  0.00  0.00    +0.000 A 
ATOM     23  F   UNL     1       4.472  14.074  18.053  0.00  0.00    +0.000 F 
ATOM     24  C   UNL     1       2.200  13.454  17.982  0.00  0.00    +0.000 A 
ATOM     25  C   UNL     1       0.977  13.308  18.640  0.00  0.00    +0.000 A 
ENDBRANCH  11  19
BRANCH   1  27
ATOM     26  C   UNL     1      -3.416  10.139  14.145  0.00  0.00    +0.000 C 
ATOM     27  O   UNL     1      -2.492  10.261  15.226  0.00  0.00    +0.000 OA
ENDBRANCH   1  27
BRANCH  16  28
ATOM     28  O   UNL     1      -0.942  10.356  17.755  0.00  0.00    +0.000 OA
ATOM     29  C   UNL     1      -0.446  10.076  19.050  0.00  0.00    +0.000 C 
ENDBRANCH  16  28
TORSDOF 3
ENDMDL
MODEL 7
REMARK VINA RESULT:      -6.4      8.207     10.291
REMARK  Name = 
REMARK  5 active torsions:
REMARK  status: ('A' for Active; 'I' for Inactive)
REMARK    1  A    between atoms: C_1  and  O_2
REMARK    2  A    between atoms: O_2  and  C_3
REMARK    3  A    between atoms: C_13  and  C_14
REMARK    4  A    between atoms: C_25  and  O_26
REMARK    5  A    between atoms: O_26  and  C_27
REMARK                            x       y       z     vdW  Elec       q    Type
REMARK                         _______ _______ _______ _____ _____    ______ ____
ROOT
ATOM      1  C   UNL     1      -5.160  13.909  22.285  0.00  0.00    +0.000 A 
ATOM      2  C   UNL     1      -6.185  12.947  22.383  0.00  0.00    +0.000 A 
ATOM      3  C   UNL     1      -6.489  12.046  21.366  0.00  0.00    +0.000 A 
ATOM      4  N   UNL     1      -7.445  11.138  21.563  0.00  0.00    +0.000 NA
ATOM      5  C   UNL     1      -7.690  10.287  20.558  0.00  0.00    +0.000 A 
ATOM      6  N   UNL     1      -7.042  10.238  19.390  0.00  0.00    +0.000 NA
ATOM      7  C   UNL     1      -6.049  11.126  19.219  0.00  0.00    +0.000 A 
ATOM      8  N   UNL     1      -5.297  10.955  18.044  0.00  0.00    +0.000 N 
ATOM      9  C   UNL     1      -3.995  11.200  17.796  0.00  0.00    +0.000 A 
ATOM     10  C   UNL     1      -2.959  11.146  18.764  0.00  0.00    +0.000 A 
ATOM     11  C   UNL     1      -1.864  11.757  18.185  0.00  0.00    +0.000 A 
ATOM     12  N   UNL     1      -2.257  11.972  16.888  0.00  0.00    +0.000 N 
ATOM     13  N   UNL     1      -3.512  11.573  16.613  0.00  0.00    +0.000 NA
ATOM     14  C   UNL     1      -5.768  12.129  20.177  0.00  0.00    +0.000 A 
ATOM     15  C   UNL     1      -4.848  13.194  20.027  0.00  0.00    +0.000 A 
ATOM     16  C   UNL     1      -4.486  14.042  21.075  0.00  0.00    +0.000 A 
ATOM     17  H   UNL     1      -5.796  10.374  17.381  0.00  0.00    +0.000 HD
ATOM     18  H   UNL     1      -1.737  12.437  16.152  0.00  0.00    +0.000 HD
ENDROOT
BRANCH  11  19
ATOM     19  C   UNL     1      -0.597  12.207  18.755  0.00  0.00    +0.000 A 
ATOM     20  C   UNL     1       0.183  11.368  19.563  0.00  0.00    +0.000 A 
ATOM     21  C   UNL     1       1.394  11.818  20.096  0.00  0.00    +0.000 A 
ATOM     22  C   UNL     1       1.830  13.108  19.824  0.00  0.00    +0.000 A 
ATOM     23  F   UNL     1       2.988  13.538  20.342  0.00  0.00    +0.000 F 
ATOM     24  C   UNL     1       1.081  13.959  19.023  0.00  0.00    +0.000 A 
ATOM     25  C   UNL     1      -0.128  13.510  18.488  0.00  0.00    +0.000 A 
ENDBRANCH  11  19
BRANCH   1  27
ATOM     26  C   UNL     1      -3.762  14.326  24.149  0.00  0.00    +0.000 C 
ATOM     27  O   UNL     1      -4.849  14.746  23.324  0.00  0.00    +0.000 OA
ENDBRANCH   1  27
BRANCH  16  28
ATOM     28  O   UNL     1      -3.462  14.861  20.704  0.00  0.00    +0.000 OA
ATOM     29  C   UNL     1      -3.622  16.263  20.606  0.00  0.00    +0.000 C 
ENDBRANCH  16  28
TORSDOF 3
ENDMDL
MODEL 8
REMARK VINA RESULT:      -6.3      8.253     10.333
REMARK  Name = 
REMARK  5 active torsions:
REMARK  status: ('A' for Active; 'I' for Inactive)
REMARK    1  A    between atoms: C_1  and  O_2
REMARK    2  A    between atoms: O_2  and  C_3
REMARK    3  A    between atoms: C_13  and  C_14
REMARK    4  A    between atoms: C_25  and  O_26
REMARK    5  A    between atoms: O_26  and  C_27
REMARK                            x       y       z     vdW  Elec       q    Type
REMARK                         _______ _______ _______ _____ _____    ______ ____
ROOT
ATOM      1  C   UNL     1      -3.288  11.104  16.367  0.00  0.00    +0.000 A 
ATOM      2  C   UNL     1      -4.649  11.471  16.404  0.00  0.00    +0.000 A 
ATOM      3  C   UNL     1      -5.302  11.873  17.567  0.00  0.00    +0.000 A 
ATOM      4  N   UNL     1      -6.579  12.249  17.501  0.00  0.00    +0.000 NA
ATOM      5  C   UNL     1      -7.156  12.637  18.645  0.00  0.00    +0.000 A 
ATOM      6  N   UNL     1      -6.564  12.719  19.840  0.00  0.00    +0.000 NA
ATOM      7  C   UNL     1      -5.265  12.384  19.887  0.00  0.00    +0.000 A 
ATOM      8  N   UNL     1      -4.638  12.616  21.124  0.00  0.00    +0.000 N 
ATOM      9  C   UNL     1      -3.365  12.958  21.407  0.00  0.00    +0.000 A 
ATOM     10  C   UNL     1      -2.513  13.704  20.552  0.00  0.00    +0.000 A 
ATOM     11  C   UNL     1      -1.239  13.562  21.064  0.00  0.00    +0.000 A 
ATOM     12  N   UNL     1      -1.435  12.904  22.252  0.00  0.00    +0.000 N 
ATOM     13  N   UNL     1      -2.718  12.598  22.514  0.00  0.00    +0.000 NA
ATOM     14  C   UNL     1      -4.582  11.871  18.759  0.00  0.00    +0.000 A 
ATOM     15  C   UNL     1      -3.264  11.355  18.742  0.00  0.00    +0.000 A 
ATOM     16  C   UNL     1      -2.586  11.033  17.565  0.00  0.00    +0.000 A 
ATOM     17  H   UNL     1      -5.325  12.732  21.858  0.00  0.00    +0.000 HD
ATOM     18  H   UNL     1      -0.729  12.582  22.906  0.00  0.00    +0.000 HD
ENDROOT
BRANCH  11  19
ATOM     19  C   UNL     1       0.068  13.895  20.504  0.00  0.00    +0.000 A 
ATOM     20  C   UNL     1       0.221  14.910  19.549  0.00  0.00    +0.000 A 
ATOM     21  C   UNL     1       1.481  15.215  19.029  0.00  0.00    +0.000 A 
ATOM     22  C   UNL     1       2.595  14.507  19.461  0.00  0.00    +0.000 A 
ATOM     23  F   UNL     1       3.800  14.798  18.955  0.00  0.00    +0.000 F 
ATOM     24  C   UNL     1       2.475  13.501  20.410  0.00  0.00    +0.000 A 
ATOM     25  C   UNL     1       1.216  13.197  20.932  0.00  0.00    +0.000 A 
ENDBRANCH  11  19
BRANCH   1  27
ATOM     26  C   UNL     1      -3.467  10.077  14.242  0.00  0.00    +0.000 C 
ATOM     27  O   UNL     1      -2.661  10.767  15.197  0.00  0.00    +0.000 OA
ENDBRANCH   1  27
BRANCH  16  28
ATOM     28  O   UNL     1      -1.284  10.726  17.825  0.00  0.00    +0.000 OA
ATOM     29  C   UNL     1      -0.832  10.422  19.131  0.00  0.00    +0.000 C 
ENDBRANCH  16  28
TORSDOF 3
ENDMDL
MODEL 9
REMARK VINA RESULT:      -6.3      8.594     11.464
REMARK  Name = 
REMARK  5 active torsions:
REMARK  status: ('A' for Active; 'I' for Inactive)
REMARK    1  A    between atoms: C_1  and  O_2
REMARK    2  A    between atoms: O_2  and  C_3
REMARK    3  A    between atoms: C_13  and  C_14
REMARK    4  A    between atoms: C_25  and  O_26
REMARK    5  A    between atoms: O_26  and  C_27
REMARK                            x       y       z     vdW  Elec       q    Type
REMARK                         _______ _______ _______ _____ _____    ______ ____
ROOT
ATOM      1  C   UNL     1      -5.600  14.102  22.128  0.00  0.00    +0.000 A 
ATOM      2  C   UNL     1      -4.873  15.055  22.870  0.00  0.00    +0.000 A 
ATOM      3  C   UNL     1      -3.531  14.901  23.208  0.00  0.00    +0.000 A 
ATOM      4  N   UNL     1      -2.909  15.876  23.871  0.00  0.00    +0.000 NA
ATOM      5  C   UNL     1      -1.616  15.683  24.161  0.00  0.00    +0.000 A 
ATOM      6  N   UNL     1      -0.880  14.622  23.817  0.00  0.00    +0.000 NA
ATOM      7  C   UNL     1      -1.503  13.667  23.108  0.00  0.00    +0.000 A 
ATOM      8  N   UNL     1      -0.668  12.636  22.642  0.00  0.00    +0.000 N 
ATOM      9  C   UNL     1      -0.743  11.891  21.521  0.00  0.00    +0.000 A 
ATOM     10  C   UNL     1      -1.317  12.320  20.296  0.00  0.00    +0.000 A 
ATOM     11  C   UNL     1      -1.474  11.182  19.530  0.00  0.00    +0.000 A 
ATOM     12  N   UNL     1      -0.842  10.206  20.259  0.00  0.00    +0.000 N 
ATOM     13  N   UNL     1      -0.328  10.630  21.428  0.00  0.00    +0.000 NA
ATOM     14  C   UNL     1      -2.888  13.725  22.828  0.00  0.00    +0.000 A 
ATOM     15  C   UNL     1      -3.663  12.707  22.222  0.00  0.00    +0.000 A 
ATOM     16  C   UNL     1      -4.983  12.896  21.809  0.00  0.00    +0.000 A 
ATOM     17  H   UNL     1       0.209  12.629  23.149  0.00  0.00    +0.000 HD
ATOM     18  H   UNL     1      -0.774   9.217  20.043  0.00  0.00    +0.000 HD
ENDROOT
BRANCH  11  19
ATOM     19  C   UNL     1      -2.209  10.948  18.290  0.00  0.00    +0.000 A 
ATOM     20  C   UNL     1      -3.452  11.550  18.049  0.00  0.00    +0.000 A 
ATOM     21  C   UNL     1      -4.138  11.315  16.854  0.00  0.00    +0.000 A 
ATOM     22  C   UNL     1      -3.584  10.477  15.895  0.00  0.00    +0.000 A 
ATOM     23  F   UNL     1      -4.246  10.249  14.754  0.00  0.00    +0.000 F 
ATOM     24  C   UNL     1      -2.352   9.872  16.104  0.00  0.00    +0.000 A 
ATOM     25  C   UNL     1      -1.665  10.108  17.297  0.00  0.00    +0.000 A 
ENDBRANCH  11  19
BRANCH   1  27
ATOM     26  C   UNL     1      -7.433  15.598  22.070  0.00  0.00    +0.000 C 
ATOM     27  O   UNL     1      -6.904  14.307  21.764  0.00  0.00    +0.000 OA
ENDBRANCH   1  27
BRANCH  16  28
ATOM     28  O   UNL     1      -5.429  11.819  21.104  0.00  0.00    +0.000 OA
ATOM     29  C   UNL     1      -6.757  11.738  20.621  0.00  0.00    +0.000 C 
ENDBRANCH  16  28
TORSDOF 3
ENDMDL
