MODEL 1
REMARK VINA RESULT:      -6.8      0.000      0.000
REMARK  Name = 
REMARK  10 active torsions:
REMARK  status: ('A' for Active; 'I' for Inactive)
REMARK    1  A    between atoms: C_1  and  C_2
REMARK    2  A    between atoms: C_2  and  C_3
REMARK    3  A    between atoms: C_3  and  C_4
REMARK    4  A    between atoms: C_4  and  C_5
REMARK    5  A    between atoms: C_5  and  C_6
REMARK    6  A    between atoms: C_6  and  C_7
REMARK    7  A    between atoms: C_7  and  C_8
REMARK    8  A    between atoms: C_8  and  N_9
REMARK    9  A    between atoms: N_9  and  C_10
REMARK   10  A    between atoms: C_17  and  O_18
REMARK                            x       y       z     vdW  Elec       q    Type
REMARK                         _______ _______ _______ _____ _____    ______ ____
ROOT
ATOM      1  C   UNL     1       4.532   3.827  17.789  0.00  0.00    +0.000 C 
ATOM      2  C   UNL     1       4.930   4.023  16.318  0.00  0.00    +0.000 C 
ATOM      3  C   UNL     1       5.261   5.492  16.062  0.00  0.00    +0.000 C 
ATOM      4  C   UNL     1       6.236   6.046  17.065  0.00  0.00    +0.000 A 
ATOM      5  C   UNL     1       6.907   7.234  16.755  0.00  0.00    +0.000 A 
ATOM      6  C   UNL     1       7.855   7.759  17.629  0.00  0.00    +0.000 A 
ATOM      7  C   UNL     1       8.144   7.103  18.826  0.00  0.00    +0.000 A 
ATOM      8  C   UNL     1       7.467   5.922  19.167  0.00  0.00    +0.000 A 
ATOM      9  C   UNL     1       6.495   5.392  18.296  0.00  0.00    +0.000 A 
ATOM     10  C   UNL     1       5.752   4.128  18.686  0.00  0.00    +0.000 C 
ENDROOT
BRANCH   1  11
ATOM     11  N   UNL     1       4.052   2.461  18.071  0.00  0.00    +0.000 NA
ATOM     12  H   UNL     1       4.332   1.815  17.297  0.00  0.00    +0.000 HD
BRANCH  11  13
ATOM     13  C   UNL     1       2.596   2.410  18.250  0.00  0.00    +0.000 C 
BRANCH  13  14
ATOM     14  C   UNL     1       2.224   2.670  19.700  0.00  0.00    +0.000 C 
BRANCH  14  15
ATOM     15  C   UNL     1       1.431   3.984  19.797  0.00  0.00    +0.000 C 
BRANCH  15  16
ATOM     16  C   UNL     1       2.111   5.031  20.680  0.00  0.00    +0.000 C 
BRANCH  16  17
ATOM     17  C   UNL     1       2.161   6.410  20.014  0.00  0.00    +0.000 C 
BRANCH  17  18
ATOM     18  C   UNL     1       2.366   6.274  18.510  0.00  0.00    +0.000 C 
BRANCH  18  20
ATOM     19  C   UNL     1       1.942   8.654  17.840  0.00  0.00    +0.000 C 
ATOM     20  C   UNL     1       2.987   7.551  17.941  0.00  0.00    +0.000 C 
ENDBRANCH  18  20
ENDBRANCH  17  18
ENDBRANCH  16  17
ENDBRANCH  15  16
ENDBRANCH  14  15
ENDBRANCH  13  14
ENDBRANCH  11  13
ENDBRANCH   1  11
BRANCH   8  21
ATOM     21  O   UNL     1       7.743   5.298  20.332  0.00  0.00    +0.000 OA
ATOM     22  H   UNL     1       8.633   4.995  20.557  0.00  0.00    +0.000 HD
ENDBRANCH   8  21
TORSDOF 9
ENDMDL
MODEL 2
REMARK VINA RESULT:      -6.6      0.951      1.130
REMARK  Name = 
REMARK  10 active torsions:
REMARK  status: ('A' for Active; 'I' for Inactive)
REMARK    1  A    between atoms: C_1  and  C_2
REMARK    2  A    between atoms: C_2  and  C_3
REMARK    3  A    between atoms: C_3  and  C_4
REMARK    4  A    between atoms: C_4  and  C_5
REMARK    5  A    between atoms: C_5  and  C_6
REMARK    6  A    between atoms: C_6  and  C_7
REMARK    7  A    between atoms: C_7  and  C_8
REMARK    8  A    between atoms: C_8  and  N_9
REMARK    9  A    between atoms: N_9  and  C_10
REMARK   10  A    between atoms: C_17  and  O_18
REMARK                            x       y       z     vdW  Elec       q    Type
REMARK                         _______ _______ _______ _____ _____    ______ ____
ROOT
ATOM      1  C   UNL     1       3.918   3.619  18.848  0.00  0.00    +0.000 C 
ATOM      2  C   UNL     1       4.073   3.381  17.339  0.00  0.00    +0.000 C 
ATOM      3  C   UNL     1       4.433   4.692  16.642  0.00  0.00    +0.000 C 
ATOM      4  C   UNL     1       5.592   5.393  17.299  0.00  0.00    +0.000 A 
ATOM      5  C   UNL     1       6.263   6.387  16.578  0.00  0.00    +0.000 A 
ATOM      6  C   UNL     1       7.373   7.028  17.124  0.00  0.00    +0.000 A 
ATOM      7  C   UNL     1       7.824   6.684  18.398  0.00  0.00    +0.000 A 
ATOM      8  C   UNL     1       7.152   5.706  19.147  0.00  0.00    +0.000 A 
ATOM      9  C   UNL     1       6.019   5.063  18.610  0.00  0.00    +0.000 A 
ATOM     10  C   UNL     1       5.287   4.024  19.438  0.00  0.00    +0.000 C 
ENDROOT
BRANCH   1  11
ATOM     11  N   UNL     1       3.420   2.428  19.563  0.00  0.00    +0.000 NA
ATOM     12  H   UNL     1       2.689   1.945  18.991  0.00  0.00    +0.000 HD
BRANCH  11  13
ATOM     13  C   UNL     1       2.870   2.762  20.882  0.00  0.00    +0.000 C 
BRANCH  13  14
ATOM     14  C   UNL     1       1.353   2.837  20.827  0.00  0.00    +0.000 C 
BRANCH  14  15
ATOM     15  C   UNL     1       0.927   4.246  20.384  0.00  0.00    +0.000 C 
BRANCH  15  16
ATOM     16  C   UNL     1       1.797   5.352  20.983  0.00  0.00    +0.000 C 
BRANCH  16  17
ATOM     17  C   UNL     1       1.642   6.682  20.238  0.00  0.00    +0.000 C 
BRANCH  17  18
ATOM     18  C   UNL     1       2.870   6.964  19.380  0.00  0.00    +0.000 C 
BRANCH  18  20
ATOM     19  C   UNL     1       1.834   8.927  18.211  0.00  0.00    +0.000 C 
ATOM     20  C   UNL     1       2.450   7.546  18.029  0.00  0.00    +0.000 C 
ENDBRANCH  18  20
ENDBRANCH  17  18
ENDBRANCH  16  17
ENDBRANCH  15  16
ENDBRANCH  14  15
ENDBRANCH  13  14
ENDBRANCH  11  13
ENDBRANCH   1  11
BRANCH   8  21
ATOM     21  O   UNL     1       7.586   5.386  20.385  0.00  0.00    +0.000 OA
ATOM     22  H   UNL     1       7.970   6.044  20.983  0.00  0.00    +0.000 HD
ENDBRANCH   8  21
TORSDOF 9
ENDMDL
MODEL 3
REMARK VINA RESULT:      -6.5      3.124      6.407
REMARK  Name = 
REMARK  10 active torsions:
REMARK  status: ('A' for Active; 'I' for Inactive)
REMARK    1  A    between atoms: C_1  and  C_2
REMARK    2  A    between atoms: C_2  and  C_3
REMARK    3  A    between atoms: C_3  and  C_4
REMARK    4  A    between atoms: C_4  and  C_5
REMARK    5  A    between atoms: C_5  and  C_6
REMARK    6  A    between atoms: C_6  and  C_7
REMARK    7  A    between atoms: C_7  and  C_8
REMARK    8  A    between atoms: C_8  and  N_9
REMARK    9  A    between atoms: N_9  and  C_10
REMARK   10  A    between atoms: C_17  and  O_18
REMARK                            x       y       z     vdW  Elec       q    Type
REMARK                         _______ _______ _______ _____ _____    ______ ____
ROOT
ATOM      1  C   UNL     1       5.152   3.671  17.682  0.00  0.00    +0.000 C 
ATOM      2  C   UNL     1       4.146   2.713  17.027  0.00  0.00    +0.000 C 
ATOM      3  C   UNL     1       3.236   2.107  18.093  0.00  0.00    +0.000 C 
ATOM      4  C   UNL     1       2.630   3.150  18.994  0.00  0.00    +0.000 A 
ATOM      5  C   UNL     1       1.514   2.799  19.761  0.00  0.00    +0.000 A 
ATOM      6  C   UNL     1       0.889   3.744  20.571  0.00  0.00    +0.000 A 
ATOM      7  C   UNL     1       1.372   5.051  20.624  0.00  0.00    +0.000 A 
ATOM      8  C   UNL     1       2.503   5.419  19.879  0.00  0.00    +0.000 A 
ATOM      9  C   UNL     1       3.152   4.466  19.070  0.00  0.00    +0.000 A 
ATOM     10  C   UNL     1       4.388   4.869  18.287  0.00  0.00    +0.000 C 
ENDROOT
BRANCH   1  11
ATOM     11  N   UNL     1       6.160   4.175  16.730  0.00  0.00    +0.000 NA
ATOM     12  H   UNL     1       7.080   4.299  17.214  0.00  0.00    +0.000 HD
BRANCH  11  13
ATOM     13  C   UNL     1       5.756   5.444  16.113  0.00  0.00    +0.000 C 
BRANCH  13  14
ATOM     14  C   UNL     1       5.809   5.344  14.597  0.00  0.00    +0.000 C 
BRANCH  14  15
ATOM     15  C   UNL     1       6.129   3.897  14.191  0.00  0.00    +0.000 C 
BRANCH  15  16
ATOM     16  C   UNL     1       6.480   3.754  12.709  0.00  0.00    +0.000 C 
BRANCH  16  17
ATOM     17  C   UNL     1       5.505   2.833  11.967  0.00  0.00    +0.000 C 
BRANCH  17  18
ATOM     18  C   UNL     1       4.138   3.493  11.831  0.00  0.00    +0.000 C 
BRANCH  18  20
ATOM     19  C   UNL     1       3.035   4.241   9.706  0.00  0.00    +0.000 C 
ATOM     20  C   UNL     1       3.455   3.038  10.540  0.00  0.00    +0.000 C 
ENDBRANCH  18  20
ENDBRANCH  17  18
ENDBRANCH  16  17
ENDBRANCH  15  16
ENDBRANCH  14  15
ENDBRANCH  13  14
ENDBRANCH  11  13
ENDBRANCH   1  11
BRANCH   8  21
ATOM     21  O   UNL     1       2.973   6.683  19.944  0.00  0.00    +0.000 OA
ATOM     22  H   UNL     1       3.898   6.879  20.149  0.00  0.00    +0.000 HD
ENDBRANCH   8  21
TORSDOF 9
ENDMDL
MODEL 4
REMARK VINA RESULT:      -6.5      2.513      6.363
REMARK  Name = 
REMARK  10 active torsions:
REMARK  status: ('A' for Active; 'I' for Inactive)
REMARK    1  A    between atoms: C_1  and  C_2
REMARK    2  A    between atoms: C_2  and  C_3
REMARK    3  A    between atoms: C_3  and  C_4
REMARK    4  A    between atoms: C_4  and  C_5
REMARK    5  A    between atoms: C_5  and  C_6
REMARK    6  A    between atoms: C_6  and  C_7
REMARK    7  A    between atoms: C_7  and  C_8
REMARK    8  A    between atoms: C_8  and  N_9
REMARK    9  A    between atoms: N_9  and  C_10
REMARK   10  A    between atoms: C_17  and  O_18
REMARK                            x       y       z     vdW  Elec       q    Type
REMARK                         _______ _______ _______ _____ _____    ______ ____
ROOT
ATOM      1  C   UNL     1       4.325   4.735  17.242  0.00  0.00    +0.000 C 
ATOM      2  C   UNL     1       3.480   5.934  17.696  0.00  0.00    +0.000 C 
ATOM      3  C   UNL     1       2.146   5.446  18.257  0.00  0.00    +0.000 C 
ATOM      4  C   UNL     1       2.316   4.360  19.285  0.00  0.00    +0.000 A 
ATOM      5  C   UNL     1       1.243   4.079  20.139  0.00  0.00    +0.000 A 
ATOM      6  C   UNL     1       1.370   3.118  21.139  0.00  0.00    +0.000 A 
ATOM      7  C   UNL     1       2.571   2.426  21.297  0.00  0.00    +0.000 A 
ATOM      8  C   UNL     1       3.651   2.677  20.438  0.00  0.00    +0.000 A 
ATOM      9  C   UNL     1       3.527   3.635  19.413  0.00  0.00    +0.000 A 
ATOM     10  C   UNL     1       4.694   3.882  18.475  0.00  0.00    +0.000 C 
ENDROOT
BRANCH   1  11
ATOM     11  N   UNL     1       5.563   5.140  16.550  0.00  0.00    +0.000 NA
ATOM     12  H   UNL     1       6.374   4.582  16.907  0.00  0.00    +0.000 HD
BRANCH  11  13
ATOM     13  C   UNL     1       5.845   6.572  16.710  0.00  0.00    +0.000 C 
BRANCH  13  14
ATOM     14  C   UNL     1       7.149   6.781  17.463  0.00  0.00    +0.000 C 
BRANCH  14  15
ATOM     15  C   UNL     1       7.521   8.272  17.437  0.00  0.00    +0.000 C 
BRANCH  15  16
ATOM     16  C   UNL     1       8.526   8.658  18.523  0.00  0.00    +0.000 C 
BRANCH  16  17
ATOM     17  C   UNL     1       8.978  10.117  18.405  0.00  0.00    +0.000 C 
BRANCH  17  18
ATOM     18  C   UNL     1       9.617  10.589  19.706  0.00  0.00    +0.000 C 
BRANCH  18  20
ATOM     19  C   UNL     1      11.098  11.648  17.979  0.00  0.00    +0.000 C 
ATOM     20  C   UNL     1      10.628  11.702  19.427  0.00  0.00    +0.000 C 
ENDBRANCH  18  20
ENDBRANCH  17  18
ENDBRANCH  16  17
ENDBRANCH  15  16
ENDBRANCH  14  15
ENDBRANCH  13  14
ENDBRANCH  11  13
ENDBRANCH   1  11
BRANCH   8  21
ATOM     21  O   UNL     1       4.807   1.995  20.589  0.00  0.00    +0.000 OA
ATOM     22  H   UNL     1       4.945   1.122  20.196  0.00  0.00    +0.000 HD
ENDBRANCH   8  21
TORSDOF 9
ENDMDL
MODEL 5
REMARK VINA RESULT:      -6.4      3.016      6.817
REMARK  Name = 
REMARK  10 active torsions:
REMARK  status: ('A' for Active; 'I' for Inactive)
REMARK    1  A    between atoms: C_1  and  C_2
REMARK    2  A    between atoms: C_2  and  C_3
REMARK    3  A    between atoms: C_3  and  C_4
REMARK    4  A    between atoms: C_4  and  C_5
REMARK    5  A    between atoms: C_5  and  C_6
REMARK    6  A    between atoms: C_6  and  C_7
REMARK    7  A    between atoms: C_7  and  C_8
REMARK    8  A    between atoms: C_8  and  N_9
REMARK    9  A    between atoms: N_9  and  C_10
REMARK   10  A    between atoms: C_17  and  O_18
REMARK                            x       y       z     vdW  Elec       q    Type
REMARK                         _______ _______ _______ _____ _____    ______ ____
ROOT
ATOM      1  C   UNL     1       4.953   5.537  17.909  0.00  0.00    +0.000 C 
ATOM      2  C   UNL     1       4.367   4.645  16.805  0.00  0.00    +0.000 C 
ATOM      3  C   UNL     1       3.800   3.366  17.418  0.00  0.00    +0.000 C 
ATOM      4  C   UNL     1       2.875   3.641  18.572  0.00  0.00    +0.000 A 
ATOM      5  C   UNL     1       2.009   2.624  18.988  0.00  0.00    +0.000 A 
ATOM      6  C   UNL     1       1.099   2.848  20.018  0.00  0.00    +0.000 A 
ATOM      7  C   UNL     1       1.045   4.092  20.647  0.00  0.00    +0.000 A 
ATOM      8  C   UNL     1       1.919   5.119  20.260  0.00  0.00    +0.000 A 
ATOM      9  C   UNL     1       2.854   4.897  19.230  0.00  0.00    +0.000 A 
ATOM     10  C   UNL     1       3.811   6.007  18.837  0.00  0.00    +0.000 C 
ENDROOT
BRANCH   1  11
ATOM     11  N   UNL     1       5.654   6.719  17.373  0.00  0.00    +0.000 NA
ATOM     12  H   UNL     1       5.207   7.027  16.478  0.00  0.00    +0.000 HD
BRANCH  11  13
ATOM     13  C   UNL     1       7.081   6.463  17.146  0.00  0.00    +0.000 C 
BRANCH  13  14
ATOM     14  C   UNL     1       7.927   7.183  18.183  0.00  0.00    +0.000 C 
BRANCH  14  15
ATOM     15  C   UNL     1       8.055   8.666  17.798  0.00  0.00    +0.000 C 
BRANCH  15  16
ATOM     16  C   UNL     1       8.844   9.484  18.822  0.00  0.00    +0.000 C 
BRANCH  16  17
ATOM     17  C   UNL     1       9.309  10.830  18.256  0.00  0.00    +0.000 C 
BRANCH  17  18
ATOM     18  C   UNL     1      10.299  11.499  19.202  0.00  0.00    +0.000 C 
BRANCH  18  20
ATOM     19  C   UNL     1      11.567  12.720  17.414  0.00  0.00    +0.000 C 
ATOM     20  C   UNL     1      11.655  11.672  18.516  0.00  0.00    +0.000 C 
ENDBRANCH  18  20
ENDBRANCH  17  18
ENDBRANCH  16  17
ENDBRANCH  15  16
ENDBRANCH  14  15
ENDBRANCH  13  14
ENDBRANCH  11  13
ENDBRANCH   1  11
BRANCH   8  21
ATOM     21  O   UNL     1       1.870   6.318  20.881  0.00  0.00    +0.000 OA
ATOM     22  H   UNL     1       1.290   6.483  21.637  0.00  0.00    +0.000 HD
ENDBRANCH   8  21
TORSDOF 9
ENDMDL
MODEL 6
REMARK VINA RESULT:      -6.4      3.339      6.607
REMARK  Name = 
REMARK  10 active torsions:
REMARK  status: ('A' for Active; 'I' for Inactive)
REMARK    1  A    between atoms: C_1  and  C_2
REMARK    2  A    between atoms: C_2  and  C_3
REMARK    3  A    between atoms: C_3  and  C_4
REMARK    4  A    between atoms: C_4  and  C_5
REMARK    5  A    between atoms: C_5  and  C_6
REMARK    6  A    between atoms: C_6  and  C_7
REMARK    7  A    between atoms: C_7  and  C_8
REMARK    8  A    between atoms: C_8  and  N_9
REMARK    9  A    between atoms: N_9  and  C_10
REMARK   10  A    between atoms: C_17  and  O_18
REMARK                            x       y       z     vdW  Elec       q    Type
REMARK                         _______ _______ _______ _____ _____    ______ ____
ROOT
ATOM      1  C   UNL     1       4.452   5.364  16.879  0.00  0.00    +0.000 C 
ATOM      2  C   UNL     1       4.045   6.385  17.952  0.00  0.00    +0.000 C 
ATOM      3  C   UNL     1       2.613   6.115  18.409  0.00  0.00    +0.000 C 
ATOM      4  C   UNL     1       2.391   4.674  18.783  0.00  0.00    +0.000 A 
ATOM      5  C   UNL     1       1.268   4.354  19.555  0.00  0.00    +0.000 A 
ATOM      6  C   UNL     1       1.047   3.042  19.969  0.00  0.00    +0.000 A 
ATOM      7  C   UNL     1       1.945   2.035  19.615  0.00  0.00    +0.000 A 
ATOM      8  C   UNL     1       3.066   2.331  18.824  0.00  0.00    +0.000 A 
ATOM      9  C   UNL     1       3.289   3.652  18.387  0.00  0.00    +0.000 A 
ATOM     10  C   UNL     1       4.491   3.956  17.512  0.00  0.00    +0.000 C 
ENDROOT
BRANCH   1  11
ATOM     11  N   UNL     1       5.768   5.660  16.282  0.00  0.00    +0.000 NA
ATOM     12  H   UNL     1       5.647   6.187  15.386  0.00  0.00    +0.000 HD
BRANCH  11  13
ATOM     13  C   UNL     1       6.550   4.443  16.033  0.00  0.00    +0.000 C 
BRANCH  13  14
ATOM     14  C   UNL     1       6.157   3.816  14.705  0.00  0.00    +0.000 C 
BRANCH  14  15
ATOM     15  C   UNL     1       6.815   4.597  13.556  0.00  0.00    +0.000 C 
BRANCH  15  16
ATOM     16  C   UNL     1       6.702   3.886  12.206  0.00  0.00    +0.000 C 
BRANCH  16  17
ATOM     17  C   UNL     1       5.638   2.782  12.219  0.00  0.00    +0.000 C 
BRANCH  17  18
ATOM     18  C   UNL     1       4.849   2.781  10.915  0.00  0.00    +0.000 C 
BRANCH  18  20
ATOM     19  C   UNL     1       3.042   4.038   9.712  0.00  0.00    +0.000 C 
ATOM     20  C   UNL     1       3.563   3.593  11.072  0.00  0.00    +0.000 C 
ENDBRANCH  18  20
ENDBRANCH  17  18
ENDBRANCH  16  17
ENDBRANCH  15  16
ENDBRANCH  14  15
ENDBRANCH  13  14
ENDBRANCH  11  13
ENDBRANCH   1  11
BRANCH   8  21
ATOM     21  O   UNL     1       3.925   1.350  18.475  0.00  0.00    +0.000 OA
ATOM     22  H   UNL     1       4.863   1.380  18.706  0.00  0.00    +0.000 HD
ENDBRANCH   8  21
TORSDOF 9
ENDMDL
MODEL 7
REMARK VINA RESULT:      -6.4      3.589      6.692
REMARK  Name = 
REMARK  10 active torsions:
REMARK  status: ('A' for Active; 'I' for Inactive)
REMARK    1  A    between atoms: C_1  and  C_2
REMARK    2  A    between atoms: C_2  and  C_3
REMARK    3  A    between atoms: C_3  and  C_4
REMARK    4  A    between atoms: C_4  and  C_5
REMARK    5  A    between atoms: C_5  and  C_6
REMARK    6  A    between atoms: C_6  and  C_7
REMARK    7  A    between atoms: C_7  and  C_8
REMARK    8  A    between atoms: C_8  and  N_9
REMARK    9  A    between atoms: N_9  and  C_10
REMARK   10  A    between atoms: C_17  and  O_18
REMARK                            x       y       z     vdW  Elec       q    Type
REMARK                         _______ _______ _______ _____ _____    ______ ____
ROOT
ATOM      1  C   UNL     1       4.804   3.982  17.040  0.00  0.00    +0.000 C 
ATOM      2  C   UNL     1       5.439   4.709  18.235  0.00  0.00    +0.000 C 
ATOM      3  C   UNL     1       4.382   5.548  18.952  0.00  0.00    +0.000 C 
ATOM      4  C   UNL     1       3.142   4.758  19.273  0.00  0.00    +0.000 A 
ATOM      5  C   UNL     1       2.259   5.267  20.232  0.00  0.00    +0.000 A 
ATOM      6  C   UNL     1       1.124   4.549  20.599  0.00  0.00    +0.000 A 
ATOM      7  C   UNL     1       0.856   3.313  20.010  0.00  0.00    +0.000 A 
ATOM      8  C   UNL     1       1.716   2.794  19.030  0.00  0.00    +0.000 A 
ATOM      9  C   UNL     1       2.859   3.521  18.641  0.00  0.00    +0.000 A 
ATOM     10  C   UNL     1       3.769   2.962  17.563  0.00  0.00    +0.000 C 
ENDROOT
BRANCH   1  11
ATOM     11  N   UNL     1       5.799   3.274  16.211  0.00  0.00    +0.000 NA
ATOM     12  H   UNL     1       6.390   2.652  16.812  0.00  0.00    +0.000 HD
BRANCH  11  13
ATOM     13  C   UNL     1       6.661   4.201  15.468  0.00  0.00    +0.000 C 
BRANCH  13  14
ATOM     14  C   UNL     1       6.031   4.566  14.134  0.00  0.00    +0.000 C 
BRANCH  14  15
ATOM     15  C   UNL     1       7.062   4.373  13.010  0.00  0.00    +0.000 C 
BRANCH  15  16
ATOM     16  C   UNL     1       6.492   3.645  11.792  0.00  0.00    +0.000 C 
BRANCH  16  17
ATOM     17  C   UNL     1       5.199   2.890  12.118  0.00  0.00    +0.000 C 
BRANCH  17  18
ATOM     18  C   UNL     1       3.987   3.640  11.578  0.00  0.00    +0.000 C 
BRANCH  18  20
ATOM     19  C   UNL     1       2.715   4.254   9.505  0.00  0.00    +0.000 C 
ATOM     20  C   UNL     1       3.987   3.617  10.049  0.00  0.00    +0.000 C 
ENDBRANCH  18  20
ENDBRANCH  17  18
ENDBRANCH  16  17
ENDBRANCH  15  16
ENDBRANCH  14  15
ENDBRANCH  13  14
ENDBRANCH  11  13
ENDBRANCH   1  11
BRANCH   8  21
ATOM     21  O   UNL     1       1.445   1.603  18.455  0.00  0.00    +0.000 OA
ATOM     22  H   UNL     1       1.890   1.307  17.649  0.00  0.00    +0.000 HD
ENDBRANCH   8  21
TORSDOF 9
ENDMDL
MODEL 8
REMARK VINA RESULT:      -6.4      3.046      6.432
REMARK  Name = 
REMARK  10 active torsions:
REMARK  status: ('A' for Active; 'I' for Inactive)
REMARK    1  A    between atoms: C_1  and  C_2
REMARK    2  A    between atoms: C_2  and  C_3
REMARK    3  A    between atoms: C_3  and  C_4
REMARK    4  A    between atoms: C_4  and  C_5
REMARK    5  A    between atoms: C_5  and  C_6
REMARK    6  A    between atoms: C_6  and  C_7
REMARK    7  A    between atoms: C_7  and  C_8
REMARK    8  A    between atoms: C_8  and  N_9
REMARK    9  A    between atoms: N_9  and  C_10
REMARK   10  A    between atoms: C_17  and  O_18
REMARK                            x       y       z     vdW  Elec       q    Type
REMARK                         _______ _______ _______ _____ _____    ______ ____
ROOT
ATOM      1  C   UNL     1       5.193   4.416  17.954  0.00  0.00    +0.000 C 
ATOM      2  C   UNL     1       4.446   3.435  17.039  0.00  0.00    +0.000 C 
ATOM      3  C   UNL     1       3.592   2.488  17.879  0.00  0.00    +0.000 C 
ATOM      4  C   UNL     1       2.726   3.219  18.869  0.00  0.00    +0.000 A 
ATOM      5  C   UNL     1       1.644   2.538  19.437  0.00  0.00    +0.000 A 
ATOM      6  C   UNL     1       0.785   3.188  20.320  0.00  0.00    +0.000 A 
ATOM      7  C   UNL     1       0.998   4.527  20.646  0.00  0.00    +0.000 A 
ATOM      8  C   UNL     1       2.090   5.223  20.105  0.00  0.00    +0.000 A 
ATOM      9  C   UNL     1       2.974   4.569  19.224  0.00  0.00    +0.000 A 
ATOM     10  C   UNL     1       4.165   5.324  18.664  0.00  0.00    +0.000 C 
ENDROOT
BRANCH   1  11
ATOM     11  N   UNL     1       6.154   5.260  17.220  0.00  0.00    +0.000 NA
ATOM     12  H   UNL     1       5.645   5.891  16.557  0.00  0.00    +0.000 HD
BRANCH  11  13
ATOM     13  C   UNL     1       7.140   4.464  16.480  0.00  0.00    +0.000 C 
BRANCH  13  14
ATOM     14  C   UNL     1       7.336   5.020  15.079  0.00  0.00    +0.000 C 
BRANCH  14  15
ATOM     15  C   UNL     1       5.983   5.060  14.351  0.00  0.00    +0.000 C 
BRANCH  15  16
ATOM     16  C   UNL     1       5.613   3.726  13.702  0.00  0.00    +0.000 C 
BRANCH  16  17
ATOM     17  C   UNL     1       6.392   3.473  12.407  0.00  0.00    +0.000 C 
BRANCH  17  18
ATOM     18  C   UNL     1       5.475   2.905  11.330  0.00  0.00    +0.000 C 
BRANCH  18  20
ATOM     19  C   UNL     1       3.270   3.416  10.247  0.00  0.00    +0.000 C 
ATOM     20  C   UNL     1       4.035   3.363  11.564  0.00  0.00    +0.000 C 
ENDBRANCH  18  20
ENDBRANCH  17  18
ENDBRANCH  16  17
ENDBRANCH  15  16
ENDBRANCH  14  15
ENDBRANCH  13  14
ENDBRANCH  11  13
ENDBRANCH   1  11
BRANCH   8  21
ATOM     21  O   UNL     1       2.298   6.516  20.435  0.00  0.00    +0.000 OA
ATOM     22  H   UNL     1       1.894   6.920  21.215  0.00  0.00    +0.000 HD
ENDBRANCH   8  21
TORSDOF 9
ENDMDL
MODEL 9
REMARK VINA RESULT:      -6.3      3.149      6.421
REMARK  Name = 
REMARK  10 active torsions:
REMARK  status: ('A' for Active; 'I' for Inactive)
REMARK    1  A    between atoms: C_1  and  C_2
REMARK    2  A    between atoms: C_2  and  C_3
REMARK    3  A    between atoms: C_3  and  C_4
REMARK    4  A    between atoms: C_4  and  C_5
REMARK    5  A    between atoms: C_5  and  C_6
REMARK    6  A    between atoms: C_6  and  C_7
REMARK    7  A    between atoms: C_7  and  C_8
REMARK    8  A    between atoms: C_8  and  N_9
REMARK    9  A    between atoms: N_9  and  C_10
REMARK   10  A    between atoms: C_17  and  O_18
REMARK                            x       y       z     vdW  Elec       q    Type
REMARK                         _______ _______ _______ _____ _____    ______ ____
ROOT
ATOM      1  C   UNL     1       4.591   5.460  17.868  0.00  0.00    +0.000 C 
ATOM      2  C   UNL     1       3.615   6.511  18.416  0.00  0.00    +0.000 C 
ATOM      3  C   UNL     1       2.242   5.879  18.637  0.00  0.00    +0.000 C 
ATOM      4  C   UNL     1       2.317   4.603  19.432  0.00  0.00    +0.000 A 
ATOM      5  C   UNL     1       1.145   4.116  20.022  0.00  0.00    +0.000 A 
ATOM      6  C   UNL     1       1.175   2.967  20.808  0.00  0.00    +0.000 A 
ATOM      7  C   UNL     1       2.376   2.290  21.014  0.00  0.00    +0.000 A 
ATOM      8  C   UNL     1       3.559   2.748  20.415  0.00  0.00    +0.000 A 
ATOM      9  C   UNL     1       3.537   3.900  19.604  0.00  0.00    +0.000 A 
ATOM     10  C   UNL     1       4.817   4.373  18.941  0.00  0.00    +0.000 C 
ENDROOT
BRANCH   1  11
ATOM     11  N   UNL     1       5.894   6.038  17.487  0.00  0.00    +0.000 NA
ATOM     12  H   UNL     1       5.756   6.982  17.057  0.00  0.00    +0.000 HD
BRANCH  11  13
ATOM     13  C   UNL     1       6.632   5.178  16.555  0.00  0.00    +0.000 C 
BRANCH  13  14
ATOM     14  C   UNL     1       5.728   4.715  15.423  0.00  0.00    +0.000 C 
BRANCH  14  15
ATOM     15  C   UNL     1       6.567   4.505  14.152  0.00  0.00    +0.000 C 
BRANCH  15  16
ATOM     16  C   UNL     1       6.030   3.386  13.258  0.00  0.00    +0.000 C 
BRANCH  16  17
ATOM     17  C   UNL     1       5.177   3.923  12.104  0.00  0.00    +0.000 C 
BRANCH  17  18
ATOM     18  C   UNL     1       4.686   2.781  11.222  0.00  0.00    +0.000 C 
BRANCH  18  20
ATOM     19  C   UNL     1       3.082   4.009   9.733  0.00  0.00    +0.000 C 
ATOM     20  C   UNL     1       3.215   2.988  10.856  0.00  0.00    +0.000 C 
ENDBRANCH  18  20
ENDBRANCH  17  18
ENDBRANCH  16  17
ENDBRANCH  15  16
ENDBRANCH  14  15
ENDBRANCH  13  14
ENDBRANCH  11  13
ENDBRANCH   1  11
BRANCH   8  21
ATOM     21  O   UNL     1       4.717   2.081  20.608  0.00  0.00    +0.000 OA
ATOM     22  H   UNL     1       4.738   1.159  20.898  0.00  0.00    +0.000 HD
ENDBRANCH   8  21
TORSDOF 9
ENDMDL
