MODEL 1
REMARK VINA RESULT:      -8.4      0.000      0.000
REMARK  Name = 
REMARK  9 active torsions:
REMARK  status: ('A' for Active; 'I' for Inactive)
REMARK    1  A    between atoms: C_1  and  C_2
REMARK    2  A    between atoms: C_5  and  C_6
REMARK    3  A    between atoms: C_6  and  N_7
REMARK    4  A    between atoms: N_7  and  C_8
REMARK    5  A    between atoms: N_7  and  S_17
REMARK    6  A    between atoms: C_11  and  C_12
REMARK    7  A    between atoms: C_12  and  O_14
REMARK    8  A    between atoms: S_17  and  C_20
REMARK    9  A    between atoms: C_23  and  C_24
REMARK                            x       y       z     vdW  Elec       q    Type
REMARK                         _______ _______ _______ _____ _____    ______ ____
ROOT
ATOM      1  N   UNL     1       5.556   4.766  16.597  0.00  0.00    +0.000 N 
ENDROOT
BRANCH   1   2
ATOM      2  C   UNL     1       4.331   4.358  17.213  0.00  0.00    +0.000 A 
ATOM      3  C   UNL     1       3.467   5.273  17.816  0.00  0.00    +0.000 A 
ATOM      4  C   UNL     1       2.277   4.830  18.413  0.00  0.00    +0.000 A 
ATOM      5  C   UNL     1       1.962   3.464  18.420  0.00  0.00    +0.000 A 
ATOM      6  C   UNL     1       2.828   2.550  17.809  0.00  0.00    +0.000 A 
ATOM      7  C   UNL     1       4.010   2.997  17.210  0.00  0.00    +0.000 A 
BRANCH   5   8
ATOM      8  C   UNL     1       0.701   2.946  19.013  0.00  0.00    +0.000 C 
ATOM      9  O   UNL     1       0.055   2.044  18.509  0.00  0.00    +0.000 OA
BRANCH   8  10
ATOM     10  O   UNL     1       0.354   3.545  20.171  0.00  0.00    +0.000 OA
ATOM     11  H   UNL     1       0.551   4.497  20.221  0.00  0.00    +0.000 HD
ENDBRANCH   8  10
ENDBRANCH   5   8
ENDBRANCH   1   2
BRANCH   1  12
ATOM     12  S   UNL     1       6.956   4.795  17.566  0.00  0.00    +0.000 S 
ATOM     13  O   UNL     1       6.679   4.112  18.813  0.00  0.00    +0.000 OA
ATOM     14  O   UNL     1       8.068   4.366  16.742  0.00  0.00    +0.000 OA
BRANCH  12  15
ATOM     15  C   UNL     1       7.292   6.509  17.986  0.00  0.00    +0.000 A 
ATOM     16  C   UNL     1       8.254   6.815  18.956  0.00  0.00    +0.000 A 
ATOM     17  C   UNL     1       8.750   8.125  19.061  0.00  0.00    +0.000 A 
ATOM     18  C   UNL     1       8.307   9.131  18.193  0.00  0.00    +0.000 A 
ATOM     19  C   UNL     1       8.916  10.507  18.215  0.00  0.00    +0.000 C 
ATOM     20  C   UNL     1       7.342   8.817  17.229  0.00  0.00    +0.000 A 
ATOM     21  C   UNL     1       6.833   7.518  17.124  0.00  0.00    +0.000 A 
ENDBRANCH  12  15
ENDBRANCH   1  12
BRANCH   1  22
ATOM     22  C   UNL     1       5.493   5.583  15.367  0.00  0.00    +0.000 C 
BRANCH  22  27
ATOM     23  C   UNL     1       7.229   2.206  10.939  0.00  0.00    +0.000 C 
ATOM     24  C   UNL     1       6.736   3.208  11.942  0.00  0.00    +0.000 A 
ATOM     25  C   UNL     1       7.578   4.198  12.458  0.00  0.00    +0.000 A 
ATOM     26  C   UNL     1       7.149   5.028  13.507  0.00  0.00    +0.000 A 
ATOM     27  C   UNL     1       5.870   4.879  14.071  0.00  0.00    +0.000 A 
ATOM     28  C   UNL     1       5.010   3.934  13.494  0.00  0.00    +0.000 A 
ATOM     29  C   UNL     1       5.440   3.102  12.453  0.00  0.00    +0.000 A 
ENDBRANCH  22  27
ENDBRANCH   1  22
TORSDOF 7
ENDMDL
MODEL 2
REMARK VINA RESULT:      -7.7      7.006      9.782
REMARK  Name = 
REMARK  9 active torsions:
REMARK  status: ('A' for Active; 'I' for Inactive)
REMARK    1  A    between atoms: C_1  and  C_2
REMARK    2  A    between atoms: C_5  and  C_6
REMARK    3  A    between atoms: C_6  and  N_7
REMARK    4  A    between atoms: N_7  and  C_8
REMARK    5  A    between atoms: N_7  and  S_17
REMARK    6  A    between atoms: C_11  and  C_12
REMARK    7  A    between atoms: C_12  and  O_14
REMARK    8  A    between atoms: S_17  and  C_20
REMARK    9  A    between atoms: C_23  and  C_24
REMARK                            x       y       z     vdW  Elec       q    Type
REMARK                         _______ _______ _______ _____ _____    ______ ____
ROOT
ATOM      1  N   UNL     1       0.458  10.754  20.406  0.00  0.00    +0.000 N 
ENDROOT
BRANCH   1   2
ATOM      2  C   UNL     1      -0.647  10.915  19.512  0.00  0.00    +0.000 A 
ATOM      3  C   UNL     1      -1.746  11.715  19.832  0.00  0.00    +0.000 A 
ATOM      4  C   UNL     1      -2.811  11.842  18.928  0.00  0.00    +0.000 A 
ATOM      5  C   UNL     1      -2.782  11.151  17.707  0.00  0.00    +0.000 A 
ATOM      6  C   UNL     1      -1.676  10.355  17.389  0.00  0.00    +0.000 A 
ATOM      7  C   UNL     1      -0.614  10.236  18.291  0.00  0.00    +0.000 A 
BRANCH   5   8
ATOM      8  C   UNL     1      -3.871  11.273  16.703  0.00  0.00    +0.000 C 
ATOM      9  O   UNL     1      -3.996  10.504  15.766  0.00  0.00    +0.000 OA
BRANCH   8  10
ATOM     10  O   UNL     1      -4.721  12.294  16.939  0.00  0.00    +0.000 OA
ATOM     11  H   UNL     1      -4.899  12.871  16.174  0.00  0.00    +0.000 HD
ENDBRANCH   8  10
ENDBRANCH   5   8
ENDBRANCH   1   2
BRANCH   1  12
ATOM     12  S   UNL     1       0.546   9.308  21.300  0.00  0.00    +0.000 S 
ATOM     13  O   UNL     1       1.227   9.570  22.552  0.00  0.00    +0.000 OA
ATOM     14  O   UNL     1      -0.778   8.718  21.312  0.00  0.00    +0.000 OA
BRANCH  12  15
ATOM     15  C   UNL     1       1.583   8.163  20.384  0.00  0.00    +0.000 A 
ATOM     16  C   UNL     1       1.702   6.834  20.809  0.00  0.00    +0.000 A 
ATOM     17  C   UNL     1       2.235   5.867  19.941  0.00  0.00    +0.000 A 
ATOM     18  C   UNL     1       2.636   6.211  18.644  0.00  0.00    +0.000 A 
ATOM     19  C   UNL     1       3.096   5.165  17.665  0.00  0.00    +0.000 C 
ATOM     20  C   UNL     1       2.517   7.542  18.229  0.00  0.00    +0.000 A 
ATOM     21  C   UNL     1       1.998   8.516  19.090  0.00  0.00    +0.000 A 
ENDBRANCH  12  15
ENDBRANCH   1  12
BRANCH   1  22
ATOM     22  C   UNL     1       1.164  11.961  20.884  0.00  0.00    +0.000 C 
BRANCH  22  27
ATOM     23  C   UNL     1       3.288  16.082  17.345  0.00  0.00    +0.000 C 
ATOM     24  C   UNL     1       2.590  15.011  18.132  0.00  0.00    +0.000 A 
ATOM     25  C   UNL     1       1.636  15.327  19.104  0.00  0.00    +0.000 A 
ATOM     26  C   UNL     1       1.105  14.330  19.939  0.00  0.00    +0.000 A 
ATOM     27  C   UNL     1       1.526  12.993  19.826  0.00  0.00    +0.000 A 
ATOM     28  C   UNL     1       2.425  12.678  18.798  0.00  0.00    +0.000 A 
ATOM     29  C   UNL     1       2.959  13.674  17.970  0.00  0.00    +0.000 A 
ENDBRANCH  22  27
ENDBRANCH   1  22
TORSDOF 7
ENDMDL
MODEL 3
REMARK VINA RESULT:      -7.6      7.984     10.766
REMARK  Name = 
REMARK  9 active torsions:
REMARK  status: ('A' for Active; 'I' for Inactive)
REMARK    1  A    between atoms: C_1  and  C_2
REMARK    2  A    between atoms: C_5  and  C_6
REMARK    3  A    between atoms: C_6  and  N_7
REMARK    4  A    between atoms: N_7  and  C_8
REMARK    5  A    between atoms: N_7  and  S_17
REMARK    6  A    between atoms: C_11  and  C_12
REMARK    7  A    between atoms: C_12  and  O_14
REMARK    8  A    between atoms: S_17  and  C_20
REMARK    9  A    between atoms: C_23  and  C_24
REMARK                            x       y       z     vdW  Elec       q    Type
REMARK                         _______ _______ _______ _____ _____    ______ ____
ROOT
ATOM      1  N   UNL     1       0.742  11.215  19.042  0.00  0.00    +0.000 N 
ENDROOT
BRANCH   1   2
ATOM      2  C   UNL     1       1.278   9.889  19.054  0.00  0.00    +0.000 A 
ATOM      3  C   UNL     1       1.245   9.089  20.198  0.00  0.00    +0.000 A 
ATOM      4  C   UNL     1       1.786   7.795  20.168  0.00  0.00    +0.000 A 
ATOM      5  C   UNL     1       2.377   7.308  18.992  0.00  0.00    +0.000 A 
ATOM      6  C   UNL     1       2.403   8.111  17.847  0.00  0.00    +0.000 A 
ATOM      7  C   UNL     1       1.857   9.399  17.880  0.00  0.00    +0.000 A 
BRANCH   5   8
ATOM      8  C   UNL     1       2.939   5.936  18.899  0.00  0.00    +0.000 C 
ATOM      9  O   UNL     1       3.866   5.552  19.592  0.00  0.00    +0.000 OA
BRANCH   8  10
ATOM     10  O   UNL     1       2.314   5.148  18.000  0.00  0.00    +0.000 OA
ATOM     11  H   UNL     1       1.412   4.874  18.245  0.00  0.00    +0.000 HD
ENDBRANCH   8  10
ENDBRANCH   5   8
ENDBRANCH   1   2
BRANCH   1  12
ATOM     12  S   UNL     1      -0.951  11.382  18.967  0.00  0.00    +0.000 S 
ATOM     13  O   UNL     1      -1.285  12.317  17.912  0.00  0.00    +0.000 OA
ATOM     14  O   UNL     1      -1.523  10.050  18.955  0.00  0.00    +0.000 OA
BRANCH  12  15
ATOM     15  C   UNL     1      -1.493  12.132  20.506  0.00  0.00    +0.000 A 
ATOM     16  C   UNL     1      -1.049  11.616  21.729  0.00  0.00    +0.000 A 
ATOM     17  C   UNL     1      -1.198  12.372  22.904  0.00  0.00    +0.000 A 
ATOM     18  C   UNL     1      -1.774  13.649  22.866  0.00  0.00    +0.000 A 
ATOM     19  C   UNL     1      -1.830  14.517  24.094  0.00  0.00    +0.000 C 
ATOM     20  C   UNL     1      -2.219  14.155  21.639  0.00  0.00    +0.000 A 
ATOM     21  C   UNL     1      -2.085  13.404  20.466  0.00  0.00    +0.000 A 
ENDBRANCH  12  15
ENDBRANCH   1  12
BRANCH   1  22
ATOM     22  C   UNL     1       1.613  12.327  18.608  0.00  0.00    +0.000 C 
BRANCH  22  27
ATOM     23  C   UNL     1       0.638  16.856  22.151  0.00  0.00    +0.000 C 
ATOM     24  C   UNL     1       1.056  15.780  21.192  0.00  0.00    +0.000 A 
ATOM     25  C   UNL     1       0.753  15.861  19.830  0.00  0.00    +0.000 A 
ATOM     26  C   UNL     1       1.012  14.780  18.972  0.00  0.00    +0.000 A 
ATOM     27  C   UNL     1       1.573  13.586  19.461  0.00  0.00    +0.000 A 
ATOM     28  C   UNL     1       1.942  13.547  20.813  0.00  0.00    +0.000 A 
ATOM     29  C   UNL     1       1.677  14.624  21.669  0.00  0.00    +0.000 A 
ENDBRANCH  22  27
ENDBRANCH   1  22
TORSDOF 7
ENDMDL
MODEL 4
REMARK VINA RESULT:      -7.6      7.163      9.894
REMARK  Name = 
REMARK  9 active torsions:
REMARK  status: ('A' for Active; 'I' for Inactive)
REMARK    1  A    between atoms: C_1  and  C_2
REMARK    2  A    between atoms: C_5  and  C_6
REMARK    3  A    between atoms: C_6  and  N_7
REMARK    4  A    between atoms: N_7  and  C_8
REMARK    5  A    between atoms: N_7  and  S_17
REMARK    6  A    between atoms: C_11  and  C_12
REMARK    7  A    between atoms: C_12  and  O_14
REMARK    8  A    between atoms: S_17  and  C_20
REMARK    9  A    between atoms: C_23  and  C_24
REMARK                            x       y       z     vdW  Elec       q    Type
REMARK                         _______ _______ _______ _____ _____    ______ ____
ROOT
ATOM      1  N   UNL     1       0.484  10.870  20.289  0.00  0.00    +0.000 N 
ENDROOT
BRANCH   1   2
ATOM      2  C   UNL     1      -0.696  11.031  19.497  0.00  0.00    +0.000 A 
ATOM      3  C   UNL     1      -0.841  10.416  18.253  0.00  0.00    +0.000 A 
ATOM      4  C   UNL     1      -2.013  10.604  17.507  0.00  0.00    +0.000 A 
ATOM      5  C   UNL     1      -3.037  11.426  18.002  0.00  0.00    +0.000 A 
ATOM      6  C   UNL     1      -2.890  12.036  19.253  0.00  0.00    +0.000 A 
ATOM      7  C   UNL     1      -1.721  11.841  19.996  0.00  0.00    +0.000 A 
BRANCH   5   8
ATOM      8  C   UNL     1      -4.310  11.636  17.265  0.00  0.00    +0.000 C 
ATOM      9  O   UNL     1      -4.603  11.011  16.261  0.00  0.00    +0.000 OA
BRANCH   8  10
ATOM     10  O   UNL     1      -5.121  12.558  17.823  0.00  0.00    +0.000 OA
ATOM     11  H   UNL     1      -4.868  13.485  17.662  0.00  0.00    +0.000 HD
ENDBRANCH   8  10
ENDBRANCH   5   8
ENDBRANCH   1   2
BRANCH   1  12
ATOM     12  S   UNL     1       0.730   9.364  21.043  0.00  0.00    +0.000 S 
ATOM     13  O   UNL     1       1.678   9.529  22.126  0.00  0.00    +0.000 OA
ATOM     14  O   UNL     1      -0.574   8.790  21.311  0.00  0.00    +0.000 OA
BRANCH  12  15
ATOM     15  C   UNL     1       1.506   8.274  19.846  0.00  0.00    +0.000 A 
ATOM     16  C   UNL     1       1.984   8.793  18.636  0.00  0.00    +0.000 A 
ATOM     17  C   UNL     1       2.864   8.034  17.848  0.00  0.00    +0.000 A 
ATOM     18  C   UNL     1       3.287   6.764  18.264  0.00  0.00    +0.000 A 
ATOM     19  C   UNL     1       4.320   5.992  17.491  0.00  0.00    +0.000 C 
ATOM     20  C   UNL     1       2.800   6.252  19.473  0.00  0.00    +0.000 A 
ATOM     21  C   UNL     1       1.915   6.996  20.260  0.00  0.00    +0.000 A 
ENDBRANCH  12  15
ENDBRANCH   1  12
BRANCH   1  22
ATOM     22  C   UNL     1       1.154  12.077  20.817  0.00  0.00    +0.000 C 
BRANCH  22  27
ATOM     23  C   UNL     1       3.196  16.386  17.458  0.00  0.00    +0.000 C 
ATOM     24  C   UNL     1       2.522  15.265  18.195  0.00  0.00    +0.000 A 
ATOM     25  C   UNL     1       1.536  15.514  19.154  0.00  0.00    +0.000 A 
ATOM     26  C   UNL     1       1.025  14.471  19.945  0.00  0.00    +0.000 A 
ATOM     27  C   UNL     1       1.499  13.155  19.800  0.00  0.00    +0.000 A 
ATOM     28  C   UNL     1       2.432  12.908  18.784  0.00  0.00    +0.000 A 
ATOM     29  C   UNL     1       2.945  13.949  18.000  0.00  0.00    +0.000 A 
ENDBRANCH  22  27
ENDBRANCH   1  22
TORSDOF 7
ENDMDL
MODEL 5
REMARK VINA RESULT:      -7.5      2.934      7.664
REMARK  Name = 
REMARK  9 active torsions:
REMARK  status: ('A' for Active; 'I' for Inactive)
REMARK    1  A    between atoms: C_1  and  C_2
REMARK    2  A    between atoms: C_5  and  C_6
REMARK    3  A    between atoms: C_6  and  N_7
REMARK    4  A    between atoms: N_7  and  C_8
REMARK    5  A    between atoms: N_7  and  S_17
REMARK    6  A    between atoms: C_11  and  C_12
REMARK    7  A    between atoms: C_12  and  O_14
REMARK    8  A    between atoms: S_17  and  C_20
REMARK    9  A    between atoms: C_23  and  C_24
REMARK                            x       y       z     vdW  Elec       q    Type
REMARK                         _______ _______ _______ _____ _____    ______ ____
ROOT
ATOM      1  N   UNL     1       4.732   4.274  17.672  0.00  0.00    +0.000 N 
ENDROOT
BRANCH   1   2
ATOM      2  C   UNL     1       5.456   4.464  16.453  0.00  0.00    +0.000 A 
ATOM      3  C   UNL     1       4.882   4.209  15.206  0.00  0.00    +0.000 A 
ATOM      4  C   UNL     1       5.629   4.404  14.035  0.00  0.00    +0.000 A 
ATOM      5  C   UNL     1       6.961   4.838  14.115  0.00  0.00    +0.000 A 
ATOM      6  C   UNL     1       7.529   5.098  15.366  0.00  0.00    +0.000 A 
ATOM      7  C   UNL     1       6.779   4.908  16.531  0.00  0.00    +0.000 A 
BRANCH   5   8
ATOM      8  C   UNL     1       7.786   5.087  12.904  0.00  0.00    +0.000 C 
ATOM      9  O   UNL     1       7.550   4.571  11.826  0.00  0.00    +0.000 OA
BRANCH   8  10
ATOM     10  O   UNL     1       8.800   5.955  13.102  0.00  0.00    +0.000 OA
ATOM     11  H   UNL     1       9.426   5.708  13.807  0.00  0.00    +0.000 HD
ENDBRANCH   8  10
ENDBRANCH   5   8
ENDBRANCH   1   2
BRANCH   1  12
ATOM     12  S   UNL     1       3.460   3.143  17.668  0.00  0.00    +0.000 S 
ATOM     13  O   UNL     1       2.441   3.585  16.739  0.00  0.00    +0.000 OA
ATOM     14  O   UNL     1       4.046   1.825  17.520  0.00  0.00    +0.000 OA
BRANCH  12  15
ATOM     15  C   UNL     1       2.709   3.162  19.299  0.00  0.00    +0.000 A 
ATOM     16  C   UNL     1       1.332   3.383  19.432  0.00  0.00    +0.000 A 
ATOM     17  C   UNL     1       0.689   3.084  20.644  0.00  0.00    +0.000 A 
ATOM     18  C   UNL     1       1.405   2.550  21.724  0.00  0.00    +0.000 A 
ATOM     19  C   UNL     1       0.710   2.114  22.984  0.00  0.00    +0.000 C 
ATOM     20  C   UNL     1       2.781   2.336  21.583  0.00  0.00    +0.000 A 
ATOM     21  C   UNL     1       3.433   2.640  20.383  0.00  0.00    +0.000 A 
ENDBRANCH  12  15
ENDBRANCH   1  12
BRANCH   1  22
ATOM     22  C   UNL     1       4.761   5.348  18.687  0.00  0.00    +0.000 C 
BRANCH  22  27
ATOM     23  C   UNL     1       1.074   9.866  18.753  0.00  0.00    +0.000 C 
ATOM     24  C   UNL     1       1.871   8.598  18.671  0.00  0.00    +0.000 A 
ATOM     25  C   UNL     1       1.906   7.690  19.733  0.00  0.00    +0.000 A 
ATOM     26  C   UNL     1       2.776   6.587  19.705  0.00  0.00    +0.000 A 
ATOM     27  C   UNL     1       3.639   6.374  18.615  0.00  0.00    +0.000 A 
ATOM     28  C   UNL     1       3.538   7.249  17.525  0.00  0.00    +0.000 A 
ATOM     29  C   UNL     1       2.676   8.352  17.556  0.00  0.00    +0.000 A 
ENDBRANCH  22  27
ENDBRANCH   1  22
TORSDOF 7
ENDMDL
MODEL 6
REMARK VINA RESULT:      -7.5      8.066     10.878
REMARK  Name = 
REMARK  9 active torsions:
REMARK  status: ('A' for Active; 'I' for Inactive)
REMARK    1  A    between atoms: C_1  and  C_2
REMARK    2  A    between atoms: C_5  and  C_6
REMARK    3  A    between atoms: C_6  and  N_7
REMARK    4  A    between atoms: N_7  and  C_8
REMARK    5  A    between atoms: N_7  and  S_17
REMARK    6  A    between atoms: C_11  and  C_12
REMARK    7  A    between atoms: C_12  and  O_14
REMARK    8  A    between atoms: S_17  and  C_20
REMARK    9  A    between atoms: C_23  and  C_24
REMARK                            x       y       z     vdW  Elec       q    Type
REMARK                         _______ _______ _______ _____ _____    ______ ____
ROOT
ATOM      1  N   UNL     1       0.660  11.262  19.041  0.00  0.00    +0.000 N 
ENDROOT
BRANCH   1   2
ATOM      2  C   UNL     1       1.236   9.953  19.025  0.00  0.00    +0.000 A 
ATOM      3  C   UNL     1       1.803   9.409  17.871  0.00  0.00    +0.000 A 
ATOM      4  C   UNL     1       2.354   8.119  17.898  0.00  0.00    +0.000 A 
ATOM      5  C   UNL     1       2.320   7.365  19.081  0.00  0.00    +0.000 A 
ATOM      6  C   UNL     1       1.757   7.917  20.237  0.00  0.00    +0.000 A 
ATOM      7  C   UNL     1       1.214   9.206  20.206  0.00  0.00    +0.000 A 
BRANCH   5   8
ATOM      8  C   UNL     1       2.915   6.006  19.171  0.00  0.00    +0.000 C 
ATOM      9  O   UNL     1       2.378   5.088  19.764  0.00  0.00    +0.000 OA
BRANCH   8  10
ATOM     10  O   UNL     1       4.086   5.876  18.514  0.00  0.00    +0.000 OA
ATOM     11  H   UNL     1       4.295   6.596  17.891  0.00  0.00    +0.000 HD
ENDBRANCH   8  10
ENDBRANCH   5   8
ENDBRANCH   1   2
BRANCH   1  12
ATOM     12  S   UNL     1      -1.036  11.379  18.949  0.00  0.00    +0.000 S 
ATOM     13  O   UNL     1      -1.386  12.318  17.903  0.00  0.00    +0.000 OA
ATOM     14  O   UNL     1      -1.567  10.031  18.912  0.00  0.00    +0.000 OA
BRANCH  12  15
ATOM     15  C   UNL     1      -1.617  12.091  20.491  0.00  0.00    +0.000 A 
ATOM     16  C   UNL     1      -1.125  11.613  21.712  0.00  0.00    +0.000 A 
ATOM     17  C   UNL     1      -1.318  12.359  22.886  0.00  0.00    +0.000 A 
ATOM     18  C   UNL     1      -1.986  13.591  22.851  0.00  0.00    +0.000 A 
ATOM     19  C   UNL     1      -2.095  14.456  24.077  0.00  0.00    +0.000 C 
ATOM     20  C   UNL     1      -2.478  14.059  21.627  0.00  0.00    +0.000 A 
ATOM     21  C   UNL     1      -2.301  13.317  20.454  0.00  0.00    +0.000 A 
ENDBRANCH  12  15
ENDBRANCH   1  12
BRANCH   1  22
ATOM     22  C   UNL     1       1.501  12.411  18.647  0.00  0.00    +0.000 C 
BRANCH  22  27
ATOM     23  C   UNL     1       0.320  16.813  22.286  0.00  0.00    +0.000 C 
ATOM     24  C   UNL     1       0.786  15.780  21.301  0.00  0.00    +0.000 A 
ATOM     25  C   UNL     1       0.459  15.868  19.945  0.00  0.00    +0.000 A 
ATOM     26  C   UNL     1       0.768  14.819  19.064  0.00  0.00    +0.000 A 
ATOM     27  C   UNL     1       1.402  13.651  19.524  0.00  0.00    +0.000 A 
ATOM     28  C   UNL     1       1.790  13.608  20.870  0.00  0.00    +0.000 A 
ATOM     29  C   UNL     1       1.477  14.652  21.749  0.00  0.00    +0.000 A 
ENDBRANCH  22  27
ENDBRANCH   1  22
TORSDOF 7
ENDMDL
MODEL 7
REMARK VINA RESULT:      -7.5      7.196      9.887
REMARK  Name = 
REMARK  9 active torsions:
REMARK  status: ('A' for Active; 'I' for Inactive)
REMARK    1  A    between atoms: C_1  and  C_2
REMARK    2  A    between atoms: C_5  and  C_6
REMARK    3  A    between atoms: C_6  and  N_7
REMARK    4  A    between atoms: N_7  and  C_8
REMARK    5  A    between atoms: N_7  and  S_17
REMARK    6  A    between atoms: C_11  and  C_12
REMARK    7  A    between atoms: C_12  and  O_14
REMARK    8  A    between atoms: S_17  and  C_20
REMARK    9  A    between atoms: C_23  and  C_24
REMARK                            x       y       z     vdW  Elec       q    Type
REMARK                         _______ _______ _______ _____ _____    ______ ____
ROOT
ATOM      1  N   UNL     1       0.425  10.955  20.309  0.00  0.00    +0.000 N 
ENDROOT
BRANCH   1   2
ATOM      2  C   UNL     1      -0.791  11.112  19.571  0.00  0.00    +0.000 A 
ATOM      3  C   UNL     1      -1.842  11.903  20.038  0.00  0.00    +0.000 A 
ATOM      4  C   UNL     1      -3.019  12.027  19.285  0.00  0.00    +0.000 A 
ATOM      5  C   UNL     1      -3.149  11.341  18.068  0.00  0.00    +0.000 A 
ATOM      6  C   UNL     1      -2.091  10.554  17.601  0.00  0.00    +0.000 A 
ATOM      7  C   UNL     1      -0.917  10.439  18.353  0.00  0.00    +0.000 A 
BRANCH   5   8
ATOM      8  C   UNL     1      -4.362  11.460  17.219  0.00  0.00    +0.000 C 
ATOM      9  O   UNL     1      -5.490  11.304  17.652  0.00  0.00    +0.000 OA
BRANCH   8  10
ATOM     10  O   UNL     1      -4.103  11.783  15.934  0.00  0.00    +0.000 OA
ATOM     11  H   UNL     1      -4.093  12.737  15.740  0.00  0.00    +0.000 HD
ENDBRANCH   8  10
ENDBRANCH   5   8
ENDBRANCH   1   2
BRANCH   1  12
ATOM     12  S   UNL     1       0.714   9.446  21.042  0.00  0.00    +0.000 S 
ATOM     13  O   UNL     1       1.681   9.618  22.107  0.00  0.00    +0.000 OA
ATOM     14  O   UNL     1      -0.573   8.845  21.330  0.00  0.00    +0.000 OA
BRANCH  12  15
ATOM     15  C   UNL     1       1.486   8.384  19.817  0.00  0.00    +0.000 A 
ATOM     16  C   UNL     1       1.908   8.920  18.594  0.00  0.00    +0.000 A 
ATOM     17  C   UNL     1       2.787   8.190  17.776  0.00  0.00    +0.000 A 
ATOM     18  C   UNL     1       3.261   6.933  18.175  0.00  0.00    +0.000 A 
ATOM     19  C   UNL     1       4.293   6.195  17.367  0.00  0.00    +0.000 C 
ATOM     20  C   UNL     1       2.830   6.404  19.397  0.00  0.00    +0.000 A 
ATOM     21  C   UNL     1       1.946   7.118  20.213  0.00  0.00    +0.000 A 
ENDBRANCH  12  15
ENDBRANCH   1  12
BRANCH   1  22
ATOM     22  C   UNL     1       1.107  12.164  20.815  0.00  0.00    +0.000 C 
BRANCH  22  27
ATOM     23  C   UNL     1       3.173  16.445  17.435  0.00  0.00    +0.000 C 
ATOM     24  C   UNL     1       2.509  15.312  18.163  0.00  0.00    +0.000 A 
ATOM     25  C   UNL     1       1.405  15.528  18.993  0.00  0.00    +0.000 A 
ATOM     26  C   UNL     1       0.892  14.489  19.787  0.00  0.00    +0.000 A 
ATOM     27  C   UNL     1       1.480  13.212  19.776  0.00  0.00    +0.000 A 
ATOM     28  C   UNL     1       2.538  12.990  18.883  0.00  0.00    +0.000 A 
ATOM     29  C   UNL     1       3.053  14.028  18.096  0.00  0.00    +0.000 A 
ENDBRANCH  22  27
ENDBRANCH   1  22
TORSDOF 7
ENDMDL
MODEL 8
REMARK VINA RESULT:      -7.5      3.319      5.280
REMARK  Name = 
REMARK  9 active torsions:
REMARK  status: ('A' for Active; 'I' for Inactive)
REMARK    1  A    between atoms: C_1  and  C_2
REMARK    2  A    between atoms: C_5  and  C_6
REMARK    3  A    between atoms: C_6  and  N_7
REMARK    4  A    between atoms: N_7  and  C_8
REMARK    5  A    between atoms: N_7  and  S_17
REMARK    6  A    between atoms: C_11  and  C_12
REMARK    7  A    between atoms: C_12  and  O_14
REMARK    8  A    between atoms: S_17  and  C_20
REMARK    9  A    between atoms: C_23  and  C_24
REMARK                            x       y       z     vdW  Elec       q    Type
REMARK                         _______ _______ _______ _____ _____    ______ ____
ROOT
ATOM      1  N   UNL     1       4.753   5.081  17.414  0.00  0.00    +0.000 N 
ENDROOT
BRANCH   1   2
ATOM      2  C   UNL     1       3.881   6.129  17.846  0.00  0.00    +0.000 A 
ATOM      3  C   UNL     1       3.482   7.158  16.992  0.00  0.00    +0.000 A 
ATOM      4  C   UNL     1       2.629   8.169  17.458  0.00  0.00    +0.000 A 
ATOM      5  C   UNL     1       2.189   8.159  18.790  0.00  0.00    +0.000 A 
ATOM      6  C   UNL     1       2.587   7.122  19.641  0.00  0.00    +0.000 A 
ATOM      7  C   UNL     1       3.433   6.113  19.170  0.00  0.00    +0.000 A 
BRANCH   5   8
ATOM      8  C   UNL     1       1.263   9.190  19.325  0.00  0.00    +0.000 C 
ATOM      9  O   UNL     1       0.911   9.221  20.491  0.00  0.00    +0.000 OA
BRANCH   8  10
ATOM     10  O   UNL     1       0.871  10.102  18.411  0.00  0.00    +0.000 OA
ATOM     11  H   UNL     1       0.203   9.791  17.775  0.00  0.00    +0.000 HD
ENDBRANCH   8  10
ENDBRANCH   5   8
ENDBRANCH   1   2
BRANCH   1  12
ATOM     12  S   UNL     1       6.199   5.527  16.633  0.00  0.00    +0.000 S 
ATOM     13  O   UNL     1       7.133   4.423  16.707  0.00  0.00    +0.000 OA
ATOM     14  O   UNL     1       5.846   6.086  15.343  0.00  0.00    +0.000 OA
BRANCH  12  15
ATOM     15  C   UNL     1       6.927   6.877  17.567  0.00  0.00    +0.000 A 
ATOM     16  C   UNL     1       7.827   6.604  18.604  0.00  0.00    +0.000 A 
ATOM     17  C   UNL     1       8.637   7.631  19.117  0.00  0.00    +0.000 A 
ATOM     18  C   UNL     1       8.568   8.928  18.592  0.00  0.00    +0.000 A 
ATOM     19  C   UNL     1       9.512  10.007  19.049  0.00  0.00    +0.000 C 
ATOM     20  C   UNL     1       7.663   9.193  17.558  0.00  0.00    +0.000 A 
ATOM     21  C   UNL     1       6.844   8.179  17.048  0.00  0.00    +0.000 A 
ENDBRANCH  12  15
ENDBRANCH   1  12
BRANCH   1  22
ATOM     22  C   UNL     1       4.189   3.731  17.206  0.00  0.00    +0.000 C 
BRANCH  22  27
ATOM     23  C   UNL     1       1.151   2.312  21.978  0.00  0.00    +0.000 C 
ATOM     24  C   UNL     1       1.944   2.484  20.715  0.00  0.00    +0.000 A 
ATOM     25  C   UNL     1       3.341   2.449  20.722  0.00  0.00    +0.000 A 
ATOM     26  C   UNL     1       4.072   2.766  19.564  0.00  0.00    +0.000 A 
ATOM     27  C   UNL     1       3.418   3.135  18.375  0.00  0.00    +0.000 A 
ATOM     28  C   UNL     1       2.018   3.092  18.362  0.00  0.00    +0.000 A 
ATOM     29  C   UNL     1       1.290   2.783  19.518  0.00  0.00    +0.000 A 
ENDBRANCH  22  27
ENDBRANCH   1  22
TORSDOF 7
ENDMDL
MODEL 9
REMARK VINA RESULT:      -7.4      3.070      6.434
REMARK  Name = 
REMARK  9 active torsions:
REMARK  status: ('A' for Active; 'I' for Inactive)
REMARK    1  A    between atoms: C_1  and  C_2
REMARK    2  A    between atoms: C_5  and  C_6
REMARK    3  A    between atoms: C_6  and  N_7
REMARK    4  A    between atoms: N_7  and  C_8
REMARK    5  A    between atoms: N_7  and  S_17
REMARK    6  A    between atoms: C_11  and  C_12
REMARK    7  A    between atoms: C_12  and  O_14
REMARK    8  A    between atoms: S_17  and  C_20
REMARK    9  A    between atoms: C_23  and  C_24
REMARK                            x       y       z     vdW  Elec       q    Type
REMARK                         _______ _______ _______ _____ _____    ______ ____
ROOT
ATOM      1  N   UNL     1       4.481   5.321  17.971  0.00  0.00    +0.000 N 
ENDROOT
BRANCH   1   2
ATOM      2  C   UNL     1       3.605   6.411  18.270  0.00  0.00    +0.000 A 
ATOM      3  C   UNL     1       2.970   6.531  19.507  0.00  0.00    +0.000 A 
ATOM      4  C   UNL     1       2.115   7.614  19.758  0.00  0.00    +0.000 A 
ATOM      5  C   UNL     1       1.882   8.571  18.759  0.00  0.00    +0.000 A 
ATOM      6  C   UNL     1       2.524   8.450  17.522  0.00  0.00    +0.000 A 
ATOM      7  C   UNL     1       3.381   7.371  17.279  0.00  0.00    +0.000 A 
BRANCH   5   8
ATOM      8  C   UNL     1       1.007   9.752  18.983  0.00  0.00    +0.000 C 
ATOM      9  O   UNL     1       0.313   9.882  19.975  0.00  0.00    +0.000 OA
BRANCH   8  10
ATOM     10  O   UNL     1       1.074  10.676  18.002  0.00  0.00    +0.000 OA
ATOM     11  H   UNL     1       1.974  10.943  17.744  0.00  0.00    +0.000 HD
ENDBRANCH   8  10
ENDBRANCH   5   8
ENDBRANCH   1   2
BRANCH   1  12
ATOM     12  S   UNL     1       6.045   5.695  17.411  0.00  0.00    +0.000 S 
ATOM     13  O   UNL     1       6.246   7.126  17.502  0.00  0.00    +0.000 OA
ATOM     14  O   UNL     1       6.972   4.795  18.069  0.00  0.00    +0.000 OA
BRANCH  12  15
ATOM     15  C   UNL     1       6.114   5.277  15.666  0.00  0.00    +0.000 A 
ATOM     16  C   UNL     1       7.323   5.385  14.969  0.00  0.00    +0.000 A 
ATOM     17  C   UNL     1       7.466   4.767  13.716  0.00  0.00    +0.000 A 
ATOM     18  C   UNL     1       6.416   4.026  13.157  0.00  0.00    +0.000 A 
ATOM     19  C   UNL     1       6.595   3.261  11.875  0.00  0.00    +0.000 C 
ATOM     20  C   UNL     1       5.209   3.928  13.860  0.00  0.00    +0.000 A 
ATOM     21  C   UNL     1       5.053   4.549  15.104  0.00  0.00    +0.000 A 
ENDBRANCH  12  15
ENDBRANCH   1  12
BRANCH   1  22
ATOM     22  C   UNL     1       3.891   3.997  17.682  0.00  0.00    +0.000 C 
BRANCH  22  27
ATOM     23  C   UNL     1       0.952   2.269  22.414  0.00  0.00    +0.000 C 
ATOM     24  C   UNL     1       1.722   2.524  21.151  0.00  0.00    +0.000 A 
ATOM     25  C   UNL     1       3.120   2.513  21.136  0.00  0.00    +0.000 A 
ATOM     26  C   UNL     1       3.827   2.905  19.986  0.00  0.00    +0.000 A 
ATOM     27  C   UNL     1       3.149   3.326  18.829  0.00  0.00    +0.000 A 
ATOM     28  C   UNL     1       1.749   3.258  18.833  0.00  0.00    +0.000 A 
ATOM     29  C   UNL     1       1.045   2.874  19.981  0.00  0.00    +0.000 A 
ENDBRANCH  22  27
ENDBRANCH   1  22
TORSDOF 7
ENDMDL
