MODEL 1
REMARK VINA RESULT:      -8.0      0.000      0.000
REMARK  Name = 
REMARK  8 active torsions:
REMARK  status: ('A' for Active; 'I' for Inactive)
REMARK    1  A    between atoms: C_2  and  C_3
REMARK    2  A    between atoms: C_10  and  C_12
REMARK    3  A    between atoms: C_12  and  N_13
REMARK    4  A    between atoms: C_14  and  C_16
REMARK    5  A    between atoms: C_19  and  C_20
REMARK    6  A    between atoms: C_20  and  C_21
REMARK    7  A    between atoms: C_24  and  O_25
REMARK    8  A    between atoms: O_25  and  C_26
REMARK                            x       y       z     vdW  Elec       q    Type
REMARK                         _______ _______ _______ _____ _____    ______ ____
ROOT
ATOM      1  C   UNL     1       7.991   8.269  18.095  0.00  0.00    +0.000 A 
ATOM      2  C   UNL     1       8.323   7.161  18.864  0.00  0.00    +0.000 A 
ATOM      3  S   UNL     1       7.448   5.779  18.354  0.00  0.00    +0.000 S 
ATOM      4  C   UNL     1       6.687   6.725  17.138  0.00  0.00    +0.000 A 
ATOM      5  N   UNL     1       7.006   8.005  17.143  0.00  0.00    +0.000 NA
ENDROOT
BRANCH   1   7
ATOM      6  N   UNL     1       9.414   9.751  19.347  0.00  0.00    +0.000 N 
ATOM      7  C   UNL     1       8.553   9.615  18.269  0.00  0.00    +0.000 C 
ATOM      8  O   UNL     1       8.275  10.559  17.538  0.00  0.00    +0.000 OA
ATOM      9  H   UNL     1       9.820   8.905  19.730  0.00  0.00    +0.000 HD
BRANCH   6  10
ATOM     10  C   UNL     1      10.039  11.022  19.664  0.00  0.00    +0.000 C 
BRANCH  10  18
ATOM     11  C   UNL     1       8.115  14.229  20.859  0.00  0.00    +0.000 C 
ATOM     12  C   UNL     1       7.388  15.035  19.783  0.00  0.00    +0.000 C 
ATOM     13  C   UNL     1       8.129  14.740  18.488  0.00  0.00    +0.000 C 
ATOM     14  F   UNL     1       7.256  14.312  17.545  0.00  0.00    +0.000 F 
ATOM     15  F   UNL     1       8.728  15.850  18.010  0.00  0.00    +0.000 F 
ATOM     16  C   UNL     1       9.152  13.656  18.779  0.00  0.00    +0.000 C 
ATOM     17  N   UNL     1       8.796  13.152  20.092  0.00  0.00    +0.000 N 
ATOM     18  C   UNL     1       9.244  11.944  20.622  0.00  0.00    +0.000 C 
ATOM     19  O   UNL     1       8.990  11.604  21.775  0.00  0.00    +0.000 OA
BRANCH  11  21
ATOM     20  N   UNL     1       6.351  13.272  22.783  0.00  0.00    +0.000 NA
ATOM     21  C   UNL     1       7.151  13.705  21.910  0.00  0.00    +0.000 C 
ENDBRANCH  11  21
ENDBRANCH  10  18
ENDBRANCH   6  10
ENDBRANCH   1   7
BRANCH   4  22
ATOM     22  C   UNL     1       5.758   6.086  16.145  0.00  0.00    +0.000 C 
BRANCH  22  23
ATOM     23  C   UNL     1       4.559   5.435  16.808  0.00  0.00    +0.000 A 
ATOM     24  C   UNL     1       4.281   4.077  16.628  0.00  0.00    +0.000 A 
ATOM     25  C   UNL     1       3.186   3.492  17.274  0.00  0.00    +0.000 A 
ATOM     26  C   UNL     1       2.364   4.249  18.114  0.00  0.00    +0.000 A 
ATOM     27  C   UNL     1       2.601   5.614  18.247  0.00  0.00    +0.000 A 
ATOM     28  C   UNL     1       3.704   6.197  17.620  0.00  0.00    +0.000 A 
BRANCH  26  29
ATOM     29  O   UNL     1       1.333   3.568  18.684  0.00  0.00    +0.000 OA
BRANCH  29  30
ATOM     30  C   UNL     1       1.582   2.790  19.848  0.00  0.00    +0.000 C 
ATOM     31  F   UNL     1       2.763   3.033  20.451  0.00  0.00    +0.000 F 
ATOM     32  F   UNL     1       0.589   3.000  20.740  0.00  0.00    +0.000 F 
ATOM     33  F   UNL     1       1.561   1.482  19.501  0.00  0.00    +0.000 F 
ENDBRANCH  29  30
ENDBRANCH  26  29
ENDBRANCH  22  23
ENDBRANCH   4  22
TORSDOF 8
ENDMDL
MODEL 2
REMARK VINA RESULT:      -7.9      0.441      1.102
REMARK  Name = 
REMARK  8 active torsions:
REMARK  status: ('A' for Active; 'I' for Inactive)
REMARK    1  A    between atoms: C_2  and  C_3
REMARK    2  A    between atoms: C_10  and  C_12
REMARK    3  A    between atoms: C_12  and  N_13
REMARK    4  A    between atoms: C_14  and  C_16
REMARK    5  A    between atoms: C_19  and  C_20
REMARK    6  A    between atoms: C_20  and  C_21
REMARK    7  A    between atoms: C_24  and  O_25
REMARK    8  A    between atoms: O_25  and  C_26
REMARK                            x       y       z     vdW  Elec       q    Type
REMARK                         _______ _______ _______ _____ _____    ______ ____
ROOT
ATOM      1  C   UNL     1       8.058   8.414  18.147  0.00  0.00    +0.000 A 
ATOM      2  C   UNL     1       8.389   7.297  18.902  0.00  0.00    +0.000 A 
ATOM      3  S   UNL     1       7.503   5.924  18.384  0.00  0.00    +0.000 S 
ATOM      4  C   UNL     1       6.740   6.886  17.183  0.00  0.00    +0.000 A 
ATOM      5  N   UNL     1       7.066   8.164  17.199  0.00  0.00    +0.000 NA
ENDROOT
BRANCH   1   7
ATOM      6  N   UNL     1       9.393   9.910  19.476  0.00  0.00    +0.000 N 
ATOM      7  C   UNL     1       8.627   9.755  18.331  0.00  0.00    +0.000 C 
ATOM      8  O   UNL     1       8.433  10.681  17.551  0.00  0.00    +0.000 OA
ATOM      9  H   UNL     1       9.748   9.069  19.917  0.00  0.00    +0.000 HD
BRANCH   6  10
ATOM     10  C   UNL     1      10.012  11.179  19.810  0.00  0.00    +0.000 C 
BRANCH  10  18
ATOM     11  C   UNL     1       8.059  14.385  20.962  0.00  0.00    +0.000 C 
ATOM     12  C   UNL     1       7.355  15.190  19.870  0.00  0.00    +0.000 C 
ATOM     13  C   UNL     1       8.125  14.896  18.591  0.00  0.00    +0.000 C 
ATOM     14  F   UNL     1       7.274  14.467  17.629  0.00  0.00    +0.000 F 
ATOM     15  F   UNL     1       8.734  16.006  18.127  0.00  0.00    +0.000 F 
ATOM     16  C   UNL     1       9.142  13.813  18.905  0.00  0.00    +0.000 C 
ATOM     17  N   UNL     1       8.757  13.308  20.210  0.00  0.00    +0.000 N 
ATOM     18  C   UNL     1       9.195  12.101  20.750  0.00  0.00    +0.000 C 
ATOM     19  O   UNL     1       8.916  11.761  21.897  0.00  0.00    +0.000 OA
BRANCH  11  21
ATOM     20  N   UNL     1       6.253  13.426  22.846  0.00  0.00    +0.000 NA
ATOM     21  C   UNL     1       7.072  13.861  21.992  0.00  0.00    +0.000 C 
ENDBRANCH  11  21
ENDBRANCH  10  18
ENDBRANCH   6  10
ENDBRANCH   1   7
BRANCH   4  22
ATOM     22  C   UNL     1       5.801   6.262  16.189  0.00  0.00    +0.000 C 
BRANCH  22  23
ATOM     23  C   UNL     1       4.603   5.611  16.853  0.00  0.00    +0.000 A 
ATOM     24  C   UNL     1       3.688   6.364  17.594  0.00  0.00    +0.000 A 
ATOM     25  C   UNL     1       2.575   5.745  18.174  0.00  0.00    +0.000 A 
ATOM     26  C   UNL     1       2.353   4.374  18.011  0.00  0.00    +0.000 A 
ATOM     27  C   UNL     1       3.293   3.611  17.326  0.00  0.00    +0.000 A 
ATOM     28  C   UNL     1       4.396   4.227  16.730  0.00  0.00    +0.000 A 
BRANCH  26  29
ATOM     29  O   UNL     1       1.237   3.891  18.620  0.00  0.00    +0.000 OA
BRANCH  29  30
ATOM     30  C   UNL     1       1.223   3.770  20.038  0.00  0.00    +0.000 C 
ATOM     31  F   UNL     1       0.775   4.858  20.695  0.00  0.00    +0.000 F 
ATOM     32  F   UNL     1       0.458   2.711  20.383  0.00  0.00    +0.000 F 
ATOM     33  F   UNL     1       2.486   3.527  20.459  0.00  0.00    +0.000 F 
ENDBRANCH  29  30
ENDBRANCH  26  29
ENDBRANCH  22  23
ENDBRANCH   4  22
TORSDOF 8
ENDMDL
MODEL 3
REMARK VINA RESULT:      -7.5      7.045      9.038
REMARK  Name = 
REMARK  8 active torsions:
REMARK  status: ('A' for Active; 'I' for Inactive)
REMARK    1  A    between atoms: C_2  and  C_3
REMARK    2  A    between atoms: C_10  and  C_12
REMARK    3  A    between atoms: C_12  and  N_13
REMARK    4  A    between atoms: C_14  and  C_16
REMARK    5  A    between atoms: C_19  and  C_20
REMARK    6  A    between atoms: C_20  and  C_21
REMARK    7  A    between atoms: C_24  and  O_25
REMARK    8  A    between atoms: O_25  and  C_26
REMARK                            x       y       z     vdW  Elec       q    Type
REMARK                         _______ _______ _______ _____ _____    ______ ____
ROOT
ATOM      1  C   UNL     1       1.212   9.597  19.668  0.00  0.00    +0.000 A 
ATOM      2  C   UNL     1       1.628   9.590  18.343  0.00  0.00    +0.000 A 
ATOM      3  S   UNL     1       2.353   8.091  17.938  0.00  0.00    +0.000 S 
ATOM      4  C   UNL     1       2.065   7.534  19.538  0.00  0.00    +0.000 A 
ATOM      5  N   UNL     1       1.524   8.421  20.350  0.00  0.00    +0.000 NA
ENDROOT
BRANCH   1   7
ATOM      6  N   UNL     1      -0.681  11.073  19.823  0.00  0.00    +0.000 N 
ATOM      7  C   UNL     1       0.557  10.727  20.340  0.00  0.00    +0.000 C 
ATOM      8  O   UNL     1       1.063  11.338  21.274  0.00  0.00    +0.000 OA
ATOM      9  H   UNL     1      -1.164  10.379  19.263  0.00  0.00    +0.000 HD
BRANCH   6  10
ATOM     10  C   UNL     1      -1.450  12.177  20.366  0.00  0.00    +0.000 C 
BRANCH  10  18
ATOM     11  C   UNL     1      -4.579  11.929  18.007  0.00  0.00    +0.000 C 
ATOM     12  C   UNL     1      -4.484  10.945  16.840  0.00  0.00    +0.000 C 
ATOM     13  C   UNL     1      -2.997  10.812  16.544  0.00  0.00    +0.000 C 
ATOM     14  F   UNL     1      -2.640   9.506  16.557  0.00  0.00    +0.000 F 
ATOM     15  F   UNL     1      -2.702  11.301  15.323  0.00  0.00    +0.000 F 
ATOM     16  C   UNL     1      -2.244  11.567  17.626  0.00  0.00    +0.000 C 
ATOM     17  N   UNL     1      -3.237  11.849  18.644  0.00  0.00    +0.000 N 
ATOM     18  C   UNL     1      -2.943  12.229  19.951  0.00  0.00    +0.000 C 
ATOM     19  O   UNL     1      -3.819  12.548  20.751  0.00  0.00    +0.000 OA
BRANCH  11  21
ATOM     20  N   UNL     1      -6.662  11.272  19.727  0.00  0.00    +0.000 NA
ATOM     21  C   UNL     1      -5.717  11.570  18.947  0.00  0.00    +0.000 C 
ENDBRANCH  11  21
ENDBRANCH  10  18
ENDBRANCH   6  10
ENDBRANCH   1   7
BRANCH   4  22
ATOM     22  C   UNL     1       2.395   6.119  19.924  0.00  0.00    +0.000 C 
BRANCH  22  23
ATOM     23  C   UNL     1       3.238   5.415  18.879  0.00  0.00    +0.000 A 
ATOM     24  C   UNL     1       4.624   5.593  18.826  0.00  0.00    +0.000 A 
ATOM     25  C   UNL     1       5.384   4.910  17.871  0.00  0.00    +0.000 A 
ATOM     26  C   UNL     1       4.777   4.033  16.967  0.00  0.00    +0.000 A 
ATOM     27  C   UNL     1       3.392   3.899  16.977  0.00  0.00    +0.000 A 
ATOM     28  C   UNL     1       2.631   4.564  17.940  0.00  0.00    +0.000 A 
BRANCH  26  29
ATOM     29  O   UNL     1       5.622   3.428  16.089  0.00  0.00    +0.000 OA
BRANCH  29  30
ATOM     30  C   UNL     1       6.162   4.189  15.016  0.00  0.00    +0.000 C 
ATOM     31  F   UNL     1       7.385   4.707  15.248  0.00  0.00    +0.000 F 
ATOM     32  F   UNL     1       6.223   3.414  13.911  0.00  0.00    +0.000 F 
ATOM     33  F   UNL     1       5.323   5.219  14.758  0.00  0.00    +0.000 F 
ENDBRANCH  29  30
ENDBRANCH  26  29
ENDBRANCH  22  23
ENDBRANCH   4  22
TORSDOF 8
ENDMDL
MODEL 4
REMARK VINA RESULT:      -7.5      7.034      8.614
REMARK  Name = 
REMARK  8 active torsions:
REMARK  status: ('A' for Active; 'I' for Inactive)
REMARK    1  A    between atoms: C_2  and  C_3
REMARK    2  A    between atoms: C_10  and  C_12
REMARK    3  A    between atoms: C_12  and  N_13
REMARK    4  A    between atoms: C_14  and  C_16
REMARK    5  A    between atoms: C_19  and  C_20
REMARK    6  A    between atoms: C_20  and  C_21
REMARK    7  A    between atoms: C_24  and  O_25
REMARK    8  A    between atoms: O_25  and  C_26
REMARK                            x       y       z     vdW  Elec       q    Type
REMARK                         _______ _______ _______ _____ _____    ______ ____
ROOT
ATOM      1  C   UNL     1       1.429   8.342  20.823  0.00  0.00    +0.000 A 
ATOM      2  C   UNL     1       1.666   8.825  19.544  0.00  0.00    +0.000 A 
ATOM      3  S   UNL     1       2.197   7.569  18.505  0.00  0.00    +0.000 S 
ATOM      4  C   UNL     1       2.072   6.456  19.809  0.00  0.00    +0.000 A 
ATOM      5  N   UNL     1       1.722   6.986  20.965  0.00  0.00    +0.000 NA
ENDROOT
BRANCH   1   7
ATOM      6  N   UNL     1      -0.339   9.599  21.864  0.00  0.00    +0.000 N 
ATOM      7  C   UNL     1       0.970   9.154  21.959  0.00  0.00    +0.000 C 
ATOM      8  O   UNL     1       1.684   9.439  22.914  0.00  0.00    +0.000 OA
ATOM      9  H   UNL     1      -0.953   9.112  21.220  0.00  0.00    +0.000 HD
BRANCH   6  10
ATOM     10  C   UNL     1      -0.938  10.424  22.896  0.00  0.00    +0.000 C 
BRANCH  10  18
ATOM     11  C   UNL     1      -2.131  14.165  22.849  0.00  0.00    +0.000 C 
ATOM     12  C   UNL     1      -3.171  14.568  23.893  0.00  0.00    +0.000 C 
ATOM     13  C   UNL     1      -3.917  13.287  24.236  0.00  0.00    +0.000 C 
ATOM     14  F   UNL     1      -3.901  13.089  25.576  0.00  0.00    +0.000 F 
ATOM     15  F   UNL     1      -5.208  13.360  23.853  0.00  0.00    +0.000 F 
ATOM     16  C   UNL     1      -3.209  12.141  23.534  0.00  0.00    +0.000 C 
ATOM     17  N   UNL     1      -1.955  12.705  23.072  0.00  0.00    +0.000 N 
ATOM     18  C   UNL     1      -0.852  11.955  22.669  0.00  0.00    +0.000 C 
ATOM     19  O   UNL     1       0.154  12.478  22.198  0.00  0.00    +0.000 OA
BRANCH  11  21
ATOM     20  N   UNL     1       0.221  15.620  23.137  0.00  0.00    +0.000 NA
ATOM     21  C   UNL     1      -0.846  14.960  23.006  0.00  0.00    +0.000 C 
ENDBRANCH  11  21
ENDBRANCH  10  18
ENDBRANCH   6  10
ENDBRANCH   1   7
BRANCH   4  22
ATOM     22  C   UNL     1       2.323   4.991  19.587  0.00  0.00    +0.000 C 
BRANCH  22  23
ATOM     23  C   UNL     1       3.488   4.738  18.650  0.00  0.00    +0.000 A 
ATOM     24  C   UNL     1       3.330   3.980  17.486  0.00  0.00    +0.000 A 
ATOM     25  C   UNL     1       4.412   3.784  16.623  0.00  0.00    +0.000 A 
ATOM     26  C   UNL     1       5.661   4.350  16.901  0.00  0.00    +0.000 A 
ATOM     27  C   UNL     1       5.838   5.053  18.088  0.00  0.00    +0.000 A 
ATOM     28  C   UNL     1       4.755   5.267  18.943  0.00  0.00    +0.000 A 
BRANCH  26  29
ATOM     29  O   UNL     1       6.633   4.088  15.985  0.00  0.00    +0.000 OA
BRANCH  29  30
ATOM     30  C   UNL     1       6.523   4.652  14.684  0.00  0.00    +0.000 C 
ATOM     31  F   UNL     1       5.600   5.627  14.564  0.00  0.00    +0.000 F 
ATOM     32  F   UNL     1       7.725   5.146  14.314  0.00  0.00    +0.000 F 
ATOM     33  F   UNL     1       6.193   3.666  13.817  0.00  0.00    +0.000 F 
ENDBRANCH  29  30
ENDBRANCH  26  29
ENDBRANCH  22  23
ENDBRANCH   4  22
TORSDOF 8
ENDMDL
MODEL 5
REMARK VINA RESULT:      -7.5      7.557      9.221
REMARK  Name = 
REMARK  8 active torsions:
REMARK  status: ('A' for Active; 'I' for Inactive)
REMARK    1  A    between atoms: C_2  and  C_3
REMARK    2  A    between atoms: C_10  and  C_12
REMARK    3  A    between atoms: C_12  and  N_13
REMARK    4  A    between atoms: C_14  and  C_16
REMARK    5  A    between atoms: C_19  and  C_20
REMARK    6  A    between atoms: C_20  and  C_21
REMARK    7  A    between atoms: C_24  and  O_25
REMARK    8  A    between atoms: O_25  and  C_26
REMARK                            x       y       z     vdW  Elec       q    Type
REMARK                         _______ _______ _______ _____ _____    ______ ____
ROOT
ATOM      1  C   UNL     1       1.168   9.314  20.017  0.00  0.00    +0.000 A 
ATOM      2  C   UNL     1       1.492   9.377  18.669  0.00  0.00    +0.000 A 
ATOM      3  S   UNL     1       2.197   7.907  18.140  0.00  0.00    +0.000 S 
ATOM      4  C   UNL     1       2.024   7.269  19.726  0.00  0.00    +0.000 A 
ATOM      5  N   UNL     1       1.534   8.109  20.617  0.00  0.00    +0.000 NA
ENDROOT
BRANCH   1   7
ATOM      6  N   UNL     1      -0.278  11.236  20.057  0.00  0.00    +0.000 N 
ATOM      7  C   UNL     1       0.553  10.403  20.788  0.00  0.00    +0.000 C 
ATOM      8  O   UNL     1       0.766  10.584  21.982  0.00  0.00    +0.000 OA
ATOM      9  H   UNL     1      -0.634  10.884  19.176  0.00  0.00    +0.000 HD
BRANCH   6  10
ATOM     10  C   UNL     1      -0.948  12.368  20.669  0.00  0.00    +0.000 C 
BRANCH  10  18
ATOM     11  C   UNL     1      -4.771  12.491  21.557  0.00  0.00    +0.000 C 
ATOM     12  C   UNL     1      -5.143  13.088  22.914  0.00  0.00    +0.000 C 
ATOM     13  C   UNL     1      -3.920  12.882  23.795  0.00  0.00    +0.000 C 
ATOM     14  F   UNL     1      -3.540  14.062  24.340  0.00  0.00    +0.000 F 
ATOM     15  F   UNL     1      -4.191  12.035  24.810  0.00  0.00    +0.000 F 
ATOM     16  C   UNL     1      -2.808  12.334  22.917  0.00  0.00    +0.000 C 
ATOM     17  N   UNL     1      -3.284  12.512  21.559  0.00  0.00    +0.000 N 
ATOM     18  C   UNL     1      -2.476  12.460  20.425  0.00  0.00    +0.000 C 
ATOM     19  O   UNL     1      -2.941  12.524  19.290  0.00  0.00    +0.000 OA
BRANCH  11  21
ATOM     20  N   UNL     1      -5.897  13.934  19.465  0.00  0.00    +0.000 NA
ATOM     21  C   UNL     1      -5.387  13.280  20.414  0.00  0.00    +0.000 C 
ENDBRANCH  11  21
ENDBRANCH  10  18
ENDBRANCH   6  10
ENDBRANCH   1   7
BRANCH   4  22
ATOM     22  C   UNL     1       2.389   5.840  20.017  0.00  0.00    +0.000 C 
BRANCH  22  23
ATOM     23  C   UNL     1       3.266   5.235  18.939  0.00  0.00    +0.000 A 
ATOM     24  C   UNL     1       4.650   5.435  18.933  0.00  0.00    +0.000 A 
ATOM     25  C   UNL     1       5.442   4.842  17.944  0.00  0.00    +0.000 A 
ATOM     26  C   UNL     1       4.868   4.034  16.958  0.00  0.00    +0.000 A 
ATOM     27  C   UNL     1       3.485   3.881  16.924  0.00  0.00    +0.000 A 
ATOM     28  C   UNL     1       2.693   4.456  17.920  0.00  0.00    +0.000 A 
BRANCH  26  29
ATOM     29  O   UNL     1       5.741   3.513  16.054  0.00  0.00    +0.000 OA
BRANCH  29  30
ATOM     30  C   UNL     1       6.204   4.336  14.990  0.00  0.00    +0.000 C 
ATOM     31  F   UNL     1       7.352   4.997  15.242  0.00  0.00    +0.000 F 
ATOM     32  F   UNL     1       6.375   3.576  13.886  0.00  0.00    +0.000 F 
ATOM     33  F   UNL     1       5.251   5.258  14.717  0.00  0.00    +0.000 F 
ENDBRANCH  29  30
ENDBRANCH  26  29
ENDBRANCH  22  23
ENDBRANCH   4  22
TORSDOF 8
ENDMDL
MODEL 6
REMARK VINA RESULT:      -7.5      8.454      9.790
REMARK  Name = 
REMARK  8 active torsions:
REMARK  status: ('A' for Active; 'I' for Inactive)
REMARK    1  A    between atoms: C_2  and  C_3
REMARK    2  A    between atoms: C_10  and  C_12
REMARK    3  A    between atoms: C_12  and  N_13
REMARK    4  A    between atoms: C_14  and  C_16
REMARK    5  A    between atoms: C_19  and  C_20
REMARK    6  A    between atoms: C_20  and  C_21
REMARK    7  A    between atoms: C_24  and  O_25
REMARK    8  A    between atoms: O_25  and  C_26
REMARK                            x       y       z     vdW  Elec       q    Type
REMARK                         _______ _______ _______ _____ _____    ______ ____
ROOT
ATOM      1  C   UNL     1      -0.410  11.287  20.241  0.00  0.00    +0.000 A 
ATOM      2  C   UNL     1      -1.421  10.955  19.350  0.00  0.00    +0.000 A 
ATOM      3  S   UNL     1      -0.813  10.005  18.060  0.00  0.00    +0.000 S 
ATOM      4  C   UNL     1       0.754  10.081  18.762  0.00  0.00    +0.000 A 
ATOM      5  N   UNL     1       0.845  10.818  19.851  0.00  0.00    +0.000 NA
ENDROOT
BRANCH   1   7
ATOM      6  N   UNL     1      -1.833  11.988  22.050  0.00  0.00    +0.000 N 
ATOM      7  C   UNL     1      -0.587  12.097  21.454  0.00  0.00    +0.000 C 
ATOM      8  O   UNL     1       0.285  12.833  21.904  0.00  0.00    +0.000 OA
ATOM      9  H   UNL     1      -2.394  11.177  21.814  0.00  0.00    +0.000 HD
BRANCH   6  10
ATOM     10  C   UNL     1      -2.171  12.736  23.247  0.00  0.00    +0.000 C 
BRANCH  10  18
ATOM     11  C   UNL     1      -5.889  13.990  23.407  0.00  0.00    +0.000 C 
ATOM     12  C   UNL     1      -6.399  14.782  22.204  0.00  0.00    +0.000 C 
ATOM     13  C   UNL     1      -5.162  15.405  21.576  0.00  0.00    +0.000 C 
ATOM     14  F   UNL     1      -5.104  15.090  20.260  0.00  0.00    +0.000 F 
ATOM     15  F   UNL     1      -5.198  16.750  21.668  0.00  0.00    +0.000 F 
ATOM     16  C   UNL     1      -3.948  14.846  22.298  0.00  0.00    +0.000 C 
ATOM     17  N   UNL     1      -4.459  13.738  23.082  0.00  0.00    +0.000 N 
ATOM     18  C   UNL     1      -3.670  12.736  23.641  0.00  0.00    +0.000 C 
ATOM     19  O   UNL     1      -4.139  11.870  24.375  0.00  0.00    +0.000 OA
BRANCH  11  21
ATOM     20  N   UNL     1      -7.362  11.664  23.797  0.00  0.00    +0.000 NA
ATOM     21  C   UNL     1      -6.694  12.719  23.621  0.00  0.00    +0.000 C 
ENDBRANCH  11  21
ENDBRANCH  10  18
ENDBRANCH   6  10
ENDBRANCH   1   7
BRANCH   4  22
ATOM     22  C   UNL     1       1.898   9.318  18.155  0.00  0.00    +0.000 C 
BRANCH  22  23
ATOM     23  C   UNL     1       2.092   7.957  18.796  0.00  0.00    +0.000 A 
ATOM     24  C   UNL     1       1.787   7.740  20.142  0.00  0.00    +0.000 A 
ATOM     25  C   UNL     1       1.948   6.469  20.703  0.00  0.00    +0.000 A 
ATOM     26  C   UNL     1       2.401   5.397  19.928  0.00  0.00    +0.000 A 
ATOM     27  C   UNL     1       2.764   5.622  18.603  0.00  0.00    +0.000 A 
ATOM     28  C   UNL     1       2.587   6.885  18.034  0.00  0.00    +0.000 A 
BRANCH  26  29
ATOM     29  O   UNL     1       2.515   4.212  20.586  0.00  0.00    +0.000 OA
BRANCH  29  30
ATOM     30  C   UNL     1       1.413   3.312  20.580  0.00  0.00    +0.000 C 
ATOM     31  F   UNL     1       1.549   2.255  19.754  0.00  0.00    +0.000 F 
ATOM     32  F   UNL     1       1.209   2.856  21.836  0.00  0.00    +0.000 F 
ATOM     33  F   UNL     1       0.307   3.992  20.198  0.00  0.00    +0.000 F 
ENDBRANCH  29  30
ENDBRANCH  26  29
ENDBRANCH  22  23
ENDBRANCH   4  22
TORSDOF 8
ENDMDL
MODEL 7
REMARK VINA RESULT:      -7.4      7.677     10.218
REMARK  Name = 
REMARK  8 active torsions:
REMARK  status: ('A' for Active; 'I' for Inactive)
REMARK    1  A    between atoms: C_2  and  C_3
REMARK    2  A    between atoms: C_10  and  C_12
REMARK    3  A    between atoms: C_12  and  N_13
REMARK    4  A    between atoms: C_14  and  C_16
REMARK    5  A    between atoms: C_19  and  C_20
REMARK    6  A    between atoms: C_20  and  C_21
REMARK    7  A    between atoms: C_24  and  O_25
REMARK    8  A    between atoms: O_25  and  C_26
REMARK                            x       y       z     vdW  Elec       q    Type
REMARK                         _______ _______ _______ _____ _____    ______ ____
ROOT
ATOM      1  C   UNL     1       0.658   9.522  20.397  0.00  0.00    +0.000 A 
ATOM      2  C   UNL     1       0.300   8.671  21.433  0.00  0.00    +0.000 A 
ATOM      3  S   UNL     1      -0.398   9.546  22.731  0.00  0.00    +0.000 S 
ATOM      4  C   UNL     1      -0.196  11.002  21.840  0.00  0.00    +0.000 A 
ATOM      5  N   UNL     1       0.412  10.867  20.678  0.00  0.00    +0.000 NA
ENDROOT
BRANCH   1   7
ATOM      6  N   UNL     1       2.117   7.997  19.243  0.00  0.00    +0.000 N 
ATOM      7  C   UNL     1       1.286   9.101  19.137  0.00  0.00    +0.000 C 
ATOM      8  O   UNL     1       1.113   9.684  18.072  0.00  0.00    +0.000 OA
ATOM      9  H   UNL     1       2.001   7.401  20.055  0.00  0.00    +0.000 HD
BRANCH   6  10
ATOM     10  C   UNL     1       2.824   7.466  18.093  0.00  0.00    +0.000 C 
BRANCH  10  18
ATOM     11  C   UNL     1       5.369   4.486  17.845  0.00  0.00    +0.000 C 
ATOM     12  C   UNL     1       6.853   4.840  17.936  0.00  0.00    +0.000 C 
ATOM     13  C   UNL     1       6.954   6.281  17.460  0.00  0.00    +0.000 C 
ATOM     14  F   UNL     1       7.597   7.029  18.389  0.00  0.00    +0.000 F 
ATOM     15  F   UNL     1       7.660   6.364  16.314  0.00  0.00    +0.000 F 
ATOM     16  C   UNL     1       5.541   6.801  17.263  0.00  0.00    +0.000 C 
ATOM     17  N   UNL     1       4.688   5.808  17.888  0.00  0.00    +0.000 N 
ATOM     18  C   UNL     1       3.357   6.018  18.238  0.00  0.00    +0.000 C 
ATOM     19  O   UNL     1       2.649   5.116  18.680  0.00  0.00    +0.000 OA
BRANCH  11  21
ATOM     20  N   UNL     1       4.600   2.778  19.900  0.00  0.00    +0.000 NA
ATOM     21  C   UNL     1       4.948   3.552  18.968  0.00  0.00    +0.000 C 
ENDBRANCH  11  21
ENDBRANCH  10  18
ENDBRANCH   6  10
ENDBRANCH   1   7
BRANCH   4  22
ATOM     22  C   UNL     1      -0.719  12.304  22.379  0.00  0.00    +0.000 C 
BRANCH  22  23
ATOM     23  C   UNL     1      -2.183  12.522  22.049  0.00  0.00    +0.000 A 
ATOM     24  C   UNL     1      -3.166  12.457  23.040  0.00  0.00    +0.000 A 
ATOM     25  C   UNL     1      -4.507  12.690  22.716  0.00  0.00    +0.000 A 
ATOM     26  C   UNL     1      -4.882  13.002  21.406  0.00  0.00    +0.000 A 
ATOM     27  C   UNL     1      -3.915  13.008  20.405  0.00  0.00    +0.000 A 
ATOM     28  C   UNL     1      -2.573  12.795  20.727  0.00  0.00    +0.000 A 
BRANCH  26  29
ATOM     29  O   UNL     1      -6.214  13.209  21.217  0.00  0.00    +0.000 OA
BRANCH  29  30
ATOM     30  C   UNL     1      -7.034  12.111  20.838  0.00  0.00    +0.000 C 
ATOM     31  F   UNL     1      -7.910  12.373  19.847  0.00  0.00    +0.000 F 
ATOM     32  F   UNL     1      -6.246  11.081  20.457  0.00  0.00    +0.000 F 
ATOM     33  F   UNL     1      -7.744  11.713  21.919  0.00  0.00    +0.000 F 
ENDBRANCH  29  30
ENDBRANCH  26  29
ENDBRANCH  22  23
ENDBRANCH   4  22
TORSDOF 8
ENDMDL
MODEL 8
REMARK VINA RESULT:      -7.4      2.294      2.758
REMARK  Name = 
REMARK  8 active torsions:
REMARK  status: ('A' for Active; 'I' for Inactive)
REMARK    1  A    between atoms: C_2  and  C_3
REMARK    2  A    between atoms: C_10  and  C_12
REMARK    3  A    between atoms: C_12  and  N_13
REMARK    4  A    between atoms: C_14  and  C_16
REMARK    5  A    between atoms: C_19  and  C_20
REMARK    6  A    between atoms: C_20  and  C_21
REMARK    7  A    between atoms: C_24  and  O_25
REMARK    8  A    between atoms: O_25  and  C_26
REMARK                            x       y       z     vdW  Elec       q    Type
REMARK                         _______ _______ _______ _____ _____    ______ ____
ROOT
ATOM      1  C   UNL     1       8.180   8.449  18.285  0.00  0.00    +0.000 A 
ATOM      2  C   UNL     1       8.447   7.263  18.957  0.00  0.00    +0.000 A 
ATOM      3  S   UNL     1       7.440   5.998  18.389  0.00  0.00    +0.000 S 
ATOM      4  C   UNL     1       6.716   7.092  17.279  0.00  0.00    +0.000 A 
ATOM      5  N   UNL     1       7.140   8.337  17.362  0.00  0.00    +0.000 NA
ENDROOT
BRANCH   1   7
ATOM      6  N   UNL     1       9.201   9.961  19.853  0.00  0.00    +0.000 N 
ATOM      7  C   UNL     1       8.859   9.728  18.530  0.00  0.00    +0.000 C 
ATOM      8  O   UNL     1       9.093  10.545  17.646  0.00  0.00    +0.000 OA
ATOM      9  H   UNL     1       9.245   9.160  20.472  0.00  0.00    +0.000 HD
BRANCH   6  10
ATOM     10  C   UNL     1       9.863  11.186  20.262  0.00  0.00    +0.000 C 
BRANCH  10  18
ATOM     11  C   UNL     1       7.328  13.429  22.252  0.00  0.00    +0.000 C 
ATOM     12  C   UNL     1       7.406  13.366  23.777  0.00  0.00    +0.000 C 
ATOM     13  C   UNL     1       7.993  12.000  24.096  0.00  0.00    +0.000 C 
ATOM     14  F   UNL     1       9.073  12.139  24.901  0.00  0.00    +0.000 F 
ATOM     15  F   UNL     1       7.099  11.229  24.747  0.00  0.00    +0.000 F 
ATOM     16  C   UNL     1       8.404  11.358  22.783  0.00  0.00    +0.000 C 
ATOM     17  N   UNL     1       8.336  12.429  21.807  0.00  0.00    +0.000 N 
ATOM     18  C   UNL     1       8.933  12.392  20.549  0.00  0.00    +0.000 C 
ATOM     19  O   UNL     1       8.768  13.285  19.722  0.00  0.00    +0.000 OA
BRANCH  11  21
ATOM     20  N   UNL     1       7.826  15.997  21.310  0.00  0.00    +0.000 NA
ATOM     21  C   UNL     1       7.600  14.832  21.737  0.00  0.00    +0.000 C 
ENDBRANCH  11  21
ENDBRANCH  10  18
ENDBRANCH   6  10
ENDBRANCH   1   7
BRANCH   4  22
ATOM     22  C   UNL     1       5.698   6.606  16.285  0.00  0.00    +0.000 C 
BRANCH  22  23
ATOM     23  C   UNL     1       4.525   5.910  16.949  0.00  0.00    +0.000 A 
ATOM     24  C   UNL     1       4.318   4.536  16.797  0.00  0.00    +0.000 A 
ATOM     25  C   UNL     1       3.245   3.912  17.442  0.00  0.00    +0.000 A 
ATOM     26  C   UNL     1       2.375   4.645  18.255  0.00  0.00    +0.000 A 
ATOM     27  C   UNL     1       2.542   6.022  18.361  0.00  0.00    +0.000 A 
ATOM     28  C   UNL     1       3.622   6.646  17.734  0.00  0.00    +0.000 A 
BRANCH  26  29
ATOM     29  O   UNL     1       1.373   3.925  18.829  0.00  0.00    +0.000 OA
BRANCH  29  30
ATOM     30  C   UNL     1       1.646   3.185  20.013  0.00  0.00    +0.000 C 
ATOM     31  F   UNL     1       2.783   3.531  20.648  0.00  0.00    +0.000 F 
ATOM     32  F   UNL     1       0.611   3.327  20.870  0.00  0.00    +0.000 F 
ATOM     33  F   UNL     1       1.740   1.875  19.686  0.00  0.00    +0.000 F 
ENDBRANCH  29  30
ENDBRANCH  26  29
ENDBRANCH  22  23
ENDBRANCH   4  22
TORSDOF 8
ENDMDL
MODEL 9
REMARK VINA RESULT:      -7.4      7.661      9.666
REMARK  Name = 
REMARK  8 active torsions:
REMARK  status: ('A' for Active; 'I' for Inactive)
REMARK    1  A    between atoms: C_2  and  C_3
REMARK    2  A    between atoms: C_10  and  C_12
REMARK    3  A    between atoms: C_12  and  N_13
REMARK    4  A    between atoms: C_14  and  C_16
REMARK    5  A    between atoms: C_19  and  C_20
REMARK    6  A    between atoms: C_20  and  C_21
REMARK    7  A    between atoms: C_24  and  O_25
REMARK    8  A    between atoms: O_25  and  C_26
REMARK                            x       y       z     vdW  Elec       q    Type
REMARK                         _______ _______ _______ _____ _____    ______ ____
ROOT
ATOM      1  C   UNL     1      -0.027   9.940  19.241  0.00  0.00    +0.000 A 
ATOM      2  C   UNL     1       0.293   9.388  20.474  0.00  0.00    +0.000 A 
ATOM      3  S   UNL     1       1.691   8.404  20.358  0.00  0.00    +0.000 S 
ATOM      4  C   UNL     1       1.797   8.775  18.684  0.00  0.00    +0.000 A 
ATOM      5  N   UNL     1       0.822   9.528  18.214  0.00  0.00    +0.000 NA
ENDROOT
BRANCH   1   7
ATOM      6  N   UNL     1      -1.523  11.642  20.050  0.00  0.00    +0.000 N 
ATOM      7  C   UNL     1      -1.170  10.828  18.986  0.00  0.00    +0.000 C 
ATOM      8  O   UNL     1      -1.785  10.844  17.925  0.00  0.00    +0.000 OA
ATOM      9  H   UNL     1      -0.829  11.792  20.774  0.00  0.00    +0.000 HD
BRANCH   6  10
ATOM     10  C   UNL     1      -2.640  12.564  19.963  0.00  0.00    +0.000 C 
BRANCH  10  18
ATOM     11  C   UNL     1      -5.751  12.999  22.320  0.00  0.00    +0.000 C 
ATOM     12  C   UNL     1      -7.022  12.247  21.926  0.00  0.00    +0.000 C 
ATOM     13  C   UNL     1      -6.929  12.059  20.419  0.00  0.00    +0.000 C 
ATOM     14  F   UNL     1      -7.084  10.751  20.107  0.00  0.00    +0.000 F 
ATOM     15  F   UNL     1      -7.904  12.744  19.786  0.00  0.00    +0.000 F 
ATOM     16  C   UNL     1      -5.558  12.539  19.979  0.00  0.00    +0.000 C 
ATOM     17  N   UNL     1      -4.807  12.700  21.210  0.00  0.00    +0.000 N 
ATOM     18  C   UNL     1      -3.420  12.805  21.281  0.00  0.00    +0.000 C 
ATOM     19  O   UNL     1      -2.837  13.034  22.338  0.00  0.00    +0.000 OA
BRANCH  11  21
ATOM     20  N   UNL     1      -4.820  12.192  24.812  0.00  0.00    +0.000 NA
ATOM     21  C   UNL     1      -5.242  12.558  23.682  0.00  0.00    +0.000 C 
ENDBRANCH  11  21
ENDBRANCH  10  18
ENDBRANCH   6  10
ENDBRANCH   1   7
BRANCH   4  22
ATOM     22  C   UNL     1       2.955   8.276  17.865  0.00  0.00    +0.000 C 
BRANCH  22  23
ATOM     23  C   UNL     1       2.999   6.763  17.783  0.00  0.00    +0.000 A 
ATOM     24  C   UNL     1       1.849   5.993  17.981  0.00  0.00    +0.000 A 
ATOM     25  C   UNL     1       1.908   4.600  17.871  0.00  0.00    +0.000 A 
ATOM     26  C   UNL     1       3.109   3.958  17.551  0.00  0.00    +0.000 A 
ATOM     27  C   UNL     1       4.268   4.716  17.413  0.00  0.00    +0.000 A 
ATOM     28  C   UNL     1       4.209   6.108  17.503  0.00  0.00    +0.000 A 
BRANCH  26  29
ATOM     29  O   UNL     1       3.038   2.602  17.472  0.00  0.00    +0.000 OA
BRANCH  29  30
ATOM     30  C   UNL     1       3.111   1.837  18.670  0.00  0.00    +0.000 C 
ATOM     31  F   UNL     1       1.919   1.473  19.182  0.00  0.00    +0.000 F 
ATOM     32  F   UNL     1       3.841   0.724  18.439  0.00  0.00    +0.000 F 
ATOM     33  F   UNL     1       3.754   2.571  19.607  0.00  0.00    +0.000 F 
ENDBRANCH  29  30
ENDBRANCH  26  29
ENDBRANCH  22  23
ENDBRANCH   4  22
TORSDOF 8
ENDMDL
