MODEL 1
REMARK VINA RESULT:      -9.3      0.000      0.000
REMARK  Name = 
REMARK  5 active torsions:
REMARK  status: ('A' for Active; 'I' for Inactive)
REMARK    1  A    between atoms: C_6  and  N_7
REMARK    2  A    between atoms: C_12  and  N_13
REMARK    3  A    between atoms: C_15  and  C_16
REMARK    4  A    between atoms: N_18  and  C_19
REMARK    5  A    between atoms: C_19  and  C_20
REMARK                            x       y       z     vdW  Elec       q    Type
REMARK                         _______ _______ _______ _____ _____    ______ ____
ROOT
ATOM      1  N   UNL     1      -1.851  12.491  20.772  0.00  0.00    +0.000 N 
ATOM      2  C   UNL     1      -1.133  13.567  20.319  0.00  0.00    +0.000 C 
ATOM      3  O   UNL     1      -1.546  14.729  20.308  0.00  0.00    +0.000 OA
ATOM      4  N   UNL     1       0.155  13.285  19.865  0.00  0.00    +0.000 N 
ATOM      5  C   UNL     1       0.867  14.449  19.314  0.00  0.00    +0.000 C 
ATOM      6  C   UNL     1       2.264  13.928  19.046  0.00  0.00    +0.000 C 
ATOM      7  C   UNL     1       1.982  12.505  18.539  0.00  0.00    +0.000 C 
ATOM      8  C   UNL     1       0.744  11.994  19.319  0.00  0.00    +0.000 C 
ATOM      9  H   UNL     1      -1.367  11.616  20.919  0.00  0.00    +0.000 HD
ENDROOT
BRANCH   1  15
ATOM     10  N   UNL     1      -4.890  12.170  25.011  0.00  0.00    +0.000 N 
ATOM     11  C   UNL     1      -5.548  12.790  23.988  0.00  0.00    +0.000 C 
ATOM     12  O   UNL     1      -6.654  13.288  24.066  0.00  0.00    +0.000 OA
ATOM     13  N   UNL     1      -4.841  12.737  22.769  0.00  0.00    +0.000 N 
ATOM     14  C   UNL     1      -3.467  12.717  22.633  0.00  0.00    +0.000 A 
ATOM     15  C   UNL     1      -3.132  12.586  21.306  0.00  0.00    +0.000 A 
ATOM     16  C   UNL     1      -4.354  12.554  20.578  0.00  0.00    +0.000 A 
ATOM     17  C   UNL     1      -4.678  12.419  19.208  0.00  0.00    +0.000 A 
ATOM     18  C   UNL     1      -6.018  12.362  18.809  0.00  0.00    +0.000 A 
ATOM     19  C   UNL     1      -7.040  12.451  19.747  0.00  0.00    +0.000 A 
ATOM     20  C   UNL     1      -6.733  12.640  21.115  0.00  0.00    +0.000 A 
ATOM     21  C   UNL     1      -5.398  12.672  21.503  0.00  0.00    +0.000 A 
ATOM     22  H   UNL     1      -5.427  12.037  25.858  0.00  0.00    +0.000 HD
ATOM     23  H   UNL     1      -4.174  11.481  24.815  0.00  0.00    +0.000 HD
ENDBRANCH   1  15
BRANCH   8  24
ATOM     24  C   UNL     1       0.855  10.701  20.306  0.00  0.00    +0.000 C 
ATOM     25  O   UNL     1       0.717  10.899  21.522  0.00  0.00    +0.000 OA
ATOM     26  N   UNL     1       1.046   9.389  19.859  0.00  0.00    +0.000 N 
ATOM     27  H   UNL     1       1.410   9.290  18.914  0.00  0.00    +0.000 HD
BRANCH  26  28
ATOM     28  C   UNL     1       1.390   8.148  20.802  0.00  0.00    +0.000 C 
BRANCH  28  29
ATOM     29  C   UNL     1       1.982   6.936  20.016  0.00  0.00    +0.000 A 
ATOM     30  C   UNL     1       2.730   7.454  18.946  0.00  0.00    +0.000 A 
ATOM     31  C   UNL     1       3.022   6.646  17.909  0.00  0.00    +0.000 A 
ATOM     32  C   UNL     1       3.733   5.616  18.419  0.00  0.00    +0.000 A 
ATOM     33  C   UNL     1       3.138   4.880  19.425  0.00  0.00    +0.000 A 
ATOM     34  C   UNL     1       3.658   3.583  19.514  0.00  0.00    +0.000 A 
ATOM     35  C   UNL     1       2.942   2.576  20.113  0.00  0.00    +0.000 A 
ATOM     36  C   UNL     1       1.735   2.914  20.703  0.00  0.00    +0.000 A 
ATOM     37  C   UNL     1       1.323   4.294  20.808  0.00  0.00    +0.000 A 
ATOM     38  C   UNL     1       2.035   5.422  20.162  0.00  0.00    +0.000 A 
ENDBRANCH  28  29
ENDBRANCH  26  28
ENDBRANCH   8  24
BRANCH   6  39
ATOM     39  N   UNL     1       3.058  13.901  20.280  0.00  0.00    +0.000 NA
ATOM     40  H   UNL     1       4.043  14.026  20.031  0.00  0.00    +0.000 HD
ATOM     41  H   UNL     1       3.031  12.949  20.659  0.00  0.00    +0.000 HD
ENDBRANCH   6  39
TORSDOF 5
ENDMDL
MODEL 2
REMARK VINA RESULT:      -9.3      4.148     10.583
REMARK  Name = 
REMARK  5 active torsions:
REMARK  status: ('A' for Active; 'I' for Inactive)
REMARK    1  A    between atoms: C_6  and  N_7
REMARK    2  A    between atoms: C_12  and  N_13
REMARK    3  A    between atoms: C_15  and  C_16
REMARK    4  A    between atoms: N_18  and  C_19
REMARK    5  A    between atoms: C_19  and  C_20
REMARK                            x       y       z     vdW  Elec       q    Type
REMARK                         _______ _______ _______ _____ _____    ______ ____
ROOT
ATOM      1  N   UNL     1       2.531   7.662  18.703  0.00  0.00    +0.000 N 
ATOM      2  C   UNL     1       1.825   7.583  19.876  0.00  0.00    +0.000 C 
ATOM      3  O   UNL     1       1.850   6.620  20.645  0.00  0.00    +0.000 OA
ATOM      4  N   UNL     1       1.053   8.702  20.190  0.00  0.00    +0.000 N 
ATOM      5  C   UNL     1       0.249   8.552  21.414  0.00  0.00    +0.000 C 
ATOM      6  C   UNL     1      -0.359   9.924  21.621  0.00  0.00    +0.000 C 
ATOM      7  C   UNL     1      -0.671  10.355  20.179  0.00  0.00    +0.000 C 
ATOM      8  C   UNL     1       0.454   9.769  19.288  0.00  0.00    +0.000 C 
ATOM      9  H   UNL     1       2.597   8.558  18.240  0.00  0.00    +0.000 HD
ENDROOT
BRANCH   1  15
ATOM     10  N   UNL     1       7.055   6.474  16.374  0.00  0.00    +0.000 N 
ATOM     11  C   UNL     1       6.526   5.378  16.994  0.00  0.00    +0.000 C 
ATOM     12  O   UNL     1       7.066   4.293  17.081  0.00  0.00    +0.000 OA
ATOM     13  N   UNL     1       5.221   5.599  17.479  0.00  0.00    +0.000 N 
ATOM     14  C   UNL     1       4.719   6.806  17.927  0.00  0.00    +0.000 A 
ATOM     15  C   UNL     1       3.390   6.666  18.251  0.00  0.00    +0.000 A 
ATOM     16  C   UNL     1       3.055   5.302  18.023  0.00  0.00    +0.000 A 
ATOM     17  C   UNL     1       1.865   4.550  18.147  0.00  0.00    +0.000 A 
ATOM     18  C   UNL     1       1.849   3.200  17.774  0.00  0.00    +0.000 A 
ATOM     19  C   UNL     1       3.000   2.585  17.294  0.00  0.00    +0.000 A 
ATOM     20  C   UNL     1       4.212   3.311  17.215  0.00  0.00    +0.000 A 
ATOM     21  C   UNL     1       4.211   4.656  17.566  0.00  0.00    +0.000 A 
ATOM     22  H   UNL     1       7.916   6.314  15.867  0.00  0.00    +0.000 HD
ATOM     23  H   UNL     1       6.448   7.202  16.019  0.00  0.00    +0.000 HD
ENDBRANCH   1  15
BRANCH   8  24
ATOM     24  C   UNL     1       1.457  10.750  18.457  0.00  0.00    +0.000 C 
ATOM     25  O   UNL     1       2.066  10.259  17.495  0.00  0.00    +0.000 OA
ATOM     26  N   UNL     1       1.629  12.110  18.734  0.00  0.00    +0.000 N 
ATOM     27  H   UNL     1       1.333  12.416  19.658  0.00  0.00    +0.000 HD
BRANCH  26  28
ATOM     28  C   UNL     1       2.765  13.031  18.096  0.00  0.00    +0.000 C 
BRANCH  28  29
ATOM     29  C   UNL     1       2.440  14.555  18.201  0.00  0.00    +0.000 A 
ATOM     30  C   UNL     1       3.559  15.258  17.726  0.00  0.00    +0.000 A 
ATOM     31  C   UNL     1       3.697  16.555  18.057  0.00  0.00    +0.000 A 
ATOM     32  C   UNL     1       2.605  17.188  17.574  0.00  0.00    +0.000 A 
ATOM     33  C   UNL     1       1.374  16.731  18.002  0.00  0.00    +0.000 A 
ATOM     34  C   UNL     1       0.380  17.714  17.911  0.00  0.00    +0.000 A 
ATOM     35  C   UNL     1      -0.764  17.631  18.665  0.00  0.00    +0.000 A 
ATOM     36  C   UNL     1      -0.936  16.497  19.443  0.00  0.00    +0.000 A 
ATOM     37  C   UNL     1      -0.016  15.388  19.348  0.00  0.00    +0.000 A 
ATOM     38  C   UNL     1       1.248  15.424  18.576  0.00  0.00    +0.000 A 
ENDBRANCH  28  29
ENDBRANCH  26  28
ENDBRANCH   8  24
BRANCH   6  39
ATOM     39  N   UNL     1       0.606  10.835  22.247  0.00  0.00    +0.000 NA
ATOM     40  H   UNL     1       0.179  11.764  22.306  0.00  0.00    +0.000 HD
ATOM     41  H   UNL     1       1.385  10.976  21.596  0.00  0.00    +0.000 HD
ENDBRANCH   6  39
TORSDOF 5
ENDMDL
MODEL 3
REMARK VINA RESULT:      -8.9      1.163      2.243
REMARK  Name = 
REMARK  5 active torsions:
REMARK  status: ('A' for Active; 'I' for Inactive)
REMARK    1  A    between atoms: C_6  and  N_7
REMARK    2  A    between atoms: C_12  and  N_13
REMARK    3  A    between atoms: C_15  and  C_16
REMARK    4  A    between atoms: N_18  and  C_19
REMARK    5  A    between atoms: C_19  and  C_20
REMARK                            x       y       z     vdW  Elec       q    Type
REMARK                         _______ _______ _______ _____ _____    ______ ____
ROOT
ATOM      1  N   UNL     1      -1.870  12.560  20.471  0.00  0.00    +0.000 N 
ATOM      2  C   UNL     1      -1.089  13.650  20.185  0.00  0.00    +0.000 C 
ATOM      3  O   UNL     1      -1.496  14.813  20.151  0.00  0.00    +0.000 OA
ATOM      4  N   UNL     1       0.257  13.379  19.940  0.00  0.00    +0.000 N 
ATOM      5  C   UNL     1       1.048  14.561  19.561  0.00  0.00    +0.000 C 
ATOM      6  C   UNL     1       2.472  14.045  19.509  0.00  0.00    +0.000 C 
ATOM      7  C   UNL     1       2.281  12.643  18.907  0.00  0.00    +0.000 C 
ATOM      8  C   UNL     1       0.931  12.108  19.450  0.00  0.00    +0.000 C 
ATOM      9  H   UNL     1      -1.415  11.678  20.662  0.00  0.00    +0.000 HD
ENDROOT
BRANCH   1  15
ATOM     10  N   UNL     1      -6.695  13.808  18.899  0.00  0.00    +0.000 N 
ATOM     11  C   UNL     1      -6.735  13.060  20.042  0.00  0.00    +0.000 C 
ATOM     12  O   UNL     1      -7.746  12.654  20.579  0.00  0.00    +0.000 OA
ATOM     13  N   UNL     1      -5.459  12.854  20.607  0.00  0.00    +0.000 N 
ATOM     14  C   UNL     1      -4.271  12.765  19.909  0.00  0.00    +0.000 A 
ATOM     15  C   UNL     1      -3.222  12.640  20.788  0.00  0.00    +0.000 A 
ATOM     16  C   UNL     1      -3.784  12.620  22.095  0.00  0.00    +0.000 A 
ATOM     17  C   UNL     1      -3.240  12.533  23.396  0.00  0.00    +0.000 A 
ATOM     18  C   UNL     1      -4.082  12.604  24.512  0.00  0.00    +0.000 A 
ATOM     19  C   UNL     1      -5.456  12.745  24.354  0.00  0.00    +0.000 A 
ATOM     20  C   UNL     1      -6.021  12.779  23.057  0.00  0.00    +0.000 A 
ATOM     21  C   UNL     1      -5.173  12.732  21.956  0.00  0.00    +0.000 A 
ATOM     22  H   UNL     1      -7.592  14.121  18.552  0.00  0.00    +0.000 HD
ATOM     23  H   UNL     1      -5.901  14.405  18.707  0.00  0.00    +0.000 HD
ENDBRANCH   1  15
BRANCH   8  24
ATOM     24  C   UNL     1       0.880  10.777  20.392  0.00  0.00    +0.000 C 
ATOM     25  O   UNL     1       0.687  10.945  21.605  0.00  0.00    +0.000 OA
ATOM     26  N   UNL     1       0.991   9.470  19.906  0.00  0.00    +0.000 N 
ATOM     27  H   UNL     1       1.400   9.373  18.979  0.00  0.00    +0.000 HD
BRANCH  26  28
ATOM     28  C   UNL     1       1.178   8.174  20.818  0.00  0.00    +0.000 C 
BRANCH  28  29
ATOM     29  C   UNL     1       1.864   6.994  20.060  0.00  0.00    +0.000 A 
ATOM     30  C   UNL     1       2.613   7.548  19.009  0.00  0.00    +0.000 A 
ATOM     31  C   UNL     1       2.983   6.752  17.988  0.00  0.00    +0.000 A 
ATOM     32  C   UNL     1       3.737   5.768  18.528  0.00  0.00    +0.000 A 
ATOM     33  C   UNL     1       3.155   5.005  19.521  0.00  0.00    +0.000 A 
ATOM     34  C   UNL     1       3.746   3.741  19.635  0.00  0.00    +0.000 A 
ATOM     35  C   UNL     1       3.071   2.697  20.220  0.00  0.00    +0.000 A 
ATOM     36  C   UNL     1       1.828   2.968  20.770  0.00  0.00    +0.000 A 
ATOM     37  C   UNL     1       1.335   4.322  20.851  0.00  0.00    +0.000 A 
ATOM     38  C   UNL     1       1.999   5.487  20.219  0.00  0.00    +0.000 A 
ENDBRANCH  28  29
ENDBRANCH  26  28
ENDBRANCH   8  24
BRANCH   6  39
ATOM     39  N   UNL     1       3.050  13.966  20.855  0.00  0.00    +0.000 NA
ATOM     40  H   UNL     1       2.547  13.244  21.378  0.00  0.00    +0.000 HD
ATOM     41  H   UNL     1       2.814  14.828  21.357  0.00  0.00    +0.000 HD
ENDBRANCH   6  39
TORSDOF 5
ENDMDL
MODEL 4
REMARK VINA RESULT:      -8.9      3.674      7.291
REMARK  Name = 
REMARK  5 active torsions:
REMARK  status: ('A' for Active; 'I' for Inactive)
REMARK    1  A    between atoms: C_6  and  N_7
REMARK    2  A    between atoms: C_12  and  N_13
REMARK    3  A    between atoms: C_15  and  C_16
REMARK    4  A    between atoms: N_18  and  C_19
REMARK    5  A    between atoms: C_19  and  C_20
REMARK                            x       y       z     vdW  Elec       q    Type
REMARK                         _______ _______ _______ _____ _____    ______ ____
ROOT
ATOM      1  N   UNL     1       2.506  13.185  19.080  0.00  0.00    +0.000 N 
ATOM      2  C   UNL     1       1.217  13.606  18.881  0.00  0.00    +0.000 C 
ATOM      3  O   UNL     1       0.862  14.787  18.861  0.00  0.00    +0.000 OA
ATOM      4  N   UNL     1       0.278  12.596  18.673  0.00  0.00    +0.000 N 
ATOM      5  C   UNL     1      -1.106  13.080  18.542  0.00  0.00    +0.000 C 
ATOM      6  C   UNL     1      -1.892  11.839  18.171  0.00  0.00    +0.000 C 
ATOM      7  C   UNL     1      -1.209  10.762  19.028  0.00  0.00    +0.000 C 
ATOM      8  C   UNL     1       0.293  11.137  19.098  0.00  0.00    +0.000 C 
ATOM      9  H   UNL     1       2.731  12.218  18.891  0.00  0.00    +0.000 HD
ENDROOT
BRANCH   1  15
ATOM     10  N   UNL     1       7.166  14.816  17.367  0.00  0.00    +0.000 N 
ATOM     11  C   UNL     1       6.639  15.705  18.261  0.00  0.00    +0.000 C 
ATOM     12  O   UNL     1       7.130  16.776  18.557  0.00  0.00    +0.000 OA
ATOM     13  N   UNL     1       5.473  15.223  18.890  0.00  0.00    +0.000 N 
ATOM     14  C   UNL     1       4.548  14.363  18.329  0.00  0.00    +0.000 A 
ATOM     15  C   UNL     1       3.583  14.048  19.255  0.00  0.00    +0.000 A 
ATOM     16  C   UNL     1       3.903  14.767  20.440  0.00  0.00    +0.000 A 
ATOM     17  C   UNL     1       3.320  14.852  21.725  0.00  0.00    +0.000 A 
ATOM     18  C   UNL     1       3.929  15.626  22.720  0.00  0.00    +0.000 A 
ATOM     19  C   UNL     1       5.099  16.328  22.453  0.00  0.00    +0.000 A 
ATOM     20  C   UNL     1       5.665  16.296  21.156  0.00  0.00    +0.000 A 
ATOM     21  C   UNL     1       5.064  15.506  20.183  0.00  0.00    +0.000 A 
ATOM     22  H   UNL     1       8.087  15.045  17.018  0.00  0.00    +0.000 HD
ATOM     23  H   UNL     1       6.935  13.833  17.429  0.00  0.00    +0.000 HD
ENDBRANCH   1  15
BRANCH   8  24
ATOM     24  C   UNL     1       1.430  10.147  18.476  0.00  0.00    +0.000 C 
ATOM     25  O   UNL     1       2.118  10.587  17.543  0.00  0.00    +0.000 OA
ATOM     26  N   UNL     1       1.703   8.865  18.962  0.00  0.00    +0.000 N 
ATOM     27  H   UNL     1       0.975   8.441  19.532  0.00  0.00    +0.000 HD
BRANCH  26  28
ATOM     28  C   UNL     1       2.638   7.796  18.233  0.00  0.00    +0.000 C 
BRANCH  28  29
ATOM     29  C   UNL     1       2.463   6.352  18.801  0.00  0.00    +0.000 A 
ATOM     30  C   UNL     1       1.825   6.464  20.047  0.00  0.00    +0.000 A 
ATOM     31  C   UNL     1       1.898   5.432  20.908  0.00  0.00    +0.000 A 
ATOM     32  C   UNL     1       1.341   4.373  20.278  0.00  0.00    +0.000 A 
ATOM     33  C   UNL     1       1.890   4.004  19.066  0.00  0.00    +0.000 A 
ATOM     34  C   UNL     1       1.648   2.659  18.760  0.00  0.00    +0.000 A 
ATOM     35  C   UNL     1       2.443   1.985  17.865  0.00  0.00    +0.000 A 
ATOM     36  C   UNL     1       3.427   2.710  17.213  0.00  0.00    +0.000 A 
ATOM     37  C   UNL     1       3.514   4.144  17.365  0.00  0.00    +0.000 A 
ATOM     38  C   UNL     1       2.706   4.925  18.331  0.00  0.00    +0.000 A 
ENDBRANCH  28  29
ENDBRANCH  26  28
ENDBRANCH   8  24
BRANCH   6  39
ATOM     39  N   UNL     1      -1.755  11.540  16.741  0.00  0.00    +0.000 NA
ATOM     40  H   UNL     1      -1.327  10.615  16.646  0.00  0.00    +0.000 HD
ATOM     41  H   UNL     1      -1.047  12.168  16.347  0.00  0.00    +0.000 HD
ENDBRANCH   6  39
TORSDOF 5
ENDMDL
MODEL 5
REMARK VINA RESULT:      -8.8      4.170     10.575
REMARK  Name = 
REMARK  5 active torsions:
REMARK  status: ('A' for Active; 'I' for Inactive)
REMARK    1  A    between atoms: C_6  and  N_7
REMARK    2  A    between atoms: C_12  and  N_13
REMARK    3  A    between atoms: C_15  and  C_16
REMARK    4  A    between atoms: N_18  and  C_19
REMARK    5  A    between atoms: C_19  and  C_20
REMARK                            x       y       z     vdW  Elec       q    Type
REMARK                         _______ _______ _______ _____ _____    ______ ____
ROOT
ATOM      1  N   UNL     1       2.524   7.614  18.690  0.00  0.00    +0.000 N 
ATOM      2  C   UNL     1       1.832   7.568  19.873  0.00  0.00    +0.000 C 
ATOM      3  O   UNL     1       1.863   6.626  20.666  0.00  0.00    +0.000 OA
ATOM      4  N   UNL     1       1.066   8.697  20.166  0.00  0.00    +0.000 N 
ATOM      5  C   UNL     1       0.276   8.581  21.402  0.00  0.00    +0.000 C 
ATOM      6  C   UNL     1      -0.326   9.961  21.580  0.00  0.00    +0.000 C 
ATOM      7  C   UNL     1      -0.653  10.354  20.131  0.00  0.00    +0.000 C 
ATOM      8  C   UNL     1       0.460   9.741  19.243  0.00  0.00    +0.000 C 
ATOM      9  H   UNL     1       2.587   8.497  18.203  0.00  0.00    +0.000 HD
ENDROOT
BRANCH   1  15
ATOM     10  N   UNL     1       6.998   6.352  16.302  0.00  0.00    +0.000 N 
ATOM     11  C   UNL     1       6.487   5.278  16.974  0.00  0.00    +0.000 C 
ATOM     12  O   UNL     1       7.032   4.198  17.088  0.00  0.00    +0.000 OA
ATOM     13  N   UNL     1       5.192   5.514  17.480  0.00  0.00    +0.000 N 
ATOM     14  C   UNL     1       4.697   6.735  17.896  0.00  0.00    +0.000 A 
ATOM     15  C   UNL     1       3.376   6.604  18.255  0.00  0.00    +0.000 A 
ATOM     16  C   UNL     1       3.040   5.232  18.084  0.00  0.00    +0.000 A 
ATOM     17  C   UNL     1       1.855   4.482  18.262  0.00  0.00    +0.000 A 
ATOM     18  C   UNL     1       1.834   3.120  17.939  0.00  0.00    +0.000 A 
ATOM     19  C   UNL     1       2.976   2.491  17.456  0.00  0.00    +0.000 A 
ATOM     20  C   UNL     1       4.184   3.216  17.323  0.00  0.00    +0.000 A 
ATOM     21  C   UNL     1       4.187   4.573  17.625  0.00  0.00    +0.000 A 
ATOM     22  H   UNL     1       7.847   6.176  15.782  0.00  0.00    +0.000 HD
ATOM     23  H   UNL     1       6.381   7.066  15.936  0.00  0.00    +0.000 HD
ENDBRANCH   1  15
BRANCH   8  24
ATOM     24  C   UNL     1       1.456  10.697  18.375  0.00  0.00    +0.000 C 
ATOM     25  O   UNL     1       2.124  10.160  17.480  0.00  0.00    +0.000 OA
ATOM     26  N   UNL     1       1.560  12.081  18.548  0.00  0.00    +0.000 N 
ATOM     27  H   UNL     1       1.214  12.446  19.433  0.00  0.00    +0.000 HD
BRANCH  26  28
ATOM     28  C   UNL     1       2.684  12.999  17.883  0.00  0.00    +0.000 C 
BRANCH  28  29
ATOM     29  C   UNL     1       2.712  14.444  18.472  0.00  0.00    +0.000 A 
ATOM     30  C   UNL     1       1.394  14.782  18.822  0.00  0.00    +0.000 A 
ATOM     31  C   UNL     1       1.082  16.081  18.988  0.00  0.00    +0.000 A 
ATOM     32  C   UNL     1       1.878  16.538  19.980  0.00  0.00    +0.000 A 
ATOM     33  C   UNL     1       3.241  16.412  19.800  0.00  0.00    +0.000 A 
ATOM     34  C   UNL     1       3.966  17.342  20.554  0.00  0.00    +0.000 A 
ATOM     35  C   UNL     1       5.250  17.684  20.207  0.00  0.00    +0.000 A 
ATOM     36  C   UNL     1       5.827  17.006  19.144  0.00  0.00    +0.000 A 
ATOM     37  C   UNL     1       5.152  15.889  18.526  0.00  0.00    +0.000 A 
ATOM     38  C   UNL     1       3.760  15.487  18.835  0.00  0.00    +0.000 A 
ENDBRANCH  28  29
ENDBRANCH  26  28
ENDBRANCH   8  24
BRANCH   6  39
ATOM     39  N   UNL     1       0.648  10.885  22.170  0.00  0.00    +0.000 NA
ATOM     40  H   UNL     1       0.197  11.797  22.285  0.00  0.00    +0.000 HD
ATOM     41  H   UNL     1       1.378  11.070  21.476  0.00  0.00    +0.000 HD
ENDBRANCH   6  39
TORSDOF 5
ENDMDL
MODEL 6
REMARK VINA RESULT:      -8.8      1.313      1.496
REMARK  Name = 
REMARK  5 active torsions:
REMARK  status: ('A' for Active; 'I' for Inactive)
REMARK    1  A    between atoms: C_6  and  N_7
REMARK    2  A    between atoms: C_12  and  N_13
REMARK    3  A    between atoms: C_15  and  C_16
REMARK    4  A    between atoms: N_18  and  C_19
REMARK    5  A    between atoms: C_19  and  C_20
REMARK                            x       y       z     vdW  Elec       q    Type
REMARK                         _______ _______ _______ _____ _____    ______ ____
ROOT
ATOM      1  N   UNL     1      -1.677  12.454  19.849  0.00  0.00    +0.000 N 
ATOM      2  C   UNL     1      -0.896  13.579  19.783  0.00  0.00    +0.000 C 
ATOM      3  O   UNL     1      -1.302  14.725  19.987  0.00  0.00    +0.000 OA
ATOM      4  N   UNL     1       0.448  13.363  19.478  0.00  0.00    +0.000 N 
ATOM      5  C   UNL     1       1.237  14.597  19.339  0.00  0.00    +0.000 C 
ATOM      6  C   UNL     1       2.660  14.103  19.172  0.00  0.00    +0.000 C 
ATOM      7  C   UNL     1       2.462  12.851  18.302  0.00  0.00    +0.000 C 
ATOM      8  C   UNL     1       1.116  12.217  18.737  0.00  0.00    +0.000 C 
ATOM      9  H   UNL     1      -1.221  11.551  19.855  0.00  0.00    +0.000 HD
ENDROOT
BRANCH   1  15
ATOM     10  N   UNL     1      -5.266  12.511  23.647  0.00  0.00    +0.000 N 
ATOM     11  C   UNL     1      -5.827  12.832  22.444  0.00  0.00    +0.000 C 
ATOM     12  O   UNL     1      -6.980  13.177  22.278  0.00  0.00    +0.000 OA
ATOM     13  N   UNL     1      -4.942  12.651  21.361  0.00  0.00    +0.000 N 
ATOM     14  C   UNL     1      -3.569  12.796  21.406  0.00  0.00    +0.000 A 
ATOM     15  C   UNL     1      -3.026  12.468  20.187  0.00  0.00    +0.000 A 
ATOM     16  C   UNL     1      -4.113  12.132  19.332  0.00  0.00    +0.000 A 
ATOM     17  C   UNL     1      -4.209  11.701  17.989  0.00  0.00    +0.000 A 
ATOM     18  C   UNL     1      -5.459  11.384  17.444  0.00  0.00    +0.000 A 
ATOM     19  C   UNL     1      -6.615  11.504  18.208  0.00  0.00    +0.000 A 
ATOM     20  C   UNL     1      -6.540  11.986  19.537  0.00  0.00    +0.000 A 
ATOM     21  C   UNL     1      -5.291  12.275  20.075  0.00  0.00    +0.000 A 
ATOM     22  H   UNL     1      -5.906  12.464  24.428  0.00  0.00    +0.000 HD
ATOM     23  H   UNL     1      -4.457  11.904  23.687  0.00  0.00    +0.000 HD
ENDBRANCH   1  15
BRANCH   8  24
ATOM     24  C   UNL     1       1.070  10.724  19.391  0.00  0.00    +0.000 C 
ATOM     25  O   UNL     1       0.612  10.619  20.539  0.00  0.00    +0.000 OA
ATOM     26  N   UNL     1       1.467   9.563  18.720  0.00  0.00    +0.000 N 
ATOM     27  H   UNL     1       2.066   9.701  17.909  0.00  0.00    +0.000 HD
BRANCH  26  28
ATOM     28  C   UNL     1       1.653   8.134  19.407  0.00  0.00    +0.000 C 
BRANCH  28  29
ATOM     29  C   UNL     1       2.429   7.124  18.504  0.00  0.00    +0.000 A 
ATOM     30  C   UNL     1       3.457   7.837  17.865  0.00  0.00    +0.000 A 
ATOM     31  C   UNL     1       4.022   7.309  16.762  0.00  0.00    +0.000 A 
ATOM     32  C   UNL     1       4.546   6.121  17.137  0.00  0.00    +0.000 A 
ATOM     33  C   UNL     1       3.681   5.202  17.698  0.00  0.00    +0.000 A 
ATOM     34  C   UNL     1       4.138   3.886  17.558  0.00  0.00    +0.000 A 
ATOM     35  C   UNL     1       3.269   2.825  17.635  0.00  0.00    +0.000 A 
ATOM     36  C   UNL     1       1.948   3.103  17.947  0.00  0.00    +0.000 A 
ATOM     37  C   UNL     1       1.540   4.438  18.318  0.00  0.00    +0.000 A 
ATOM     38  C   UNL     1       2.420   5.628  18.230  0.00  0.00    +0.000 A 
ENDBRANCH  28  29
ENDBRANCH  26  28
ENDBRANCH   8  24
BRANCH   6  39
ATOM     39  N   UNL     1       3.248  13.755  20.470  0.00  0.00    +0.000 NA
ATOM     40  H   UNL     1       4.157  13.315  20.304  0.00  0.00    +0.000 HD
ATOM     41  H   UNL     1       2.693  12.998  20.883  0.00  0.00    +0.000 HD
ENDBRANCH   6  39
TORSDOF 5
ENDMDL
MODEL 7
REMARK VINA RESULT:      -8.8      1.982      2.748
REMARK  Name = 
REMARK  5 active torsions:
REMARK  status: ('A' for Active; 'I' for Inactive)
REMARK    1  A    between atoms: C_6  and  N_7
REMARK    2  A    between atoms: C_12  and  N_13
REMARK    3  A    between atoms: C_15  and  C_16
REMARK    4  A    between atoms: N_18  and  C_19
REMARK    5  A    between atoms: C_19  and  C_20
REMARK                            x       y       z     vdW  Elec       q    Type
REMARK                         _______ _______ _______ _____ _____    ______ ____
ROOT
ATOM      1  N   UNL     1      -1.572  12.201  19.306  0.00  0.00    +0.000 N 
ATOM      2  C   UNL     1      -0.830  13.354  19.299  0.00  0.00    +0.000 C 
ATOM      3  O   UNL     1      -1.298  14.489  19.414  0.00  0.00    +0.000 OA
ATOM      4  N   UNL     1       0.548  13.183  19.166  0.00  0.00    +0.000 N 
ATOM      5  C   UNL     1       1.305  14.443  19.084  0.00  0.00    +0.000 C 
ATOM      6  C   UNL     1       2.754  14.000  19.108  0.00  0.00    +0.000 C 
ATOM      7  C   UNL     1       2.709  12.718  18.261  0.00  0.00    +0.000 C 
ATOM      8  C   UNL     1       1.343  12.044  18.550  0.00  0.00    +0.000 C 
ATOM      9  H   UNL     1      -1.089  11.318  19.397  0.00  0.00    +0.000 HD
ENDROOT
BRANCH   1  15
ATOM     10  N   UNL     1      -6.286  12.107  17.052  0.00  0.00    +0.000 N 
ATOM     11  C   UNL     1      -6.373  11.779  18.375  0.00  0.00    +0.000 C 
ATOM     12  O   UNL     1      -7.386  11.421  18.943  0.00  0.00    +0.000 OA
ATOM     13  N   UNL     1      -5.160  11.969  19.069  0.00  0.00    +0.000 N 
ATOM     14  C   UNL     1      -3.894  11.839  18.533  0.00  0.00    +0.000 A 
ATOM     15  C   UNL     1      -2.952  12.172  19.476  0.00  0.00    +0.000 A 
ATOM     16  C   UNL     1      -3.662  12.496  20.666  0.00  0.00    +0.000 A 
ATOM     17  C   UNL     1      -3.273  12.926  21.955  0.00  0.00    +0.000 A 
ATOM     18  C   UNL     1      -4.247  13.228  22.915  0.00  0.00    +0.000 A 
ATOM     19  C   UNL     1      -5.598  13.096  22.617  0.00  0.00    +0.000 A 
ATOM     20  C   UNL     1      -6.002  12.616  21.348  0.00  0.00    +0.000 A 
ATOM     21  C   UNL     1      -5.027  12.341  20.396  0.00  0.00    +0.000 A 
ATOM     22  H   UNL     1      -7.165  12.147  16.554  0.00  0.00    +0.000 HD
ATOM     23  H   UNL     1      -5.551  12.723  16.727  0.00  0.00    +0.000 HD
ENDBRANCH   1  15
BRANCH   8  24
ATOM     24  C   UNL     1       1.270  10.569  19.242  0.00  0.00    +0.000 C 
ATOM     25  O   UNL     1       0.784  10.497  20.380  0.00  0.00    +0.000 OA
ATOM     26  N   UNL     1       1.675   9.388  18.612  0.00  0.00    +0.000 N 
ATOM     27  H   UNL     1       2.295   9.500  17.812  0.00  0.00    +0.000 HD
BRANCH  26  28
ATOM     28  C   UNL     1       1.834   7.976  19.340  0.00  0.00    +0.000 C 
BRANCH  28  29
ATOM     29  C   UNL     1       2.566   6.917  18.457  0.00  0.00    +0.000 A 
ATOM     30  C   UNL     1       3.630   7.570  17.813  0.00  0.00    +0.000 A 
ATOM     31  C   UNL     1       4.174   6.999  16.721  0.00  0.00    +0.000 A 
ATOM     32  C   UNL     1       4.638   5.793  17.116  0.00  0.00    +0.000 A 
ATOM     33  C   UNL     1       3.726   4.925  17.685  0.00  0.00    +0.000 A 
ATOM     34  C   UNL     1       4.120   3.586  17.566  0.00  0.00    +0.000 A 
ATOM     35  C   UNL     1       3.200   2.570  17.653  0.00  0.00    +0.000 A 
ATOM     36  C   UNL     1       1.892   2.917  17.954  0.00  0.00    +0.000 A 
ATOM     37  C   UNL     1       1.548   4.275  18.303  0.00  0.00    +0.000 A 
ATOM     38  C   UNL     1       2.484   5.419  18.204  0.00  0.00    +0.000 A 
ENDBRANCH  28  29
ENDBRANCH  26  28
ENDBRANCH   8  24
BRANCH   6  39
ATOM     39  N   UNL     1       3.190  13.712  20.478  0.00  0.00    +0.000 NA
ATOM     40  H   UNL     1       4.146  13.347  20.441  0.00  0.00    +0.000 HD
ATOM     41  H   UNL     1       2.648  12.916  20.829  0.00  0.00    +0.000 HD
ENDBRANCH   6  39
TORSDOF 5
ENDMDL
MODEL 8
REMARK VINA RESULT:      -8.7      0.711      1.789
REMARK  Name = 
REMARK  5 active torsions:
REMARK  status: ('A' for Active; 'I' for Inactive)
REMARK    1  A    between atoms: C_6  and  N_7
REMARK    2  A    between atoms: C_12  and  N_13
REMARK    3  A    between atoms: C_15  and  C_16
REMARK    4  A    between atoms: N_18  and  C_19
REMARK    5  A    between atoms: C_19  and  C_20
REMARK                            x       y       z     vdW  Elec       q    Type
REMARK                         _______ _______ _______ _____ _____    ______ ____
ROOT
ATOM      1  N   UNL     1      -1.908  12.343  20.607  0.00  0.00    +0.000 N 
ATOM      2  C   UNL     1      -1.175  13.376  20.082  0.00  0.00    +0.000 C 
ATOM      3  O   UNL     1      -1.564  14.543  20.006  0.00  0.00    +0.000 OA
ATOM      4  N   UNL     1       0.102  13.039  19.632  0.00  0.00    +0.000 N 
ATOM      5  C   UNL     1       0.830  14.154  19.004  0.00  0.00    +0.000 C 
ATOM      6  C   UNL     1       2.214  13.589  18.753  0.00  0.00    +0.000 C 
ATOM      7  C   UNL     1       1.897  12.144  18.335  0.00  0.00    +0.000 C 
ATOM      8  C   UNL     1       0.658  11.707  19.158  0.00  0.00    +0.000 C 
ATOM      9  H   UNL     1      -1.440  11.469  20.801  0.00  0.00    +0.000 HD
ENDROOT
BRANCH   1  15
ATOM     10  N   UNL     1      -4.912  12.279  24.882  0.00  0.00    +0.000 N 
ATOM     11  C   UNL     1      -5.562  12.878  23.841  0.00  0.00    +0.000 C 
ATOM     12  O   UNL     1      -6.653  13.410  23.909  0.00  0.00    +0.000 OA
ATOM     13  N   UNL     1      -4.870  12.756  22.619  0.00  0.00    +0.000 N 
ATOM     14  C   UNL     1      -3.498  12.690  22.471  0.00  0.00    +0.000 A 
ATOM     15  C   UNL     1      -3.181  12.497  21.148  0.00  0.00    +0.000 A 
ATOM     16  C   UNL     1      -4.410  12.472  20.432  0.00  0.00    +0.000 A 
ATOM     17  C   UNL     1      -4.751  12.292  19.072  0.00  0.00    +0.000 A 
ATOM     18  C   UNL     1      -6.097  12.258  18.687  0.00  0.00    +0.000 A 
ATOM     19  C   UNL     1      -7.107  12.414  19.630  0.00  0.00    +0.000 A 
ATOM     20  C   UNL     1      -6.780  12.648  20.987  0.00  0.00    +0.000 A 
ATOM     21  C   UNL     1      -5.441  12.657  21.362  0.00  0.00    +0.000 A 
ATOM     22  H   UNL     1      -5.445  12.195  25.738  0.00  0.00    +0.000 HD
ATOM     23  H   UNL     1      -4.219  11.563  24.707  0.00  0.00    +0.000 HD
ENDBRANCH   1  15
BRANCH   8  24
ATOM     24  C   UNL     1       0.756  10.472  20.220  0.00  0.00    +0.000 C 
ATOM     25  O   UNL     1       0.443  10.708  21.396  0.00  0.00    +0.000 OA
ATOM     26  N   UNL     1       1.120   9.168  19.872  0.00  0.00    +0.000 N 
ATOM     27  H   UNL     1       1.611   9.064  18.987  0.00  0.00    +0.000 HD
BRANCH  26  28
ATOM     28  C   UNL     1       1.448   8.006  20.917  0.00  0.00    +0.000 C 
BRANCH  28  29
ATOM     29  C   UNL     1       1.999   6.715  20.234  0.00  0.00    +0.000 A 
ATOM     30  C   UNL     1       1.339   5.619  20.812  0.00  0.00    +0.000 A 
ATOM     31  C   UNL     1       1.885   4.394  20.688  0.00  0.00    +0.000 A 
ATOM     32  C   UNL     1       1.964   4.147  19.361  0.00  0.00    +0.000 A 
ATOM     33  C   UNL     1       2.674   5.050  18.595  0.00  0.00    +0.000 A 
ATOM     34  C   UNL     1       3.154   4.480  17.409  0.00  0.00    +0.000 A 
ATOM     35  C   UNL     1       4.217   5.036  16.740  0.00  0.00    +0.000 A 
ATOM     36  C   UNL     1       4.730   6.226  17.231  0.00  0.00    +0.000 A 
ATOM     37  C   UNL     1       4.078   6.921  18.315  0.00  0.00    +0.000 A 
ATOM     38  C   UNL     1       2.946   6.366  19.095  0.00  0.00    +0.000 A 
ENDBRANCH  28  29
ENDBRANCH  26  28
ENDBRANCH   8  24
BRANCH   6  39
ATOM     39  N   UNL     1       3.022  13.619  19.977  0.00  0.00    +0.000 NA
ATOM     40  H   UNL     1       2.428  13.943  20.746  0.00  0.00    +0.000 HD
ATOM     41  H   UNL     1       3.717  14.366  19.887  0.00  0.00    +0.000 HD
ENDBRANCH   6  39
TORSDOF 5
ENDMDL
MODEL 9
REMARK VINA RESULT:      -8.7      4.157     10.258
REMARK  Name = 
REMARK  5 active torsions:
REMARK  status: ('A' for Active; 'I' for Inactive)
REMARK    1  A    between atoms: C_6  and  N_7
REMARK    2  A    between atoms: C_12  and  N_13
REMARK    3  A    between atoms: C_15  and  C_16
REMARK    4  A    between atoms: N_18  and  C_19
REMARK    5  A    between atoms: C_19  and  C_20
REMARK                            x       y       z     vdW  Elec       q    Type
REMARK                         _______ _______ _______ _____ _____    ______ ____
ROOT
ATOM      1  N   UNL     1       2.514   7.702  18.670  0.00  0.00    +0.000 N 
ATOM      2  C   UNL     1       1.836   7.652  19.861  0.00  0.00    +0.000 C 
ATOM      3  O   UNL     1       1.896   6.716  20.661  0.00  0.00    +0.000 OA
ATOM      4  N   UNL     1       1.050   8.766  20.154  0.00  0.00    +0.000 N 
ATOM      5  C   UNL     1       0.277   8.644  21.400  0.00  0.00    +0.000 C 
ATOM      6  C   UNL     1      -0.352  10.012  21.574  0.00  0.00    +0.000 C 
ATOM      7  C   UNL     1      -0.704  10.387  20.126  0.00  0.00    +0.000 C 
ATOM      8  C   UNL     1       0.412   9.790  19.230  0.00  0.00    +0.000 C 
ATOM      9  H   UNL     1       2.553   8.582  18.175  0.00  0.00    +0.000 HD
ENDROOT
BRANCH   1  15
ATOM     10  N   UNL     1       7.042   6.517  16.347  0.00  0.00    +0.000 N 
ATOM     11  C   UNL     1       6.526   5.427  16.988  0.00  0.00    +0.000 C 
ATOM     12  O   UNL     1       7.077   4.349  17.093  0.00  0.00    +0.000 OA
ATOM     13  N   UNL     1       5.220   5.644  17.473  0.00  0.00    +0.000 N 
ATOM     14  C   UNL     1       4.708   6.853  17.902  0.00  0.00    +0.000 A 
ATOM     15  C   UNL     1       3.382   6.707  18.233  0.00  0.00    +0.000 A 
ATOM     16  C   UNL     1       3.059   5.336  18.029  0.00  0.00    +0.000 A 
ATOM     17  C   UNL     1       1.876   4.574  18.170  0.00  0.00    +0.000 A 
ATOM     18  C   UNL     1       1.872   3.219  17.821  0.00  0.00    +0.000 A 
ATOM     19  C   UNL     1       3.027   2.606  17.349  0.00  0.00    +0.000 A 
ATOM     20  C   UNL     1       4.232   3.342  17.253  0.00  0.00    +0.000 A 
ATOM     21  C   UNL     1       4.219   4.693  17.581  0.00  0.00    +0.000 A 
ATOM     22  H   UNL     1       7.903   6.357  15.840  0.00  0.00    +0.000 HD
ATOM     23  H   UNL     1       6.427   7.233  15.982  0.00  0.00    +0.000 HD
ENDBRANCH   1  15
BRANCH   8  24
ATOM     24  C   UNL     1       1.378  10.760  18.343  0.00  0.00    +0.000 C 
ATOM     25  O   UNL     1       2.132  10.216  17.523  0.00  0.00    +0.000 OA
ATOM     26  N   UNL     1       1.367  12.156  18.419  0.00  0.00    +0.000 N 
ATOM     27  H   UNL     1       0.947  12.553  19.257  0.00  0.00    +0.000 HD
BRANCH  26  28
ATOM     28  C   UNL     1       2.452  13.112  17.743  0.00  0.00    +0.000 C 
BRANCH  28  29
ATOM     29  C   UNL     1       3.174  14.035  18.775  0.00  0.00    +0.000 A 
ATOM     30  C   UNL     1       2.310  14.196  19.871  0.00  0.00    +0.000 A 
ATOM     31  C   UNL     1       2.514  15.229  20.710  0.00  0.00    +0.000 A 
ATOM     32  C   UNL     1       3.758  15.068  21.214  0.00  0.00    +0.000 A 
ATOM     33  C   UNL     1       4.798  14.996  20.309  0.00  0.00    +0.000 A 
ATOM     34  C   UNL     1       6.024  15.365  20.876  0.00  0.00    +0.000 A 
ATOM     35  C   UNL     1       7.068  15.783  20.088  0.00  0.00    +0.000 A 
ATOM     36  C   UNL     1       6.890  15.737  18.714  0.00  0.00    +0.000 A 
ATOM     37  C   UNL     1       5.709  15.135  18.141  0.00  0.00    +0.000 A 
ATOM     38  C   UNL     1       4.538  14.690  18.932  0.00  0.00    +0.000 A 
ENDBRANCH  28  29
ENDBRANCH  26  28
ENDBRANCH   8  24
BRANCH   6  39
ATOM     39  N   UNL     1       0.609  10.961  22.146  0.00  0.00    +0.000 NA
ATOM     40  H   UNL     1       0.821  10.666  23.104  0.00  0.00    +0.000 HD
ATOM     41  H   UNL     1       0.136  11.860  22.277  0.00  0.00    +0.000 HD
ENDBRANCH   6  39
TORSDOF 5
ENDMDL
