MODEL 1
REMARK VINA RESULT:      -8.1      0.000      0.000
REMARK  Name = 
REMARK  5 active torsions:
REMARK  status: ('A' for Active; 'I' for Inactive)
REMARK    1  A    between atoms: C_1  and  C_2
REMARK    2  A    between atoms: C_2  and  C_3
REMARK    3  A    between atoms: C_3  and  N_4
REMARK    4  A    between atoms: C_8  and  C_9
REMARK    5  A    between atoms: C_11  and  O_12
REMARK                            x       y       z     vdW  Elec       q    Type
REMARK                         _______ _______ _______ _____ _____    ______ ____
ROOT
ATOM      1  N   UNL     1       5.180   4.808  16.678  0.00  0.00    +0.000 N 
ATOM      2  C   UNL     1       5.207   6.202  16.599  0.00  0.00    +0.000 C 
ATOM      3  O   UNL     1       6.072   6.921  16.134  0.00  0.00    +0.000 OA
ATOM      4  C   UNL     1       3.923   6.652  17.242  0.00  0.00    +0.000 C 
ATOM      5  C   UNL     1       3.694   7.950  17.483  0.00  0.00    +0.000 C 
ATOM      6  C   UNL     1       3.157   5.449  17.583  0.00  0.00    +0.000 A 
ATOM      7  C   UNL     1       1.886   5.255  18.091  0.00  0.00    +0.000 A 
ATOM      8  C   UNL     1       1.450   3.946  18.310  0.00  0.00    +0.000 A 
ATOM      9  C   UNL     1       2.291   2.857  18.030  0.00  0.00    +0.000 A 
ATOM     10  C   UNL     1       3.565   3.057  17.493  0.00  0.00    +0.000 A 
ATOM     11  C   UNL     1       3.976   4.360  17.254  0.00  0.00    +0.000 A 
ENDROOT
BRANCH   5  12
ATOM     12  C   UNL     1       2.553   8.464  18.220  0.00  0.00    +0.000 A 
ATOM     13  N   UNL     1       1.669   9.196  17.529  0.00  0.00    +0.000 NA
ATOM     14  C   UNL     1       0.648   9.664  18.254  0.00  0.00    +0.000 A 
ATOM     15  C   UNL     1       0.450   9.448  19.611  0.00  0.00    +0.000 A 
ATOM     16  C   UNL     1      -0.646   9.938  20.358  0.00  0.00    +0.000 A 
ATOM     17  C   UNL     1      -0.748   9.648  21.716  0.00  0.00    +0.000 A 
ATOM     18  C   UNL     1       0.243   8.890  22.328  0.00  0.00    +0.000 A 
ATOM     19  C   UNL     1       1.327   8.420  21.577  0.00  0.00    +0.000 A 
ATOM     20  C   UNL     1       1.444   8.677  20.216  0.00  0.00    +0.000 A 
ATOM     21  N   UNL     1       2.491   8.188  19.533  0.00  0.00    +0.000 NA
BRANCH  14  22
ATOM     22  O   UNL     1      -0.224  10.415  17.527  0.00  0.00    +0.000 OA
ATOM     23  H   UNL     1      -1.014   9.843  17.550  0.00  0.00    +0.000 HD
ENDBRANCH  14  22
ENDBRANCH   5  12
BRANCH   1  24
ATOM     24  C   UNL     1       6.223   3.951  16.158  0.00  0.00    +0.000 C 
BRANCH  24  26
ATOM     25  C   UNL     1       5.541   3.869  13.731  0.00  0.00    +0.000 C 
ATOM     26  C   UNL     1       6.614   4.301  14.720  0.00  0.00    +0.000 C 
ENDBRANCH  24  26
ENDBRANCH   1  24
TORSDOF 4
ENDMDL
MODEL 2
REMARK VINA RESULT:      -7.9      1.472      1.743
REMARK  Name = 
REMARK  5 active torsions:
REMARK  status: ('A' for Active; 'I' for Inactive)
REMARK    1  A    between atoms: C_1  and  C_2
REMARK    2  A    between atoms: C_2  and  C_3
REMARK    3  A    between atoms: C_3  and  N_4
REMARK    4  A    between atoms: C_8  and  C_9
REMARK    5  A    between atoms: C_11  and  O_12
REMARK                            x       y       z     vdW  Elec       q    Type
REMARK                         _______ _______ _______ _____ _____    ______ ____
ROOT
ATOM      1  N   UNL     1       4.727   5.030  17.667  0.00  0.00    +0.000 N 
ATOM      2  C   UNL     1       4.417   6.261  17.084  0.00  0.00    +0.000 C 
ATOM      3  O   UNL     1       4.933   6.798  16.122  0.00  0.00    +0.000 OA
ATOM      4  C   UNL     1       3.297   6.815  17.922  0.00  0.00    +0.000 C 
ATOM      5  C   UNL     1       2.858   8.068  17.740  0.00  0.00    +0.000 C 
ATOM      6  C   UNL     1       2.948   5.797  18.918  0.00  0.00    +0.000 A 
ATOM      7  C   UNL     1       1.947   5.714  19.869  0.00  0.00    +0.000 A 
ATOM      8  C   UNL     1       1.897   4.580  20.683  0.00  0.00    +0.000 A 
ATOM      9  C   UNL     1       2.847   3.558  20.544  0.00  0.00    +0.000 A 
ATOM     10  C   UNL     1       3.842   3.634  19.565  0.00  0.00    +0.000 A 
ATOM     11  C   UNL     1       3.865   4.751  18.745  0.00  0.00    +0.000 A 
ENDROOT
BRANCH   5  12
ATOM     12  C   UNL     1       1.884   8.733  18.587  0.00  0.00    +0.000 A 
ATOM     13  N   UNL     1       1.003   9.537  17.976  0.00  0.00    +0.000 NA
ATOM     14  C   UNL     1       0.140  10.142  18.798  0.00  0.00    +0.000 A 
ATOM     15  C   UNL     1       0.096   9.997  20.178  0.00  0.00    +0.000 A 
ATOM     16  C   UNL     1      -0.835  10.632  21.031  0.00  0.00    +0.000 A 
ATOM     17  C   UNL     1      -0.794  10.403  22.403  0.00  0.00    +0.000 A 
ATOM     18  C   UNL     1       0.180   9.559  22.924  0.00  0.00    +0.000 A 
ATOM     19  C   UNL     1       1.102   8.943  22.068  0.00  0.00    +0.000 A 
ATOM     20  C   UNL     1       1.070   9.139  20.692  0.00  0.00    +0.000 A 
ATOM     21  N   UNL     1       1.962   8.511  19.909  0.00  0.00    +0.000 NA
BRANCH  14  22
ATOM     22  O   UNL     1      -0.732  10.961  18.150  0.00  0.00    +0.000 OA
ATOM     23  H   UNL     1      -0.438  10.841  17.228  0.00  0.00    +0.000 HD
ENDBRANCH  14  22
ENDBRANCH   5  12
BRANCH   1  24
ATOM     24  C   UNL     1       5.748   4.135  17.165  0.00  0.00    +0.000 C 
BRANCH  24  26
ATOM     25  C   UNL     1       7.553   5.242  18.536  0.00  0.00    +0.000 C 
ATOM     26  C   UNL     1       7.139   4.775  17.148  0.00  0.00    +0.000 C 
ENDBRANCH  24  26
ENDBRANCH   1  24
TORSDOF 4
ENDMDL
MODEL 3
REMARK VINA RESULT:      -7.8      1.231      1.938
REMARK  Name = 
REMARK  5 active torsions:
REMARK  status: ('A' for Active; 'I' for Inactive)
REMARK    1  A    between atoms: C_1  and  C_2
REMARK    2  A    between atoms: C_2  and  C_3
REMARK    3  A    between atoms: C_3  and  N_4
REMARK    4  A    between atoms: C_8  and  C_9
REMARK    5  A    between atoms: C_11  and  O_12
REMARK                            x       y       z     vdW  Elec       q    Type
REMARK                         _______ _______ _______ _____ _____    ______ ____
ROOT
ATOM      1  N   UNL     1       4.984   4.614  16.452  0.00  0.00    +0.000 N 
ATOM      2  C   UNL     1       5.021   6.009  16.412  0.00  0.00    +0.000 C 
ATOM      3  O   UNL     1       5.834   6.734  15.868  0.00  0.00    +0.000 OA
ATOM      4  C   UNL     1       3.830   6.452  17.218  0.00  0.00    +0.000 C 
ATOM      5  C   UNL     1       3.649   7.744  17.523  0.00  0.00    +0.000 C 
ATOM      6  C   UNL     1       3.094   5.247  17.613  0.00  0.00    +0.000 A 
ATOM      7  C   UNL     1       1.890   5.049  18.264  0.00  0.00    +0.000 A 
ATOM      8  C   UNL     1       1.466   3.739  18.495  0.00  0.00    +0.000 A 
ATOM      9  C   UNL     1       2.251   2.651  18.084  0.00  0.00    +0.000 A 
ATOM     10  C   UNL     1       3.455   2.855  17.403  0.00  0.00    +0.000 A 
ATOM     11  C   UNL     1       3.852   4.160  17.156  0.00  0.00    +0.000 A 
ENDROOT
BRANCH   5  12
ATOM     12  C   UNL     1       2.612   8.247  18.408  0.00  0.00    +0.000 A 
ATOM     13  N   UNL     1       2.576   7.734  19.646  0.00  0.00    +0.000 NA
ATOM     14  C   UNL     1       1.593   8.212  20.415  0.00  0.00    +0.000 A 
ATOM     15  C   UNL     1       0.655   9.163  20.036  0.00  0.00    +0.000 A 
ATOM     16  C   UNL     1      -0.369   9.669  20.870  0.00  0.00    +0.000 A 
ATOM     17  C   UNL     1      -1.249  10.632  20.387  0.00  0.00    +0.000 A 
ATOM     18  C   UNL     1      -1.121  11.076  19.076  0.00  0.00    +0.000 A 
ATOM     19  C   UNL     1      -0.108  10.559  18.259  0.00  0.00    +0.000 A 
ATOM     20  C   UNL     1       0.797   9.611  18.722  0.00  0.00    +0.000 A 
ATOM     21  N   UNL     1       1.764   9.159  17.908  0.00  0.00    +0.000 NA
BRANCH  14  22
ATOM     22  O   UNL     1       1.573   7.662  21.660  0.00  0.00    +0.000 OA
ATOM     23  H   UNL     1       1.929   6.775  21.469  0.00  0.00    +0.000 HD
ENDBRANCH  14  22
ENDBRANCH   5  12
BRANCH   1  24
ATOM     24  C   UNL     1       5.945   3.762  15.784  0.00  0.00    +0.000 C 
BRANCH  24  26
ATOM     25  C   UNL     1       6.898   4.448  13.552  0.00  0.00    +0.000 C 
ATOM     26  C   UNL     1       5.757   3.736  14.266  0.00  0.00    +0.000 C 
ENDBRANCH  24  26
ENDBRANCH   1  24
TORSDOF 4
ENDMDL
MODEL 4
REMARK VINA RESULT:      -7.8      3.134      7.586
REMARK  Name = 
REMARK  5 active torsions:
REMARK  status: ('A' for Active; 'I' for Inactive)
REMARK    1  A    between atoms: C_1  and  C_2
REMARK    2  A    between atoms: C_2  and  C_3
REMARK    3  A    between atoms: C_3  and  N_4
REMARK    4  A    between atoms: C_8  and  C_9
REMARK    5  A    between atoms: C_11  and  O_12
REMARK                            x       y       z     vdW  Elec       q    Type
REMARK                         _______ _______ _______ _____ _____    ______ ____
ROOT
ATOM      1  N   UNL     1       2.935   4.142  20.341  0.00  0.00    +0.000 N 
ATOM      2  C   UNL     1       3.694   3.165  19.693  0.00  0.00    +0.000 C 
ATOM      3  O   UNL     1       3.893   2.011  20.026  0.00  0.00    +0.000 OA
ATOM      4  C   UNL     1       4.251   3.851  18.476  0.00  0.00    +0.000 C 
ATOM      5  C   UNL     1       5.164   3.246  17.704  0.00  0.00    +0.000 C 
ATOM      6  C   UNL     1       3.686   5.204  18.436  0.00  0.00    +0.000 A 
ATOM      7  C   UNL     1       3.761   6.229  17.511  0.00  0.00    +0.000 A 
ATOM      8  C   UNL     1       3.094   7.424  17.788  0.00  0.00    +0.000 A 
ATOM      9  C   UNL     1       2.375   7.581  18.984  0.00  0.00    +0.000 A 
ATOM     10  C   UNL     1       2.282   6.533  19.904  0.00  0.00    +0.000 A 
ATOM     11  C   UNL     1       2.925   5.343  19.605  0.00  0.00    +0.000 A 
ENDROOT
BRANCH   5  12
ATOM     12  C   UNL     1       5.858   3.878  16.595  0.00  0.00    +0.000 A 
ATOM     13  N   UNL     1       6.600   4.955  16.884  0.00  0.00    +0.000 NA
ATOM     14  C   UNL     1       7.202   5.513  15.829  0.00  0.00    +0.000 A 
ATOM     15  C   UNL     1       7.117   5.069  14.516  0.00  0.00    +0.000 A 
ATOM     16  C   UNL     1       7.774   5.663  13.415  0.00  0.00    +0.000 A 
ATOM     17  C   UNL     1       7.626   5.124  12.141  0.00  0.00    +0.000 A 
ATOM     18  C   UNL     1       6.814   4.010  11.962  0.00  0.00    +0.000 A 
ATOM     19  C   UNL     1       6.161   3.438  13.061  0.00  0.00    +0.000 A 
ATOM     20  C   UNL     1       6.308   3.944  14.348  0.00  0.00    +0.000 A 
ATOM     21  N   UNL     1       5.679   3.349  15.373  0.00  0.00    +0.000 NA
BRANCH  14  22
ATOM     22  O   UNL     1       7.936   6.613  16.152  0.00  0.00    +0.000 OA
ATOM     23  H   UNL     1       7.972   6.525  17.123  0.00  0.00    +0.000 HD
ENDBRANCH  14  22
ENDBRANCH   5  12
BRANCH   1  24
ATOM     24  C   UNL     1       2.195   3.909  21.563  0.00  0.00    +0.000 C 
BRANCH  24  26
ATOM     25  C   UNL     1       0.517   2.916  19.964  0.00  0.00    +0.000 C 
ATOM     26  C   UNL     1       1.063   2.896  21.385  0.00  0.00    +0.000 C 
ENDBRANCH  24  26
ENDBRANCH   1  24
TORSDOF 4
ENDMDL
MODEL 5
REMARK VINA RESULT:      -7.6      2.446      8.049
REMARK  Name = 
REMARK  5 active torsions:
REMARK  status: ('A' for Active; 'I' for Inactive)
REMARK    1  A    between atoms: C_1  and  C_2
REMARK    2  A    between atoms: C_2  and  C_3
REMARK    3  A    between atoms: C_3  and  N_4
REMARK    4  A    between atoms: C_8  and  C_9
REMARK    5  A    between atoms: C_11  and  O_12
REMARK                            x       y       z     vdW  Elec       q    Type
REMARK                         _______ _______ _______ _____ _____    ______ ____
ROOT
ATOM      1  N   UNL     1      -0.613  11.172  21.996  0.00  0.00    +0.000 N 
ATOM      2  C   UNL     1       0.004  10.062  22.579  0.00  0.00    +0.000 C 
ATOM      3  O   UNL     1       0.241   9.853  23.754  0.00  0.00    +0.000 OA
ATOM      4  C   UNL     1       0.346   9.159  21.425  0.00  0.00    +0.000 C 
ATOM      5  C   UNL     1       1.099   8.066  21.608  0.00  0.00    +0.000 C 
ATOM      6  C   UNL     1      -0.195   9.775  20.209  0.00  0.00    +0.000 A 
ATOM      7  C   UNL     1      -0.270   9.355  18.893  0.00  0.00    +0.000 A 
ATOM      8  C   UNL     1      -0.859  10.207  17.956  0.00  0.00    +0.000 A 
ATOM      9  C   UNL     1      -1.351  11.463  18.342  0.00  0.00    +0.000 A 
ATOM     10  C   UNL     1      -1.296  11.873  19.678  0.00  0.00    +0.000 A 
ATOM     11  C   UNL     1      -0.734  11.007  20.603  0.00  0.00    +0.000 A 
ENDROOT
BRANCH   5  12
ATOM     12  C   UNL     1       1.595   7.216  20.540  0.00  0.00    +0.000 A 
ATOM     13  N   UNL     1       2.323   7.811  19.585  0.00  0.00    +0.000 NA
ATOM     14  C   UNL     1       2.739   6.992  18.614  0.00  0.00    +0.000 A 
ATOM     15  C   UNL     1       2.483   5.630  18.535  0.00  0.00    +0.000 A 
ATOM     16  C   UNL     1       2.946   4.776  17.507  0.00  0.00    +0.000 A 
ATOM     17  C   UNL     1       2.638   3.419  17.536  0.00  0.00    +0.000 A 
ATOM     18  C   UNL     1       1.859   2.920  18.574  0.00  0.00    +0.000 A 
ATOM     19  C   UNL     1       1.399   3.779  19.579  0.00  0.00    +0.000 A 
ATOM     20  C   UNL     1       1.709   5.134  19.585  0.00  0.00    +0.000 A 
ATOM     21  N   UNL     1       1.264   5.915  20.582  0.00  0.00    +0.000 NA
BRANCH  14  22
ATOM     22  O   UNL     1       3.463   7.628  17.652  0.00  0.00    +0.000 OA
ATOM     23  H   UNL     1       3.527   8.521  18.038  0.00  0.00    +0.000 HD
ENDBRANCH  14  22
ENDBRANCH   5  12
BRANCH   1  24
ATOM     24  C   UNL     1      -1.128  12.295  22.750  0.00  0.00    +0.000 C 
BRANCH  24  26
ATOM     25  C   UNL     1      -3.588  12.757  22.439  0.00  0.00    +0.000 C 
ATOM     26  C   UNL     1      -2.540  12.049  23.287  0.00  0.00    +0.000 C 
ENDBRANCH  24  26
ENDBRANCH   1  24
TORSDOF 4
ENDMDL
MODEL 6
REMARK VINA RESULT:      -7.5      2.260      6.986
REMARK  Name = 
REMARK  5 active torsions:
REMARK  status: ('A' for Active; 'I' for Inactive)
REMARK    1  A    between atoms: C_1  and  C_2
REMARK    2  A    between atoms: C_2  and  C_3
REMARK    3  A    between atoms: C_3  and  N_4
REMARK    4  A    between atoms: C_8  and  C_9
REMARK    5  A    between atoms: C_11  and  O_12
REMARK                            x       y       z     vdW  Elec       q    Type
REMARK                         _______ _______ _______ _____ _____    ______ ____
ROOT
ATOM      1  N   UNL     1       0.876  10.774  19.023  0.00  0.00    +0.000 N 
ATOM      2  C   UNL     1       1.838  10.292  18.131  0.00  0.00    +0.000 C 
ATOM      3  O   UNL     1       2.319  10.845  17.160  0.00  0.00    +0.000 OA
ATOM      4  C   UNL     1       2.153   8.902  18.614  0.00  0.00    +0.000 C 
ATOM      5  C   UNL     1       2.927   8.082  17.890  0.00  0.00    +0.000 C 
ATOM      6  C   UNL     1       1.401   8.687  19.854  0.00  0.00    +0.000 A 
ATOM      7  C   UNL     1       1.377   7.654  20.774  0.00  0.00    +0.000 A 
ATOM      8  C   UNL     1       0.521   7.762  21.873  0.00  0.00    +0.000 A 
ATOM      9  C   UNL     1      -0.302   8.888  22.029  0.00  0.00    +0.000 A 
ATOM     10  C   UNL     1      -0.257   9.940  21.110  0.00  0.00    +0.000 A 
ATOM     11  C   UNL     1       0.617   9.834  20.039  0.00  0.00    +0.000 A 
ENDROOT
BRANCH   5  12
ATOM     12  C   UNL     1       3.171   6.685  18.204  0.00  0.00    +0.000 A 
ATOM     13  N   UNL     1       4.401   6.370  18.631  0.00  0.00    +0.000 NA
ATOM     14  C   UNL     1       4.583   5.071  18.888  0.00  0.00    +0.000 A 
ATOM     15  C   UNL     1       3.627   4.075  18.752  0.00  0.00    +0.000 A 
ATOM     16  C   UNL     1       3.833   2.707  19.044  0.00  0.00    +0.000 A 
ATOM     17  C   UNL     1       2.795   1.795  18.881  0.00  0.00    +0.000 A 
ATOM     18  C   UNL     1       1.564   2.240  18.414  0.00  0.00    +0.000 A 
ATOM     19  C   UNL     1       1.376   3.596  18.120  0.00  0.00    +0.000 A 
ATOM     20  C   UNL     1       2.390   4.531  18.292  0.00  0.00    +0.000 A 
ATOM     21  N   UNL     1       2.158   5.824  18.016  0.00  0.00    +0.000 NA
BRANCH  14  22
ATOM     22  O   UNL     1       5.846   4.781  19.306  0.00  0.00    +0.000 OA
ATOM     23  H   UNL     1       6.364   5.383  18.740  0.00  0.00    +0.000 HD
ENDBRANCH  14  22
ENDBRANCH   5  12
BRANCH   1  24
ATOM     24  C   UNL     1       0.296  12.097  18.945  0.00  0.00    +0.000 C 
BRANCH  24  26
ATOM     25  C   UNL     1      -2.225  12.026  18.974  0.00  0.00    +0.000 C 
ATOM     26  C   UNL     1      -0.982  12.133  18.102  0.00  0.00    +0.000 C 
ENDBRANCH  24  26
ENDBRANCH   1  24
TORSDOF 4
ENDMDL
MODEL 7
REMARK VINA RESULT:      -7.5      1.381      2.182
REMARK  Name = 
REMARK  5 active torsions:
REMARK  status: ('A' for Active; 'I' for Inactive)
REMARK    1  A    between atoms: C_1  and  C_2
REMARK    2  A    between atoms: C_2  and  C_3
REMARK    3  A    between atoms: C_3  and  N_4
REMARK    4  A    between atoms: C_8  and  C_9
REMARK    5  A    between atoms: C_11  and  O_12
REMARK                            x       y       z     vdW  Elec       q    Type
REMARK                         _______ _______ _______ _____ _____    ______ ____
ROOT
ATOM      1  N   UNL     1       4.847   4.788  16.727  0.00  0.00    +0.000 N 
ATOM      2  C   UNL     1       4.716   6.153  16.465  0.00  0.00    +0.000 C 
ATOM      3  O   UNL     1       5.359   6.846  15.697  0.00  0.00    +0.000 OA
ATOM      4  C   UNL     1       3.601   6.615  17.363  0.00  0.00    +0.000 C 
ATOM      5  C   UNL     1       3.315   7.918  17.488  0.00  0.00    +0.000 C 
ATOM      6  C   UNL     1       3.070   5.433  18.048  0.00  0.00    +0.000 A 
ATOM      7  C   UNL     1       1.996   5.239  18.898  0.00  0.00    +0.000 A 
ATOM      8  C   UNL     1       1.762   3.954  19.392  0.00  0.00    +0.000 A 
ATOM      9  C   UNL     1       2.606   2.889  19.040  0.00  0.00    +0.000 A 
ATOM     10  C   UNL     1       3.675   3.084  18.161  0.00  0.00    +0.000 A 
ATOM     11  C   UNL     1       3.880   4.358  17.656  0.00  0.00    +0.000 A 
ENDROOT
BRANCH   5  12
ATOM     12  C   UNL     1       2.355   8.467  18.431  0.00  0.00    +0.000 A 
ATOM     13  N   UNL     1       2.403   7.993  19.683  0.00  0.00    +0.000 NA
ATOM     14  C   UNL     1       1.488   8.512  20.508  0.00  0.00    +0.000 A 
ATOM     15  C   UNL     1       0.540   9.468  20.170  0.00  0.00    +0.000 A 
ATOM     16  C   UNL     1      -0.410  10.018  21.061  0.00  0.00    +0.000 A 
ATOM     17  C   UNL     1      -1.309  10.983  20.614  0.00  0.00    +0.000 A 
ATOM     18  C   UNL     1      -1.272  11.384  19.284  0.00  0.00    +0.000 A 
ATOM     19  C   UNL     1      -0.332  10.823  18.410  0.00  0.00    +0.000 A 
ATOM     20  C   UNL     1       0.590   9.874  18.835  0.00  0.00    +0.000 A 
ATOM     21  N   UNL     1       1.486   9.379  17.966  0.00  0.00    +0.000 NA
BRANCH  14  22
ATOM     22  O   UNL     1       1.553   8.002  21.768  0.00  0.00    +0.000 OA
ATOM     23  H   UNL     1       2.510   8.072  21.940  0.00  0.00    +0.000 HD
ENDBRANCH  14  22
ENDBRANCH   5  12
BRANCH   1  24
ATOM     24  C   UNL     1       5.801   3.927  16.062  0.00  0.00    +0.000 C 
BRANCH  24  26
ATOM     25  C   UNL     1       7.586   4.573  17.723  0.00  0.00    +0.000 C 
ATOM     26  C   UNL     1       7.248   4.391  16.250  0.00  0.00    +0.000 C 
ENDBRANCH  24  26
ENDBRANCH   1  24
TORSDOF 4
ENDMDL
MODEL 8
REMARK VINA RESULT:      -7.4      2.270      6.931
REMARK  Name = 
REMARK  5 active torsions:
REMARK  status: ('A' for Active; 'I' for Inactive)
REMARK    1  A    between atoms: C_1  and  C_2
REMARK    2  A    between atoms: C_2  and  C_3
REMARK    3  A    between atoms: C_3  and  N_4
REMARK    4  A    between atoms: C_8  and  C_9
REMARK    5  A    between atoms: C_11  and  O_12
REMARK                            x       y       z     vdW  Elec       q    Type
REMARK                         _______ _______ _______ _____ _____    ______ ____
ROOT
ATOM      1  N   UNL     1       0.940  10.754  18.951  0.00  0.00    +0.000 N 
ATOM      2  C   UNL     1       1.911  10.252  18.081  0.00  0.00    +0.000 C 
ATOM      3  O   UNL     1       2.416  10.791  17.113  0.00  0.00    +0.000 OA
ATOM      4  C   UNL     1       2.200   8.864  18.582  0.00  0.00    +0.000 C 
ATOM      5  C   UNL     1       2.977   8.028  17.878  0.00  0.00    +0.000 C 
ATOM      6  C   UNL     1       1.424   8.668  19.810  0.00  0.00    +0.000 A 
ATOM      7  C   UNL     1       1.371   7.645  20.739  0.00  0.00    +0.000 A 
ATOM      8  C   UNL     1       0.497   7.773  21.821  0.00  0.00    +0.000 A 
ATOM      9  C   UNL     1      -0.314   8.910  21.953  0.00  0.00    +0.000 A 
ATOM     10  C   UNL     1      -0.240   9.954  21.025  0.00  0.00    +0.000 A 
ATOM     11  C   UNL     1       0.651   9.827  19.971  0.00  0.00    +0.000 A 
ENDROOT
BRANCH   5  12
ATOM     12  C   UNL     1       3.198   6.631  18.209  0.00  0.00    +0.000 A 
ATOM     13  N   UNL     1       4.425   6.300  18.637  0.00  0.00    +0.000 NA
ATOM     14  C   UNL     1       4.585   5.002  18.909  0.00  0.00    +0.000 A 
ATOM     15  C   UNL     1       3.612   4.020  18.789  0.00  0.00    +0.000 A 
ATOM     16  C   UNL     1       3.796   2.652  19.098  0.00  0.00    +0.000 A 
ATOM     17  C   UNL     1       2.742   1.756  18.949  0.00  0.00    +0.000 A 
ATOM     18  C   UNL     1       1.517   2.216  18.480  0.00  0.00    +0.000 A 
ATOM     19  C   UNL     1       1.352   3.571  18.169  0.00  0.00    +0.000 A 
ATOM     20  C   UNL     1       2.381   4.492  18.327  0.00  0.00    +0.000 A 
ATOM     21  N   UNL     1       2.170   5.785  18.036  0.00  0.00    +0.000 NA
BRANCH  14  22
ATOM     22  O   UNL     1       5.844   4.695  19.328  0.00  0.00    +0.000 OA
ATOM     23  H   UNL     1       5.710   3.783  19.644  0.00  0.00    +0.000 HD
ENDBRANCH  14  22
ENDBRANCH   5  12
BRANCH   1  24
ATOM     24  C   UNL     1       0.377  12.083  18.851  0.00  0.00    +0.000 C 
BRANCH  24  26
ATOM     25  C   UNL     1       2.158  13.868  18.890  0.00  0.00    +0.000 C 
ATOM     26  C   UNL     1       1.123  13.108  19.708  0.00  0.00    +0.000 C 
ENDBRANCH  24  26
ENDBRANCH   1  24
TORSDOF 4
ENDMDL
MODEL 9
REMARK VINA RESULT:      -7.2      1.981      2.733
REMARK  Name = 
REMARK  5 active torsions:
REMARK  status: ('A' for Active; 'I' for Inactive)
REMARK    1  A    between atoms: C_1  and  C_2
REMARK    2  A    between atoms: C_2  and  C_3
REMARK    3  A    between atoms: C_3  and  N_4
REMARK    4  A    between atoms: C_8  and  C_9
REMARK    5  A    between atoms: C_11  and  O_12
REMARK                            x       y       z     vdW  Elec       q    Type
REMARK                         _______ _______ _______ _____ _____    ______ ____
ROOT
ATOM      1  N   UNL     1       4.444   5.521  18.036  0.00  0.00    +0.000 N 
ATOM      2  C   UNL     1       4.187   6.678  17.298  0.00  0.00    +0.000 C 
ATOM      3  O   UNL     1       4.772   7.100  16.317  0.00  0.00    +0.000 OA
ATOM      4  C   UNL     1       3.022   7.330  17.990  0.00  0.00    +0.000 C 
ATOM      5  C   UNL     1       2.611   8.556  17.638  0.00  0.00    +0.000 C 
ATOM      6  C   UNL     1       2.595   6.434  19.070  0.00  0.00    +0.000 A 
ATOM      7  C   UNL     1       1.533   6.464  19.956  0.00  0.00    +0.000 A 
ATOM      8  C   UNL     1       1.415   5.432  20.889  0.00  0.00    +0.000 A 
ATOM      9  C   UNL     1       2.361   4.395  20.930  0.00  0.00    +0.000 A 
ATOM     10  C   UNL     1       3.419   4.355  20.018  0.00  0.00    +0.000 A 
ATOM     11  C   UNL     1       3.509   5.371  19.079  0.00  0.00    +0.000 A 
ENDROOT
BRANCH   5  12
ATOM     12  C   UNL     1       1.591   9.318  18.337  0.00  0.00    +0.000 A 
ATOM     13  N   UNL     1       1.863   9.671  19.601  0.00  0.00    +0.000 NA
ATOM     14  C   UNL     1       0.887  10.352  20.209  0.00  0.00    +0.000 A 
ATOM     15  C   UNL     1      -0.331  10.706  19.643  0.00  0.00    +0.000 A 
ATOM     16  C   UNL     1      -1.345  11.442  20.297  0.00  0.00    +0.000 A 
ATOM     17  C   UNL     1      -2.524  11.751  19.626  0.00  0.00    +0.000 A 
ATOM     18  C   UNL     1      -2.699  11.316  18.317  0.00  0.00    +0.000 A 
ATOM     19  C   UNL     1      -1.689  10.579  17.686  0.00  0.00    +0.000 A 
ATOM     20  C   UNL     1      -0.493  10.274  18.326  0.00  0.00    +0.000 A 
ATOM     21  N   UNL     1       0.454   9.583  17.673  0.00  0.00    +0.000 NA
BRANCH  14  22
ATOM     22  O   UNL     1       1.187  10.683  21.495  0.00  0.00    +0.000 OA
ATOM     23  H   UNL     1       1.495   9.823  21.833  0.00  0.00    +0.000 HD
ENDBRANCH  14  22
ENDBRANCH   5  12
BRANCH   1  24
ATOM     24  C   UNL     1       5.484   4.570  17.709  0.00  0.00    +0.000 C 
BRANCH  24  26
ATOM     25  C   UNL     1       6.116   3.986  15.338  0.00  0.00    +0.000 C 
ATOM     26  C   UNL     1       5.146   3.722  16.481  0.00  0.00    +0.000 C 
ENDBRANCH  24  26
ENDBRANCH   1  24
TORSDOF 4
ENDMDL
