MODEL 1
REMARK VINA RESULT:      -8.0      0.000      0.000
REMARK  Name = 
REMARK  1 active torsions:
REMARK  status: ('A' for Active; 'I' for Inactive)
REMARK    1  A    between atoms: C_6  and  C_7
REMARK                            x       y       z     vdW  Elec       q    Type
REMARK                         _______ _______ _______ _____ _____    ______ ____
ROOT
ATOM      1  C   UNL     1       4.080   3.344  18.207  0.00  0.00    +0.000 A 
ATOM      2  C   UNL     1       3.664   2.103  17.726  0.00  0.00    +0.000 A 
ATOM      3  N   UNL     1       2.469   1.767  18.270  0.00  0.00    +0.000 N 
ATOM      4  C   UNL     1       2.111   2.793  19.062  0.00  0.00    +0.000 A 
ATOM      5  C   UNL     1       0.937   2.921  19.805  0.00  0.00    +0.000 A 
ATOM      6  C   UNL     1       0.744   4.106  20.537  0.00  0.00    +0.000 A 
ATOM      7  C   UNL     1       1.717   5.128  20.509  0.00  0.00    +0.000 A 
ATOM      8  C   UNL     1       2.892   4.969  19.760  0.00  0.00    +0.000 A 
ATOM      9  C   UNL     1       3.067   3.777  19.049  0.00  0.00    +0.000 A 
ATOM     10  H   UNL     1       1.928   0.890  18.096  0.00  0.00    +0.000 HD
ENDROOT
BRANCH   1  16
ATOM     11  N   UNL     1       8.182   5.551  19.599  0.00  0.00    +0.000 N 
ATOM     12  C   UNL     1       7.328   5.127  18.557  0.00  0.00    +0.000 A 
ATOM     13  N   UNL     1       7.691   5.330  17.265  0.00  0.00    +0.000 NA
ATOM     14  C   UNL     1       6.898   4.917  16.246  0.00  0.00    +0.000 A 
ATOM     15  C   UNL     1       5.701   4.262  16.519  0.00  0.00    +0.000 A 
ATOM     16  C   UNL     1       5.334   4.050  17.856  0.00  0.00    +0.000 A 
ATOM     17  N   UNL     1       6.151   4.504  18.845  0.00  0.00    +0.000 NA
ATOM     18  H   UNL     1       9.077   6.013  19.382  0.00  0.00    +0.000 HD
ATOM     19  H   UNL     1       7.931   5.382  20.584  0.00  0.00    +0.000 HD
ENDBRANCH   1  16
TORSDOF 1
ENDMDL
MODEL 2
REMARK VINA RESULT:      -7.9      1.128      1.181
REMARK  Name = 
REMARK  1 active torsions:
REMARK  status: ('A' for Active; 'I' for Inactive)
REMARK    1  A    between atoms: C_6  and  C_7
REMARK                            x       y       z     vdW  Elec       q    Type
REMARK                         _______ _______ _______ _____ _____    ______ ____
ROOT
ATOM      1  C   UNL     1       4.301   4.247  18.170  0.00  0.00    +0.000 A 
ATOM      2  C   UNL     1       4.017   3.309  17.178  0.00  0.00    +0.000 A 
ATOM      3  N   UNL     1       2.821   2.721  17.419  0.00  0.00    +0.000 N 
ATOM      4  C   UNL     1       2.331   3.299  18.531  0.00  0.00    +0.000 A 
ATOM      5  C   UNL     1       1.106   3.046  19.148  0.00  0.00    +0.000 A 
ATOM      6  C   UNL     1       0.772   3.801  20.287  0.00  0.00    +0.000 A 
ATOM      7  C   UNL     1       1.660   4.782  20.779  0.00  0.00    +0.000 A 
ATOM      8  C   UNL     1       2.890   5.008  20.143  0.00  0.00    +0.000 A 
ATOM      9  C   UNL     1       3.205   4.238  19.018  0.00  0.00    +0.000 A 
ATOM     10  H   UNL     1       2.363   1.976  16.846  0.00  0.00    +0.000 HD
ENDROOT
BRANCH   1  16
ATOM     11  N   UNL     1       8.542   5.275  20.313  0.00  0.00    +0.000 N 
ATOM     12  C   UNL     1       7.579   5.578  19.326  0.00  0.00    +0.000 A 
ATOM     13  N   UNL     1       7.802   6.598  18.458  0.00  0.00    +0.000 NA
ATOM     14  C   UNL     1       6.902   6.899  17.490  0.00  0.00    +0.000 A 
ATOM     15  C   UNL     1       5.738   6.148  17.367  0.00  0.00    +0.000 A 
ATOM     16  C   UNL     1       5.514   5.092  18.263  0.00  0.00    +0.000 A 
ATOM     17  N   UNL     1       6.435   4.843  19.233  0.00  0.00    +0.000 NA
ATOM     18  H   UNL     1       9.412   5.824  20.377  0.00  0.00    +0.000 HD
ATOM     19  H   UNL     1       8.397   4.488  20.963  0.00  0.00    +0.000 HD
ENDBRANCH   1  16
TORSDOF 1
ENDMDL
MODEL 3
REMARK VINA RESULT:      -7.5      0.939      1.697
REMARK  Name = 
REMARK  1 active torsions:
REMARK  status: ('A' for Active; 'I' for Inactive)
REMARK    1  A    between atoms: C_6  and  C_7
REMARK                            x       y       z     vdW  Elec       q    Type
REMARK                         _______ _______ _______ _____ _____    ______ ____
ROOT
ATOM      1  C   UNL     1       4.176   3.531  18.178  0.00  0.00    +0.000 A 
ATOM      2  C   UNL     1       3.836   2.289  17.643  0.00  0.00    +0.000 A 
ATOM      3  N   UNL     1       2.657   1.865  18.159  0.00  0.00    +0.000 N 
ATOM      4  C   UNL     1       2.232   2.837  18.985  0.00  0.00    +0.000 A 
ATOM      5  C   UNL     1       1.046   2.869  19.718  0.00  0.00    +0.000 A 
ATOM      6  C   UNL     1       0.778   4.011  20.493  0.00  0.00    +0.000 A 
ATOM      7  C   UNL     1       1.692   5.087  20.518  0.00  0.00    +0.000 A 
ATOM      8  C   UNL     1       2.882   5.024  19.778  0.00  0.00    +0.000 A 
ATOM      9  C   UNL     1       3.132   3.873  19.023  0.00  0.00    +0.000 A 
ATOM     10  H   UNL     1       2.168   0.966  17.944  0.00  0.00    +0.000 HD
ENDROOT
BRANCH   1  16
ATOM     11  N   UNL     1       7.359   5.234  14.921  0.00  0.00    +0.000 N 
ATOM     12  C   UNL     1       6.935   5.138  16.265  0.00  0.00    +0.000 A 
ATOM     13  N   UNL     1       7.613   5.803  17.235  0.00  0.00    +0.000 NA
ATOM     14  C   UNL     1       7.217   5.742  18.530  0.00  0.00    +0.000 A 
ATOM     15  C   UNL     1       6.091   5.002  18.876  0.00  0.00    +0.000 A 
ATOM     16  C   UNL     1       5.391   4.320  17.870  0.00  0.00    +0.000 A 
ATOM     17  N   UNL     1       5.841   4.392  16.589  0.00  0.00    +0.000 NA
ATOM     18  H   UNL     1       8.181   5.805  14.675  0.00  0.00    +0.000 HD
ATOM     19  H   UNL     1       6.840   4.753  14.172  0.00  0.00    +0.000 HD
ENDBRANCH   1  16
TORSDOF 1
ENDMDL
MODEL 4
REMARK VINA RESULT:      -7.4      1.328      1.534
REMARK  Name = 
REMARK  1 active torsions:
REMARK  status: ('A' for Active; 'I' for Inactive)
REMARK    1  A    between atoms: C_6  and  C_7
REMARK                            x       y       z     vdW  Elec       q    Type
REMARK                         _______ _______ _______ _____ _____    ______ ____
ROOT
ATOM      1  C   UNL     1       3.687   4.354  18.326  0.00  0.00    +0.000 A 
ATOM      2  C   UNL     1       2.637   4.834  17.545  0.00  0.00    +0.000 A 
ATOM      3  N   UNL     1       1.448   4.484  18.094  0.00  0.00    +0.000 N 
ATOM      4  C   UNL     1       1.734   3.819  19.227  0.00  0.00    +0.000 A 
ATOM      5  C   UNL     1       0.832   3.293  20.151  0.00  0.00    +0.000 A 
ATOM      6  C   UNL     1       1.351   2.667  21.299  0.00  0.00    +0.000 A 
ATOM      7  C   UNL     1       2.746   2.581  21.495  0.00  0.00    +0.000 A 
ATOM      8  C   UNL     1       3.630   3.111  20.544  0.00  0.00    +0.000 A 
ATOM      9  C   UNL     1       3.091   3.720  19.405  0.00  0.00    +0.000 A 
ATOM     10  H   UNL     1       0.498   4.702  17.716  0.00  0.00    +0.000 HD
ENDROOT
BRANCH   1  16
ATOM     11  N   UNL     1       8.143   5.475  19.914  0.00  0.00    +0.000 N 
ATOM     12  C   UNL     1       7.300   5.077  18.854  0.00  0.00    +0.000 A 
ATOM     13  N   UNL     1       7.832   4.813  17.632  0.00  0.00    +0.000 NA
ATOM     14  C   UNL     1       7.046   4.413  16.603  0.00  0.00    +0.000 A 
ATOM     15  C   UNL     1       5.678   4.254  16.794  0.00  0.00    +0.000 A 
ATOM     16  C   UNL     1       5.134   4.523  18.059  0.00  0.00    +0.000 A 
ATOM     17  N   UNL     1       5.958   4.945  19.055  0.00  0.00    +0.000 NA
ATOM     18  H   UNL     1       9.159   5.565  19.765  0.00  0.00    +0.000 HD
ATOM     19  H   UNL     1       7.757   5.655  20.852  0.00  0.00    +0.000 HD
ENDBRANCH   1  16
TORSDOF 1
ENDMDL
MODEL 5
REMARK VINA RESULT:      -7.3      2.176      5.448
REMARK  Name = 
REMARK  1 active torsions:
REMARK  status: ('A' for Active; 'I' for Inactive)
REMARK    1  A    between atoms: C_6  and  C_7
REMARK                            x       y       z     vdW  Elec       q    Type
REMARK                         _______ _______ _______ _____ _____    ______ ____
ROOT
ATOM      1  C   UNL     1       4.748   5.359  17.211  0.00  0.00    +0.000 A 
ATOM      2  C   UNL     1       4.705   6.147  16.061  0.00  0.00    +0.000 A 
ATOM      3  N   UNL     1       5.743   7.018  16.051  0.00  0.00    +0.000 N 
ATOM      4  C   UNL     1       6.459   6.768  17.162  0.00  0.00    +0.000 A 
ATOM      5  C   UNL     1       7.640   7.390  17.567  0.00  0.00    +0.000 A 
ATOM      6  C   UNL     1       8.250   6.941  18.752  0.00  0.00    +0.000 A 
ATOM      7  C   UNL     1       7.673   5.891  19.498  0.00  0.00    +0.000 A 
ATOM      8  C   UNL     1       6.480   5.290  19.072  0.00  0.00    +0.000 A 
ATOM      9  C   UNL     1       5.885   5.760  17.896  0.00  0.00    +0.000 A 
ATOM     10  H   UNL     1       5.952   7.732  15.317  0.00  0.00    +0.000 HD
ENDROOT
BRANCH   1  16
ATOM     11  N   UNL     1       3.867   0.727  18.394  0.00  0.00    +0.000 N 
ATOM     12  C   UNL     1       3.379   2.032  18.161  0.00  0.00    +0.000 A 
ATOM     13  N   UNL     1       2.059   2.298  18.334  0.00  0.00    +0.000 NA
ATOM     14  C   UNL     1       1.568   3.545  18.134  0.00  0.00    +0.000 A 
ATOM     15  C   UNL     1       2.424   4.576  17.762  0.00  0.00    +0.000 A 
ATOM     16  C   UNL     1       3.787   4.298  17.590  0.00  0.00    +0.000 A 
ATOM     17  N   UNL     1       4.230   3.025  17.778  0.00  0.00    +0.000 NA
ATOM     18  H   UNL     1       3.226  -0.023  18.693  0.00  0.00    +0.000 HD
ATOM     19  H   UNL     1       4.870   0.516  18.290  0.00  0.00    +0.000 HD
ENDBRANCH   1  16
TORSDOF 1
ENDMDL
MODEL 6
REMARK VINA RESULT:      -7.3      1.890      2.815
REMARK  Name = 
REMARK  1 active torsions:
REMARK  status: ('A' for Active; 'I' for Inactive)
REMARK    1  A    between atoms: C_6  and  C_7
REMARK                            x       y       z     vdW  Elec       q    Type
REMARK                         _______ _______ _______ _____ _____    ______ ____
ROOT
ATOM      1  C   UNL     1       4.042   5.220  18.450  0.00  0.00    +0.000 A 
ATOM      2  C   UNL     1       3.364   6.438  18.393  0.00  0.00    +0.000 A 
ATOM      3  N   UNL     1       2.239   6.383  19.146  0.00  0.00    +0.000 N 
ATOM      4  C   UNL     1       2.215   5.160  19.704  0.00  0.00    +0.000 A 
ATOM      5  C   UNL     1       1.266   4.650  20.590  0.00  0.00    +0.000 A 
ATOM      6  C   UNL     1       1.458   3.349  21.089  0.00  0.00    +0.000 A 
ATOM      7  C   UNL     1       2.584   2.594  20.696  0.00  0.00    +0.000 A 
ATOM      8  C   UNL     1       3.518   3.128  19.797  0.00  0.00    +0.000 A 
ATOM      9  C   UNL     1       3.300   4.420  19.305  0.00  0.00    +0.000 A 
ATOM     10  H   UNL     1       1.537   7.146  19.278  0.00  0.00    +0.000 HD
ENDROOT
BRANCH   1  16
ATOM     11  N   UNL     1       6.365   3.712  14.455  0.00  0.00    +0.000 N 
ATOM     12  C   UNL     1       6.421   4.141  15.799  0.00  0.00    +0.000 A 
ATOM     13  N   UNL     1       7.624   4.279  16.413  0.00  0.00    +0.000 NA
ATOM     14  C   UNL     1       7.706   4.706  17.697  0.00  0.00    +0.000 A 
ATOM     15  C   UNL     1       6.547   5.022  18.399  0.00  0.00    +0.000 A 
ATOM     16  C   UNL     1       5.307   4.882  17.759  0.00  0.00    +0.000 A 
ATOM     17  N   UNL     1       5.274   4.428  16.477  0.00  0.00    +0.000 NA
ATOM     18  H   UNL     1       7.233   3.504  13.939  0.00  0.00    +0.000 HD
ATOM     19  H   UNL     1       5.460   3.625  13.969  0.00  0.00    +0.000 HD
ENDBRANCH   1  16
TORSDOF 1
ENDMDL
MODEL 7
REMARK VINA RESULT:      -7.3      1.656      2.447
REMARK  Name = 
REMARK  1 active torsions:
REMARK  status: ('A' for Active; 'I' for Inactive)
REMARK    1  A    between atoms: C_6  and  C_7
REMARK                            x       y       z     vdW  Elec       q    Type
REMARK                         _______ _______ _______ _____ _____    ______ ____
ROOT
ATOM      1  C   UNL     1       3.842   5.303  19.114  0.00  0.00    +0.000 A 
ATOM      2  C   UNL     1       2.912   6.083  19.800  0.00  0.00    +0.000 A 
ATOM      3  N   UNL     1       1.739   5.415  19.920  0.00  0.00    +0.000 N 
ATOM      4  C   UNL     1       1.927   4.213  19.349  0.00  0.00    +0.000 A 
ATOM      5  C   UNL     1       1.011   3.164  19.260  0.00  0.00    +0.000 A 
ATOM      6  C   UNL     1       1.433   1.968  18.653  0.00  0.00    +0.000 A 
ATOM      7  C   UNL     1       2.748   1.846  18.153  0.00  0.00    +0.000 A 
ATOM      8  C   UNL     1       3.644   2.920  18.248  0.00  0.00    +0.000 A 
ATOM      9  C   UNL     1       3.199   4.104  18.846  0.00  0.00    +0.000 A 
ATOM     10  H   UNL     1       0.866   5.763  20.380  0.00  0.00    +0.000 HD
ENDROOT
BRANCH   1  16
ATOM     11  N   UNL     1       8.577   5.286  20.217  0.00  0.00    +0.000 N 
ATOM     12  C   UNL     1       7.539   5.665  19.337  0.00  0.00    +0.000 A 
ATOM     13  N   UNL     1       7.838   6.320  18.186  0.00  0.00    +0.000 NA
ATOM     14  C   UNL     1       6.863   6.679  17.316  0.00  0.00    +0.000 A 
ATOM     15  C   UNL     1       5.537   6.363  17.590  0.00  0.00    +0.000 A 
ATOM     16  C   UNL     1       5.234   5.681  18.778  0.00  0.00    +0.000 A 
ATOM     17  N   UNL     1       6.243   5.363  19.632  0.00  0.00    +0.000 NA
ATOM     18  H   UNL     1       9.558   5.505  19.990  0.00  0.00    +0.000 HD
ATOM     19  H   UNL     1       8.367   4.767  21.082  0.00  0.00    +0.000 HD
ENDBRANCH   1  16
TORSDOF 1
ENDMDL
MODEL 8
REMARK VINA RESULT:      -7.3      1.339      1.450
REMARK  Name = 
REMARK  1 active torsions:
REMARK  status: ('A' for Active; 'I' for Inactive)
REMARK    1  A    between atoms: C_6  and  C_7
REMARK                            x       y       z     vdW  Elec       q    Type
REMARK                         _______ _______ _______ _____ _____    ______ ____
ROOT
ATOM      1  C   UNL     1       4.208   3.752  17.802  0.00  0.00    +0.000 A 
ATOM      2  C   UNL     1       3.820   2.414  17.866  0.00  0.00    +0.000 A 
ATOM      3  N   UNL     1       2.832   2.257  18.779  0.00  0.00    +0.000 N 
ATOM      4  C   UNL     1       2.569   3.481  19.269  0.00  0.00    +0.000 A 
ATOM      5  C   UNL     1       1.602   3.827  20.212  0.00  0.00    +0.000 A 
ATOM      6  C   UNL     1       1.468   5.185  20.554  0.00  0.00    +0.000 A 
ATOM      7  C   UNL     1       2.294   6.158  19.950  0.00  0.00    +0.000 A 
ATOM      8  C   UNL     1       3.265   5.779  19.011  0.00  0.00    +0.000 A 
ATOM      9  C   UNL     1       3.387   4.422  18.695  0.00  0.00    +0.000 A 
ATOM     10  H   UNL     1       2.359   1.362  19.041  0.00  0.00    +0.000 HD
ENDROOT
BRANCH   1  16
ATOM     11  N   UNL     1       7.669   7.079  17.037  0.00  0.00    +0.000 N 
ATOM     12  C   UNL     1       6.943   5.959  16.576  0.00  0.00    +0.000 A 
ATOM     13  N   UNL     1       7.250   5.403  15.376  0.00  0.00    +0.000 NA
ATOM     14  C   UNL     1       6.580   4.318  14.919  0.00  0.00    +0.000 A 
ATOM     15  C   UNL     1       5.572   3.749  15.690  0.00  0.00    +0.000 A 
ATOM     16  C   UNL     1       5.260   4.324  16.931  0.00  0.00    +0.000 A 
ATOM     17  N   UNL     1       5.944   5.427  17.337  0.00  0.00    +0.000 NA
ATOM     18  H   UNL     1       8.431   7.476  16.466  0.00  0.00    +0.000 HD
ATOM     19  H   UNL     1       7.462   7.496  17.956  0.00  0.00    +0.000 HD
ENDBRANCH   1  16
TORSDOF 1
ENDMDL
MODEL 9
REMARK VINA RESULT:      -7.3      1.654      2.337
REMARK  Name = 
REMARK  1 active torsions:
REMARK  status: ('A' for Active; 'I' for Inactive)
REMARK    1  A    between atoms: C_6  and  C_7
REMARK                            x       y       z     vdW  Elec       q    Type
REMARK                         _______ _______ _______ _____ _____    ______ ____
ROOT
ATOM      1  C   UNL     1       3.775   5.348  18.442  0.00  0.00    +0.000 A 
ATOM      2  C   UNL     1       3.275   6.525  18.999  0.00  0.00    +0.000 A 
ATOM      3  N   UNL     1       2.171   6.260  19.738  0.00  0.00    +0.000 N 
ATOM      4  C   UNL     1       1.986   4.929  19.681  0.00  0.00    +0.000 A 
ATOM      5  C   UNL     1       0.993   4.183  20.316  0.00  0.00    +0.000 A 
ATOM      6  C   UNL     1       1.009   2.786  20.153  0.00  0.00    +0.000 A 
ATOM      7  C   UNL     1       2.008   2.172  19.367  0.00  0.00    +0.000 A 
ATOM      8  C   UNL     1       2.989   2.948  18.733  0.00  0.00    +0.000 A 
ATOM      9  C   UNL     1       2.946   4.336  18.900  0.00  0.00    +0.000 A 
ATOM     10  H   UNL     1       1.587   6.953  20.260  0.00  0.00    +0.000 HD
ENDROOT
BRANCH   1  16
ATOM     11  N   UNL     1       8.452   4.150  17.872  0.00  0.00    +0.000 N 
ATOM     12  C   UNL     1       7.249   4.635  17.313  0.00  0.00    +0.000 A 
ATOM     13  N   UNL     1       7.192   4.928  15.989  0.00  0.00    +0.000 NA
ATOM     14  C   UNL     1       6.045   5.379  15.424  0.00  0.00    +0.000 A 
ATOM     15  C   UNL     1       4.901   5.531  16.202  0.00  0.00    +0.000 A 
ATOM     16  C   UNL     1       4.964   5.222  17.569  0.00  0.00    +0.000 A 
ATOM     17  N   UNL     1       6.144   4.796  18.095  0.00  0.00    +0.000 NA
ATOM     18  H   UNL     1       9.285   4.019  17.279  0.00  0.00    +0.000 HD
ATOM     19  H   UNL     1       8.503   3.901  18.870  0.00  0.00    +0.000 HD
ENDBRANCH   1  16
TORSDOF 1
ENDMDL
