MODEL 1
REMARK VINA RESULT:      -8.3      0.000      0.000
REMARK  Name = 
REMARK  6 active torsions:
REMARK  status: ('A' for Active; 'I' for Inactive)
REMARK    1  A    between atoms: C_1  and  C_2
REMARK    2  A    between atoms: N_4  and  C_5
REMARK    3  A    between atoms: C_5  and  C_6
REMARK    4  A    between atoms: C_5  and  C_18
REMARK    5  A    between atoms: N_8  and  C_9
REMARK    6  A    between atoms: C_9  and  C_10
REMARK                            x       y       z     vdW  Elec       q    Type
REMARK                         _______ _______ _______ _____ _____    ______ ____
ROOT
ATOM      1  C   UNL     1       4.519   6.527  17.688  0.00  0.00    +0.000 C 
ATOM      2  O   UNL     1       3.789   7.255  17.015  0.00  0.00    +0.000 OA
ATOM      3  N   UNL     1       4.074   5.921  18.848  0.00  0.00    +0.000 N 
ATOM      4  H   UNL     1       4.766   5.560  19.499  0.00  0.00    +0.000 HD
ENDROOT
BRANCH   1   5
ATOM      5  C   UNL     1       6.010   6.262  17.359  0.00  0.00    +0.000 C 
BRANCH   5   9
ATOM      6  C   UNL     1       8.448   9.146  17.613  0.00  0.00    +0.000 C 
ATOM      7  C   UNL     1       7.823   7.818  17.950  0.00  0.00    +0.000 C 
ATOM      8  O   UNL     1       8.274   7.061  18.805  0.00  0.00    +0.000 OA
ATOM      9  N   UNL     1       6.707   7.530  17.214  0.00  0.00    +0.000 N 
ATOM     10  H   UNL     1       6.425   8.129  16.448  0.00  0.00    +0.000 HD
ENDBRANCH   5   9
BRANCH   5  11
ATOM     11  C   UNL     1       6.132   5.485  16.084  0.00  0.00    +0.000 A 
ATOM     12  C   UNL     1       5.321   4.570  15.438  0.00  0.00    +0.000 A 
ATOM     13  C   UNL     1       6.008   4.171  14.270  0.00  0.00    +0.000 A 
ATOM     14  C   UNL     1       7.199   4.854  14.274  0.00  0.00    +0.000 A 
ATOM     15  O   UNL     1       7.287   5.650  15.369  0.00  0.00    +0.000 OA
ENDBRANCH   5  11
ENDBRANCH   1   5
BRANCH   3  16
ATOM     16  C   UNL     1       2.711   6.060  19.312  0.00  0.00    +0.000 C 
BRANCH  16  17
ATOM     17  C   UNL     1       2.057   4.724  19.539  0.00  0.00    +0.000 A 
ATOM     18  C   UNL     1       1.907   4.199  20.832  0.00  0.00    +0.000 A 
ATOM     19  C   UNL     1       1.314   2.949  21.012  0.00  0.00    +0.000 A 
ATOM     20  F   UNL     1       1.190   2.451  22.250  0.00  0.00    +0.000 F 
ATOM     21  C   UNL     1       0.855   2.207  19.930  0.00  0.00    +0.000 A 
ATOM     22  C   UNL     1       0.981   2.727  18.641  0.00  0.00    +0.000 A 
ATOM     23  C   UNL     1       1.576   3.974  18.459  0.00  0.00    +0.000 A 
ATOM     24  F   UNL     1       1.691   4.455  17.213  0.00  0.00    +0.000 F 
ENDBRANCH  16  17
ENDBRANCH   3  16
TORSDOF 5
ENDMDL
MODEL 2
REMARK VINA RESULT:      -8.1      1.893      2.324
REMARK  Name = 
REMARK  6 active torsions:
REMARK  status: ('A' for Active; 'I' for Inactive)
REMARK    1  A    between atoms: C_1  and  C_2
REMARK    2  A    between atoms: N_4  and  C_5
REMARK    3  A    between atoms: C_5  and  C_6
REMARK    4  A    between atoms: C_5  and  C_18
REMARK    5  A    between atoms: N_8  and  C_9
REMARK    6  A    between atoms: C_9  and  C_10
REMARK                            x       y       z     vdW  Elec       q    Type
REMARK                         _______ _______ _______ _____ _____    ______ ____
ROOT
ATOM      1  C   UNL     1       5.006   4.896  16.546  0.00  0.00    +0.000 C 
ATOM      2  O   UNL     1       4.356   5.941  16.524  0.00  0.00    +0.000 OA
ATOM      3  N   UNL     1       4.427   3.683  16.871  0.00  0.00    +0.000 N 
ATOM      4  H   UNL     1       5.036   2.914  17.136  0.00  0.00    +0.000 HD
ENDROOT
BRANCH   1   5
ATOM      5  C   UNL     1       6.532   4.825  16.282  0.00  0.00    +0.000 C 
BRANCH   5   9
ATOM      6  C   UNL     1       8.241   7.457  18.399  0.00  0.00    +0.000 C 
ATOM      7  C   UNL     1       7.536   6.163  18.088  0.00  0.00    +0.000 C 
ATOM      8  O   UNL     1       7.316   5.298  18.931  0.00  0.00    +0.000 OA
ATOM      9  N   UNL     1       7.166   6.037  16.778  0.00  0.00    +0.000 N 
ATOM     10  H   UNL     1       7.455   6.723  16.090  0.00  0.00    +0.000 HD
ENDBRANCH   5   9
BRANCH   5  11
ATOM     11  C   UNL     1       6.800   4.694  14.814  0.00  0.00    +0.000 A 
ATOM     12  C   UNL     1       6.274   3.903  13.810  0.00  0.00    +0.000 A 
ATOM     13  C   UNL     1       6.967   4.234  12.625  0.00  0.00    +0.000 A 
ATOM     14  C   UNL     1       7.883   5.197  12.972  0.00  0.00    +0.000 A 
ATOM     15  O   UNL     1       7.793   5.481  14.296  0.00  0.00    +0.000 OA
ENDBRANCH   5  11
ENDBRANCH   1   5
BRANCH   3  16
ATOM     16  C   UNL     1       3.013   3.560  17.152  0.00  0.00    +0.000 C 
BRANCH  16  17
ATOM     17  C   UNL     1       2.717   3.723  18.618  0.00  0.00    +0.000 A 
ATOM     18  C   UNL     1       2.175   4.915  19.122  0.00  0.00    +0.000 A 
ATOM     19  C   UNL     1       1.928   5.047  20.489  0.00  0.00    +0.000 A 
ATOM     20  F   UNL     1       1.425   6.195  20.961  0.00  0.00    +0.000 F 
ATOM     21  C   UNL     1       2.201   4.008  21.373  0.00  0.00    +0.000 A 
ATOM     22  C   UNL     1       2.722   2.811  20.881  0.00  0.00    +0.000 A 
ATOM     23  C   UNL     1       2.972   2.679  19.516  0.00  0.00    +0.000 A 
ATOM     24  F   UNL     1       3.476   1.522  19.064  0.00  0.00    +0.000 F 
ENDBRANCH  16  17
ENDBRANCH   3  16
TORSDOF 5
ENDMDL
MODEL 3
REMARK VINA RESULT:      -8.0      1.396      1.665
REMARK  Name = 
REMARK  6 active torsions:
REMARK  status: ('A' for Active; 'I' for Inactive)
REMARK    1  A    between atoms: C_1  and  C_2
REMARK    2  A    between atoms: N_4  and  C_5
REMARK    3  A    between atoms: C_5  and  C_6
REMARK    4  A    between atoms: C_5  and  C_18
REMARK    5  A    between atoms: N_8  and  C_9
REMARK    6  A    between atoms: C_9  and  C_10
REMARK                            x       y       z     vdW  Elec       q    Type
REMARK                         _______ _______ _______ _____ _____    ______ ____
ROOT
ATOM      1  C   UNL     1       5.000   6.115  17.828  0.00  0.00    +0.000 C 
ATOM      2  O   UNL     1       4.050   6.641  17.247  0.00  0.00    +0.000 OA
ATOM      3  N   UNL     1       4.872   5.576  19.095  0.00  0.00    +0.000 N 
ATOM      4  H   UNL     1       5.717   5.402  19.631  0.00  0.00    +0.000 HD
ENDROOT
BRANCH   1   5
ATOM      5  C   UNL     1       6.436   6.054  17.248  0.00  0.00    +0.000 C 
BRANCH   5   9
ATOM      6  C   UNL     1       8.372   9.294  17.527  0.00  0.00    +0.000 C 
ATOM      7  C   UNL     1       7.918   7.908  17.900  0.00  0.00    +0.000 C 
ATOM      8  O   UNL     1       8.377   7.284  18.853  0.00  0.00    +0.000 OA
ATOM      9  N   UNL     1       6.948   7.404  17.078  0.00  0.00    +0.000 N 
ATOM     10  H   UNL     1       6.668   7.904  16.243  0.00  0.00    +0.000 HD
ENDBRANCH   5   9
BRANCH   5  11
ATOM     11  C   UNL     1       6.432   5.358  15.922  0.00  0.00    +0.000 A 
ATOM     12  C   UNL     1       5.614   4.408  15.340  0.00  0.00    +0.000 A 
ATOM     13  C   UNL     1       6.153   4.133  14.063  0.00  0.00    +0.000 A 
ATOM     14  C   UNL     1       7.272   4.920  13.942  0.00  0.00    +0.000 A 
ATOM     15  O   UNL     1       7.453   5.663  15.063  0.00  0.00    +0.000 OA
ENDBRANCH   5  11
ENDBRANCH   1   5
BRANCH   3  16
ATOM     16  C   UNL     1       3.605   5.549  19.792  0.00  0.00    +0.000 C 
BRANCH  16  17
ATOM     17  C   UNL     1       2.883   4.244  19.592  0.00  0.00    +0.000 A 
ATOM     18  C   UNL     1       3.523   3.143  19.001  0.00  0.00    +0.000 A 
ATOM     19  C   UNL     1       2.825   1.950  18.811  0.00  0.00    +0.000 A 
ATOM     20  F   UNL     1       3.442   0.911  18.232  0.00  0.00    +0.000 F 
ATOM     21  C   UNL     1       1.498   1.822  19.205  0.00  0.00    +0.000 A 
ATOM     22  C   UNL     1       0.857   2.903  19.810  0.00  0.00    +0.000 A 
ATOM     23  C   UNL     1       1.552   4.097  19.999  0.00  0.00    +0.000 A 
ATOM     24  F   UNL     1       0.917   5.125  20.579  0.00  0.00    +0.000 F 
ENDBRANCH  16  17
ENDBRANCH   3  16
TORSDOF 5
ENDMDL
MODEL 4
REMARK VINA RESULT:      -8.0      1.534      2.009
REMARK  Name = 
REMARK  6 active torsions:
REMARK  status: ('A' for Active; 'I' for Inactive)
REMARK    1  A    between atoms: C_1  and  C_2
REMARK    2  A    between atoms: N_4  and  C_5
REMARK    3  A    between atoms: C_5  and  C_6
REMARK    4  A    between atoms: C_5  and  C_18
REMARK    5  A    between atoms: N_8  and  C_9
REMARK    6  A    between atoms: C_9  and  C_10
REMARK                            x       y       z     vdW  Elec       q    Type
REMARK                         _______ _______ _______ _____ _____    ______ ____
ROOT
ATOM      1  C   UNL     1       5.052   5.065  16.472  0.00  0.00    +0.000 C 
ATOM      2  O   UNL     1       4.366   6.088  16.458  0.00  0.00    +0.000 OA
ATOM      3  N   UNL     1       4.520   3.834  16.807  0.00  0.00    +0.000 N 
ATOM      4  H   UNL     1       5.160   3.088  17.064  0.00  0.00    +0.000 HD
ENDROOT
BRANCH   1   5
ATOM      5  C   UNL     1       6.576   5.048  16.187  0.00  0.00    +0.000 C 
BRANCH   5   9
ATOM      6  C   UNL     1       8.126   7.973  18.023  0.00  0.00    +0.000 C 
ATOM      7  C   UNL     1       7.476   6.626  17.848  0.00  0.00    +0.000 C 
ATOM      8  O   UNL     1       7.258   5.859  18.781  0.00  0.00    +0.000 OA
ATOM      9  N   UNL     1       7.152   6.332  16.552  0.00  0.00    +0.000 N 
ATOM     10  H   UNL     1       7.440   6.942  15.797  0.00  0.00    +0.000 HD
ENDBRANCH   5   9
BRANCH   5  11
ATOM     11  C   UNL     1       6.830   4.790  14.734  0.00  0.00    +0.000 A 
ATOM     12  C   UNL     1       6.291   3.917  13.806  0.00  0.00    +0.000 A 
ATOM     13  C   UNL     1       6.976   4.142  12.591  0.00  0.00    +0.000 A 
ATOM     14  C   UNL     1       7.898   5.127  12.846  0.00  0.00    +0.000 A 
ATOM     15  O   UNL     1       7.821   5.524  14.141  0.00  0.00    +0.000 OA
ENDBRANCH   5  11
ENDBRANCH   1   5
BRANCH   3  16
ATOM     16  C   UNL     1       3.115   3.663  17.107  0.00  0.00    +0.000 C 
BRANCH  16  17
ATOM     17  C   UNL     1       2.825   3.878  18.568  0.00  0.00    +0.000 A 
ATOM     18  C   UNL     1       3.152   2.905  19.525  0.00  0.00    +0.000 A 
ATOM     19  C   UNL     1       2.854   3.122  20.870  0.00  0.00    +0.000 A 
ATOM     20  F   UNL     1       3.157   2.180  21.773  0.00  0.00    +0.000 F 
ATOM     21  C   UNL     1       2.241   4.297  21.291  0.00  0.00    +0.000 A 
ATOM     22  C   UNL     1       1.929   5.280  20.352  0.00  0.00    +0.000 A 
ATOM     23  C   UNL     1       2.223   5.064  19.007  0.00  0.00    +0.000 A 
ATOM     24  F   UNL     1       1.911   6.018  18.119  0.00  0.00    +0.000 F 
ENDBRANCH  16  17
ENDBRANCH   3  16
TORSDOF 5
ENDMDL
MODEL 5
REMARK VINA RESULT:      -7.9      1.438      1.993
REMARK  Name = 
REMARK  6 active torsions:
REMARK  status: ('A' for Active; 'I' for Inactive)
REMARK    1  A    between atoms: C_1  and  C_2
REMARK    2  A    between atoms: N_4  and  C_5
REMARK    3  A    between atoms: C_5  and  C_6
REMARK    4  A    between atoms: C_5  and  C_18
REMARK    5  A    between atoms: N_8  and  C_9
REMARK    6  A    between atoms: C_9  and  C_10
REMARK                            x       y       z     vdW  Elec       q    Type
REMARK                         _______ _______ _______ _____ _____    ______ ____
ROOT
ATOM      1  C   UNL     1       5.347   5.841  18.338  0.00  0.00    +0.000 C 
ATOM      2  O   UNL     1       5.270   5.316  19.450  0.00  0.00    +0.000 OA
ATOM      3  N   UNL     1       4.241   6.382  17.709  0.00  0.00    +0.000 N 
ATOM      4  H   UNL     1       4.292   6.554  16.709  0.00  0.00    +0.000 HD
ENDROOT
BRANCH   1   5
ATOM      5  C   UNL     1       6.650   5.896  17.500  0.00  0.00    +0.000 C 
BRANCH   5   9
ATOM      6  C   UNL     1       8.237   9.332  17.539  0.00  0.00    +0.000 C 
ATOM      7  C   UNL     1       7.953   7.925  17.993  0.00  0.00    +0.000 C 
ATOM      8  O   UNL     1       8.522   7.399  18.946  0.00  0.00    +0.000 OA
ATOM      9  N   UNL     1       7.005   7.283  17.246  0.00  0.00    +0.000 N 
ATOM     10  H   UNL     1       6.633   7.710  16.406  0.00  0.00    +0.000 HD
ENDBRANCH   5   9
BRANCH   5  11
ATOM     11  C   UNL     1       6.458   5.190  16.193  0.00  0.00    +0.000 A 
ATOM     12  C   UNL     1       5.629   4.168  15.768  0.00  0.00    +0.000 A 
ATOM     13  C   UNL     1       5.942   3.928  14.412  0.00  0.00    +0.000 A 
ATOM     14  C   UNL     1       6.948   4.805  14.089  0.00  0.00    +0.000 A 
ATOM     15  O   UNL     1       7.271   5.572  15.161  0.00  0.00    +0.000 OA
ENDBRANCH   5  11
ENDBRANCH   1   5
BRANCH   3  16
ATOM     16  C   UNL     1       2.940   6.414  18.341  0.00  0.00    +0.000 C 
BRANCH  16  17
ATOM     17  C   UNL     1       2.416   5.031  18.615  0.00  0.00    +0.000 A 
ATOM     18  C   UNL     1       2.626   3.981  17.707  0.00  0.00    +0.000 A 
ATOM     19  C   UNL     1       2.113   2.712  17.977  0.00  0.00    +0.000 A 
ATOM     20  F   UNL     1       2.306   1.722  17.095  0.00  0.00    +0.000 F 
ATOM     21  C   UNL     1       1.397   2.458  19.142  0.00  0.00    +0.000 A 
ATOM     22  C   UNL     1       1.198   3.488  20.061  0.00  0.00    +0.000 A 
ATOM     23  C   UNL     1       1.708   4.758  19.792  0.00  0.00    +0.000 A 
ATOM     24  F   UNL     1       1.503   5.735  20.685  0.00  0.00    +0.000 F 
ENDBRANCH  16  17
ENDBRANCH   3  16
TORSDOF 5
ENDMDL
MODEL 6
REMARK VINA RESULT:      -7.7      1.974      2.973
REMARK  Name = 
REMARK  6 active torsions:
REMARK  status: ('A' for Active; 'I' for Inactive)
REMARK    1  A    between atoms: C_1  and  C_2
REMARK    2  A    between atoms: N_4  and  C_5
REMARK    3  A    between atoms: C_5  and  C_6
REMARK    4  A    between atoms: C_5  and  C_18
REMARK    5  A    between atoms: N_8  and  C_9
REMARK    6  A    between atoms: C_9  and  C_10
REMARK                            x       y       z     vdW  Elec       q    Type
REMARK                         _______ _______ _______ _____ _____    ______ ____
ROOT
ATOM      1  C   UNL     1       5.244   4.012  16.164  0.00  0.00    +0.000 C 
ATOM      2  O   UNL     1       4.334   4.330  15.398  0.00  0.00    +0.000 OA
ATOM      3  N   UNL     1       4.999   3.362  17.359  0.00  0.00    +0.000 N 
ATOM      4  H   UNL     1       5.729   3.362  18.066  0.00  0.00    +0.000 HD
ENDROOT
BRANCH   1   5
ATOM      5  C   UNL     1       6.736   4.356  15.918  0.00  0.00    +0.000 C 
BRANCH   5   9
ATOM      6  C   UNL     1       7.902   6.981  18.382  0.00  0.00    +0.000 C 
ATOM      7  C   UNL     1       7.552   5.608  17.873  0.00  0.00    +0.000 C 
ATOM      8  O   UNL     1       7.693   4.588  18.541  0.00  0.00    +0.000 OA
ATOM      9  N   UNL     1       7.065   5.600  16.595  0.00  0.00    +0.000 N 
ATOM     10  H   UNL     1       7.061   6.446  16.038  0.00  0.00    +0.000 HD
ENDBRANCH   5   9
BRANCH   5  11
ATOM     11  C   UNL     1       6.998   4.510  14.451  0.00  0.00    +0.000 A 
ATOM     12  C   UNL     1       6.552   3.847  13.322  0.00  0.00    +0.000 A 
ATOM     13  C   UNL     1       7.188   4.454  12.216  0.00  0.00    +0.000 A 
ATOM     14  C   UNL     1       7.992   5.441  12.730  0.00  0.00    +0.000 A 
ATOM     15  O   UNL     1       7.888   5.482  14.083  0.00  0.00    +0.000 OA
ENDBRANCH   5  11
ENDBRANCH   1   5
BRANCH   3  16
ATOM     16  C   UNL     1       3.665   2.966  17.756  0.00  0.00    +0.000 C 
BRANCH  16  17
ATOM     17  C   UNL     1       3.054   3.946  18.721  0.00  0.00    +0.000 A 
ATOM     18  C   UNL     1       3.121   5.329  18.491  0.00  0.00    +0.000 A 
ATOM     19  C   UNL     1       2.563   6.217  19.411  0.00  0.00    +0.000 A 
ATOM     20  F   UNL     1       2.646   7.535  19.189  0.00  0.00    +0.000 F 
ATOM     21  C   UNL     1       1.927   5.758  20.559  0.00  0.00    +0.000 A 
ATOM     22  C   UNL     1       1.837   4.385  20.789  0.00  0.00    +0.000 A 
ATOM     23  C   UNL     1       2.397   3.496  19.872  0.00  0.00    +0.000 A 
ATOM     24  F   UNL     1       2.304   2.181  20.113  0.00  0.00    +0.000 F 
ENDBRANCH  16  17
ENDBRANCH   3  16
TORSDOF 5
ENDMDL
MODEL 7
REMARK VINA RESULT:      -7.7      1.324      1.444
REMARK  Name = 
REMARK  6 active torsions:
REMARK  status: ('A' for Active; 'I' for Inactive)
REMARK    1  A    between atoms: C_1  and  C_2
REMARK    2  A    between atoms: N_4  and  C_5
REMARK    3  A    between atoms: C_5  and  C_6
REMARK    4  A    between atoms: C_5  and  C_18
REMARK    5  A    between atoms: N_8  and  C_9
REMARK    6  A    between atoms: C_9  and  C_10
REMARK                            x       y       z     vdW  Elec       q    Type
REMARK                         _______ _______ _______ _____ _____    ______ ____
ROOT
ATOM      1  C   UNL     1       4.612   4.886  17.019  0.00  0.00    +0.000 C 
ATOM      2  O   UNL     1       3.805   4.159  16.438  0.00  0.00    +0.000 OA
ATOM      3  N   UNL     1       4.203   5.882  17.886  0.00  0.00    +0.000 N 
ATOM      4  H   UNL     1       4.866   6.614  18.126  0.00  0.00    +0.000 HD
ENDROOT
BRANCH   1   5
ATOM      5  C   UNL     1       6.145   4.818  16.800  0.00  0.00    +0.000 C 
BRANCH   5   9
ATOM      6  C   UNL     1       8.214   7.429  18.597  0.00  0.00    +0.000 C 
ATOM      7  C   UNL     1       7.630   6.071  18.311  0.00  0.00    +0.000 C 
ATOM      8  O   UNL     1       7.912   5.068  18.960  0.00  0.00    +0.000 OA
ATOM      9  N   UNL     1       6.756   6.055  17.260  0.00  0.00    +0.000 N 
ATOM     10  H   UNL     1       6.626   6.878  16.683  0.00  0.00    +0.000 HD
ENDBRANCH   5   9
BRANCH   5  11
ATOM     11  C   UNL     1       6.455   4.626  15.347  0.00  0.00    +0.000 A 
ATOM     12  C   UNL     1       5.937   3.813  14.356  0.00  0.00    +0.000 A 
ATOM     13  C   UNL     1       6.676   4.082  13.182  0.00  0.00    +0.000 A 
ATOM     14  C   UNL     1       7.607   5.032  13.524  0.00  0.00    +0.000 A 
ATOM     15  O   UNL     1       7.484   5.367  14.834  0.00  0.00    +0.000 OA
ENDBRANCH   5  11
ENDBRANCH   1   5
BRANCH   3  16
ATOM     16  C   UNL     1       2.808   6.094  18.207  0.00  0.00    +0.000 C 
BRANCH  16  17
ATOM     17  C   UNL     1       2.255   4.987  19.062  0.00  0.00    +0.000 A 
ATOM     18  C   UNL     1       2.629   4.852  20.408  0.00  0.00    +0.000 A 
ATOM     19  C   UNL     1       2.115   3.805  21.173  0.00  0.00    +0.000 A 
ATOM     20  F   UNL     1       2.491   3.677  22.453  0.00  0.00    +0.000 F 
ATOM     21  C   UNL     1       1.225   2.885  20.629  0.00  0.00    +0.000 A 
ATOM     22  C   UNL     1       0.831   3.020  19.297  0.00  0.00    +0.000 A 
ATOM     23  C   UNL     1       1.345   4.064  18.531  0.00  0.00    +0.000 A 
ATOM     24  F   UNL     1       0.958   4.174  17.252  0.00  0.00    +0.000 F 
ENDBRANCH  16  17
ENDBRANCH   3  16
TORSDOF 5
ENDMDL
MODEL 8
REMARK VINA RESULT:      -7.6      2.305      3.511
REMARK  Name = 
REMARK  6 active torsions:
REMARK  status: ('A' for Active; 'I' for Inactive)
REMARK    1  A    between atoms: C_1  and  C_2
REMARK    2  A    between atoms: N_4  and  C_5
REMARK    3  A    between atoms: C_5  and  C_6
REMARK    4  A    between atoms: C_5  and  C_18
REMARK    5  A    between atoms: N_8  and  C_9
REMARK    6  A    between atoms: C_9  and  C_10
REMARK                            x       y       z     vdW  Elec       q    Type
REMARK                         _______ _______ _______ _____ _____    ______ ____
ROOT
ATOM      1  C   UNL     1       5.812   4.869  17.737  0.00  0.00    +0.000 C 
ATOM      2  O   UNL     1       5.883   4.237  18.791  0.00  0.00    +0.000 OA
ATOM      3  N   UNL     1       4.598   5.243  17.191  0.00  0.00    +0.000 N 
ATOM      4  H   UNL     1       4.574   5.515  16.212  0.00  0.00    +0.000 HD
ENDROOT
BRANCH   1   5
ATOM      5  C   UNL     1       7.045   5.253  16.879  0.00  0.00    +0.000 C 
BRANCH   5   9
ATOM      6  C   UNL     1       7.980   8.821  17.730  0.00  0.00    +0.000 C 
ATOM      7  C   UNL     1       7.838   7.335  17.926  0.00  0.00    +0.000 C 
ATOM      8  O   UNL     1       8.247   6.747  18.923  0.00  0.00    +0.000 OA
ATOM      9  N   UNL     1       7.212   6.698  16.891  0.00  0.00    +0.000 N 
ATOM     10  H   UNL     1       6.980   7.198  16.041  0.00  0.00    +0.000 HD
ENDBRANCH   5   9
BRANCH   5  11
ATOM     11  C   UNL     1       6.860   4.791  15.466  0.00  0.00    +0.000 A 
ATOM     12  C   UNL     1       7.329   5.234  14.243  0.00  0.00    +0.000 A 
ATOM     13  C   UNL     1       6.775   4.382  13.262  0.00  0.00    +0.000 A 
ATOM     14  C   UNL     1       5.993   3.477  13.937  0.00  0.00    +0.000 A 
ATOM     15  O   UNL     1       6.034   3.717  15.272  0.00  0.00    +0.000 OA
ENDBRANCH   5  11
ENDBRANCH   1   5
BRANCH   3  16
ATOM     16  C   UNL     1       3.342   4.963  17.852  0.00  0.00    +0.000 C 
BRANCH  16  17
ATOM     17  C   UNL     1       2.753   6.197  18.480  0.00  0.00    +0.000 A 
ATOM     18  C   UNL     1       2.544   7.365  17.729  0.00  0.00    +0.000 A 
ATOM     19  C   UNL     1       2.013   8.501  18.341  0.00  0.00    +0.000 A 
ATOM     20  F   UNL     1       1.832   9.615  17.618  0.00  0.00    +0.000 F 
ATOM     21  C   UNL     1       1.676   8.501  19.690  0.00  0.00    +0.000 A 
ATOM     22  C   UNL     1       1.861   7.341  20.442  0.00  0.00    +0.000 A 
ATOM     23  C   UNL     1       2.394   6.205  19.833  0.00  0.00    +0.000 A 
ATOM     24  F   UNL     1       2.568   5.101  20.573  0.00  0.00    +0.000 F 
ENDBRANCH  16  17
ENDBRANCH   3  16
TORSDOF 5
ENDMDL
MODEL 9
REMARK VINA RESULT:      -7.5      1.756      1.860
REMARK  Name = 
REMARK  6 active torsions:
REMARK  status: ('A' for Active; 'I' for Inactive)
REMARK    1  A    between atoms: C_1  and  C_2
REMARK    2  A    between atoms: N_4  and  C_5
REMARK    3  A    between atoms: C_5  and  C_6
REMARK    4  A    between atoms: C_5  and  C_18
REMARK    5  A    between atoms: N_8  and  C_9
REMARK    6  A    between atoms: C_9  and  C_10
REMARK                            x       y       z     vdW  Elec       q    Type
REMARK                         _______ _______ _______ _____ _____    ______ ____
ROOT
ATOM      1  C   UNL     1       5.862   5.157  18.267  0.00  0.00    +0.000 C 
ATOM      2  O   UNL     1       4.994   5.930  18.675  0.00  0.00    +0.000 OA
ATOM      3  N   UNL     1       6.012   3.887  18.793  0.00  0.00    +0.000 N 
ATOM      4  H   UNL     1       6.887   3.397  18.625  0.00  0.00    +0.000 HD
ENDROOT
BRANCH   1   5
ATOM      5  C   UNL     1       6.910   5.531  17.187  0.00  0.00    +0.000 C 
BRANCH   5   9
ATOM      6  C   UNL     1       7.907   9.147  17.692  0.00  0.00    +0.000 C 
ATOM      7  C   UNL     1       7.853   7.667  17.965  0.00  0.00    +0.000 C 
ATOM      8  O   UNL     1       8.486   7.127  18.868  0.00  0.00    +0.000 OA
ATOM      9  N   UNL     1       7.035   6.978  17.114  0.00  0.00    +0.000 N 
ATOM     10  H   UNL     1       6.610   7.439  16.318  0.00  0.00    +0.000 HD
ENDBRANCH   5   9
BRANCH   5  11
ATOM     11  C   UNL     1       6.488   5.004  15.850  0.00  0.00    +0.000 A 
ATOM     12  C   UNL     1       5.358   4.356  15.388  0.00  0.00    +0.000 A 
ATOM     13  C   UNL     1       5.571   4.094  14.016  0.00  0.00    +0.000 A 
ATOM     14  C   UNL     1       6.819   4.585  13.721  0.00  0.00    +0.000 A 
ATOM     15  O   UNL     1       7.386   5.135  14.825  0.00  0.00    +0.000 OA
ENDBRANCH   5  11
ENDBRANCH   1   5
BRANCH   3  16
ATOM     16  C   UNL     1       5.126   3.370  19.813  0.00  0.00    +0.000 C 
BRANCH  16  17
ATOM     17  C   UNL     1       3.705   3.280  19.327  0.00  0.00    +0.000 A 
ATOM     18  C   UNL     1       2.655   3.882  20.037  0.00  0.00    +0.000 A 
ATOM     19  C   UNL     1       1.344   3.768  19.575  0.00  0.00    +0.000 A 
ATOM     20  F   UNL     1       0.348   4.334  20.269  0.00  0.00    +0.000 F 
ATOM     21  C   UNL     1       1.051   3.070  18.408  0.00  0.00    +0.000 A 
ATOM     22  C   UNL     1       2.088   2.483  17.683  0.00  0.00    +0.000 A 
ATOM     23  C   UNL     1       3.399   2.594  18.145  0.00  0.00    +0.000 A 
ATOM     24  F   UNL     1       4.381   2.020  17.437  0.00  0.00    +0.000 F 
ENDBRANCH  16  17
ENDBRANCH   3  16
TORSDOF 5
ENDMDL
