MODEL 1
REMARK VINA RESULT:      -8.6      0.000      0.000
REMARK  Name = 
REMARK  7 active torsions:
REMARK  status: ('A' for Active; 'I' for Inactive)
REMARK    1  A    between atoms: C_1  and  C_2
REMARK    2  A    between atoms: C_2  and  O_3
REMARK    3  A    between atoms: O_3  and  C_4
REMARK    4  A    between atoms: C_4  and  C_6
REMARK    5  A    between atoms: C_10  and  N_11
REMARK    6  A    between atoms: C_18  and  C_19
REMARK    7  A    between atoms: C_18  and  C_20
REMARK                            x       y       z     vdW  Elec       q    Type
REMARK                         _______ _______ _______ _____ _____    ______ ____
ROOT
ATOM      1  N   UNL     1       4.040   4.065  19.187  0.00  0.00    +0.000 N 
ATOM      2  C   UNL     1       4.100   2.830  19.967  0.00  0.00    +0.000 C 
ATOM      3  N   UNL     1       5.188   1.912  19.889  0.00  0.00    +0.000 N 
ATOM      4  N   UNL     1       3.101   2.457  20.682  0.00  0.00    +0.000 NA
ATOM      5  C   UNL     1       1.902   3.186  20.752  0.00  0.00    +0.000 C 
ATOM      6  N   UNL     1       0.836   2.710  21.550  0.00  0.00    +0.000 N 
ATOM      7  N   UNL     1       1.738   4.226  20.027  0.00  0.00    +0.000 NA
ATOM      8  C   UNL     1       2.720   4.770  19.099  0.00  0.00    +0.000 C 
ATOM      9  C   UNL     1       2.052   4.583  17.715  0.00  0.00    +0.000 C 
ATOM     10  C   UNL     1       2.872   6.256  19.490  0.00  0.00    +0.000 C 
ATOM     11  H   UNL     1       5.925   1.969  19.176  0.00  0.00    +0.000 HD
ATOM     12  H   UNL     1       5.179   1.066  20.479  0.00  0.00    +0.000 HD
ATOM     13  H   UNL     1       0.938   1.834  22.082  0.00  0.00    +0.000 HD
ATOM     14  H   UNL     1      -0.070   3.202  21.558  0.00  0.00    +0.000 HD
ENDROOT
BRANCH   1  19
ATOM     15  C   UNL     1       6.672   4.945  16.563  0.00  0.00    +0.000 A 
ATOM     16  C   UNL     1       7.567   5.710  17.315  0.00  0.00    +0.000 A 
ATOM     17  C   UNL     1       7.349   5.898  18.669  0.00  0.00    +0.000 A 
ATOM     18  C   UNL     1       6.225   5.354  19.285  0.00  0.00    +0.000 A 
ATOM     19  C   UNL     1       5.250   4.616  18.565  0.00  0.00    +0.000 A 
ATOM     20  C   UNL     1       5.538   4.394  17.192  0.00  0.00    +0.000 A 
BRANCH  15  21
ATOM     21  C   UNL     1       6.929   4.721  15.122  0.00  0.00    +0.000 C 
ATOM     22  O   UNL     1       7.726   5.430  14.524  0.00  0.00    +0.000 OA
BRANCH  21  23
ATOM     23  O   UNL     1       6.269   3.724  14.476  0.00  0.00    +0.000 OA
BRANCH  23  25
ATOM     24  C   UNL     1       5.984   3.183  12.186  0.00  0.00    +0.000 C 
ATOM     25  C   UNL     1       5.411   3.882  13.410  0.00  0.00    +0.000 C 
ENDBRANCH  23  25
ENDBRANCH  21  23
ENDBRANCH  15  21
ENDBRANCH   1  19
TORSDOF 4
ENDMDL
MODEL 2
REMARK VINA RESULT:      -8.2      1.858      3.332
REMARK  Name = 
REMARK  7 active torsions:
REMARK  status: ('A' for Active; 'I' for Inactive)
REMARK    1  A    between atoms: C_1  and  C_2
REMARK    2  A    between atoms: C_2  and  O_3
REMARK    3  A    between atoms: O_3  and  C_4
REMARK    4  A    between atoms: C_4  and  C_6
REMARK    5  A    between atoms: C_10  and  N_11
REMARK    6  A    between atoms: C_18  and  C_19
REMARK    7  A    between atoms: C_18  and  C_20
REMARK                            x       y       z     vdW  Elec       q    Type
REMARK                         _______ _______ _______ _____ _____    ______ ____
ROOT
ATOM      1  N   UNL     1       3.567   3.766  19.088  0.00  0.00    +0.000 N 
ATOM      2  C   UNL     1       3.938   2.708  20.026  0.00  0.00    +0.000 C 
ATOM      3  N   UNL     1       5.087   1.882  19.854  0.00  0.00    +0.000 N 
ATOM      4  N   UNL     1       3.163   2.397  21.002  0.00  0.00    +0.000 NA
ATOM      5  C   UNL     1       1.928   3.028  21.223  0.00  0.00    +0.000 C 
ATOM      6  N   UNL     1       1.119   2.626  22.311  0.00  0.00    +0.000 N 
ATOM      7  N   UNL     1       1.492   3.897  20.393  0.00  0.00    +0.000 NA
ATOM      8  C   UNL     1       2.184   4.334  19.189  0.00  0.00    +0.000 C 
ATOM      9  C   UNL     1       1.267   3.839  18.044  0.00  0.00    +0.000 C 
ATOM     10  C   UNL     1       2.236   5.874  19.284  0.00  0.00    +0.000 C 
ATOM     11  H   UNL     1       5.645   1.863  18.992  0.00  0.00    +0.000 HD
ATOM     12  H   UNL     1       5.304   1.163  20.562  0.00  0.00    +0.000 HD
ATOM     13  H   UNL     1       1.434   1.876  22.942  0.00  0.00    +0.000 HD
ATOM     14  H   UNL     1       0.182   3.036  22.444  0.00  0.00    +0.000 HD
ENDROOT
BRANCH   1  19
ATOM     15  C   UNL     1       6.549   5.655  17.629  0.00  0.00    +0.000 A 
ATOM     16  C   UNL     1       6.486   5.277  16.285  0.00  0.00    +0.000 A 
ATOM     17  C   UNL     1       5.459   4.461  15.844  0.00  0.00    +0.000 A 
ATOM     18  C   UNL     1       4.502   3.985  16.737  0.00  0.00    +0.000 A 
ATOM     19  C   UNL     1       4.544   4.286  18.124  0.00  0.00    +0.000 A 
ATOM     20  C   UNL     1       5.577   5.175  18.527  0.00  0.00    +0.000 A 
BRANCH  15  21
ATOM     21  C   UNL     1       7.632   6.555  18.087  0.00  0.00    +0.000 C 
ATOM     22  O   UNL     1       8.245   6.305  19.115  0.00  0.00    +0.000 OA
BRANCH  21  23
ATOM     23  O   UNL     1       7.933   7.660  17.353  0.00  0.00    +0.000 OA
BRANCH  23  25
ATOM     24  C   UNL     1       8.694   9.672  18.347  0.00  0.00    +0.000 C 
ATOM     25  C   UNL     1       7.553   8.951  17.645  0.00  0.00    +0.000 C 
ENDBRANCH  23  25
ENDBRANCH  21  23
ENDBRANCH  15  21
ENDBRANCH   1  19
TORSDOF 4
ENDMDL
MODEL 3
REMARK VINA RESULT:      -8.0      1.033      1.127
REMARK  Name = 
REMARK  7 active torsions:
REMARK  status: ('A' for Active; 'I' for Inactive)
REMARK    1  A    between atoms: C_1  and  C_2
REMARK    2  A    between atoms: C_2  and  O_3
REMARK    3  A    between atoms: O_3  and  C_4
REMARK    4  A    between atoms: C_4  and  C_6
REMARK    5  A    between atoms: C_10  and  N_11
REMARK    6  A    between atoms: C_18  and  C_19
REMARK    7  A    between atoms: C_18  and  C_20
REMARK                            x       y       z     vdW  Elec       q    Type
REMARK                         _______ _______ _______ _____ _____    ______ ____
ROOT
ATOM      1  N   UNL     1       3.820   3.815  18.461  0.00  0.00    +0.000 N 
ATOM      2  C   UNL     1       3.509   2.433  18.824  0.00  0.00    +0.000 C 
ATOM      3  N   UNL     1       4.182   1.310  18.260  0.00  0.00    +0.000 N 
ATOM      4  N   UNL     1       2.519   2.165  19.595  0.00  0.00    +0.000 NA
ATOM      5  C   UNL     1       1.675   3.157  20.121  0.00  0.00    +0.000 C 
ATOM      6  N   UNL     1       0.593   2.789  20.954  0.00  0.00    +0.000 N 
ATOM      7  N   UNL     1       1.825   4.379  19.776  0.00  0.00    +0.000 NA
ATOM      8  C   UNL     1       2.839   4.876  18.858  0.00  0.00    +0.000 C 
ATOM      9  C   UNL     1       2.017   5.389  17.651  0.00  0.00    +0.000 C 
ATOM     10  C   UNL     1       3.553   6.016  19.617  0.00  0.00    +0.000 C 
ATOM     11  H   UNL     1       4.816   1.377  17.455  0.00  0.00    +0.000 HD
ATOM     12  H   UNL     1       3.928   0.359  18.570  0.00  0.00    +0.000 HD
ATOM     13  H   UNL     1       0.425   1.799  21.180  0.00  0.00    +0.000 HD
ATOM     14  H   UNL     1      -0.070   3.502  21.292  0.00  0.00    +0.000 HD
ENDROOT
BRANCH   1  19
ATOM     15  C   UNL     1       6.357   4.513  15.693  0.00  0.00    +0.000 A 
ATOM     16  C   UNL     1       7.499   4.826  16.436  0.00  0.00    +0.000 A 
ATOM     17  C   UNL     1       7.463   4.761  17.818  0.00  0.00    +0.000 A 
ATOM     18  C   UNL     1       6.287   4.417  18.479  0.00  0.00    +0.000 A 
ATOM     19  C   UNL     1       5.080   4.145  17.784  0.00  0.00    +0.000 A 
ATOM     20  C   UNL     1       5.171   4.162  16.366  0.00  0.00    +0.000 A 
BRANCH  15  21
ATOM     21  C   UNL     1       6.412   4.553  14.214  0.00  0.00    +0.000 C 
ATOM     22  O   UNL     1       7.272   5.215  13.649  0.00  0.00    +0.000 OA
BRANCH  21  23
ATOM     23  O   UNL     1       5.498   3.848  13.495  0.00  0.00    +0.000 OA
BRANCH  23  25
ATOM     24  C   UNL     1       4.418   3.208  11.486  0.00  0.00    +0.000 C 
ATOM     25  C   UNL     1       5.718   3.251  12.275  0.00  0.00    +0.000 C 
ENDBRANCH  23  25
ENDBRANCH  21  23
ENDBRANCH  15  21
ENDBRANCH   1  19
TORSDOF 4
ENDMDL
MODEL 4
REMARK VINA RESULT:      -7.8      1.027      1.250
REMARK  Name = 
REMARK  7 active torsions:
REMARK  status: ('A' for Active; 'I' for Inactive)
REMARK    1  A    between atoms: C_1  and  C_2
REMARK    2  A    between atoms: C_2  and  O_3
REMARK    3  A    between atoms: O_3  and  C_4
REMARK    4  A    between atoms: C_4  and  C_6
REMARK    5  A    between atoms: C_10  and  N_11
REMARK    6  A    between atoms: C_18  and  C_19
REMARK    7  A    between atoms: C_18  and  C_20
REMARK                            x       y       z     vdW  Elec       q    Type
REMARK                         _______ _______ _______ _____ _____    ______ ____
ROOT
ATOM      1  N   UNL     1       3.912   4.049  19.236  0.00  0.00    +0.000 N 
ATOM      2  C   UNL     1       4.090   2.836  20.033  0.00  0.00    +0.000 C 
ATOM      3  N   UNL     1       5.186   1.943  19.857  0.00  0.00    +0.000 N 
ATOM      4  N   UNL     1       3.185   2.459  20.862  0.00  0.00    +0.000 NA
ATOM      5  C   UNL     1       1.982   3.161  21.046  0.00  0.00    +0.000 C 
ATOM      6  N   UNL     1       1.023   2.680  21.968  0.00  0.00    +0.000 N 
ATOM      7  N   UNL     1       1.713   4.178  20.320  0.00  0.00    +0.000 NA
ATOM      8  C   UNL     1       2.572   4.720  19.278  0.00  0.00    +0.000 C 
ATOM      9  C   UNL     1       1.763   4.482  17.980  0.00  0.00    +0.000 C 
ATOM     10  C   UNL     1       2.728   6.219  19.615  0.00  0.00    +0.000 C 
ATOM     11  H   UNL     1       5.839   1.999  19.066  0.00  0.00    +0.000 HD
ATOM     12  H   UNL     1       5.264   1.112  20.464  0.00  0.00    +0.000 HD
ATOM     13  H   UNL     1       1.205   1.821  22.505  0.00  0.00    +0.000 HD
ATOM     14  H   UNL     1       0.111   3.151  22.063  0.00  0.00    +0.000 HD
ENDROOT
BRANCH   1  19
ATOM     15  C   UNL     1       6.170   5.000  16.306  0.00  0.00    +0.000 A 
ATOM     16  C   UNL     1       7.169   5.732  16.952  0.00  0.00    +0.000 A 
ATOM     17  C   UNL     1       7.141   5.874  18.329  0.00  0.00    +0.000 A 
ATOM     18  C   UNL     1       6.106   5.317  19.075  0.00  0.00    +0.000 A 
ATOM     19  C   UNL     1       5.032   4.612  18.472  0.00  0.00    +0.000 A 
ATOM     20  C   UNL     1       5.126   4.436  17.065  0.00  0.00    +0.000 A 
BRANCH  15  21
ATOM     21  C   UNL     1       6.224   4.825  14.836  0.00  0.00    +0.000 C 
ATOM     22  O   UNL     1       5.295   4.290  14.247  0.00  0.00    +0.000 OA
BRANCH  21  23
ATOM     23  O   UNL     1       7.315   5.263  14.154  0.00  0.00    +0.000 OA
BRANCH  23  25
ATOM     24  C   UNL     1       8.171   6.074  12.099  0.00  0.00    +0.000 C 
ATOM     25  C   UNL     1       7.689   4.867  12.890  0.00  0.00    +0.000 C 
ENDBRANCH  23  25
ENDBRANCH  21  23
ENDBRANCH  15  21
ENDBRANCH   1  19
TORSDOF 4
ENDMDL
MODEL 5
REMARK VINA RESULT:      -7.7      1.308      2.367
REMARK  Name = 
REMARK  7 active torsions:
REMARK  status: ('A' for Active; 'I' for Inactive)
REMARK    1  A    between atoms: C_1  and  C_2
REMARK    2  A    between atoms: C_2  and  O_3
REMARK    3  A    between atoms: O_3  and  C_4
REMARK    4  A    between atoms: C_4  and  C_6
REMARK    5  A    between atoms: C_10  and  N_11
REMARK    6  A    between atoms: C_18  and  C_19
REMARK    7  A    between atoms: C_18  and  C_20
REMARK                            x       y       z     vdW  Elec       q    Type
REMARK                         _______ _______ _______ _____ _____    ______ ____
ROOT
ATOM      1  N   UNL     1       3.937   3.976  18.487  0.00  0.00    +0.000 N 
ATOM      2  C   UNL     1       2.910   5.004  18.652  0.00  0.00    +0.000 C 
ATOM      3  N   UNL     1       3.169   6.396  18.490  0.00  0.00    +0.000 N 
ATOM      4  N   UNL     1       1.736   4.696  19.071  0.00  0.00    +0.000 NA
ATOM      5  C   UNL     1       1.369   3.382  19.406  0.00  0.00    +0.000 C 
ATOM      6  N   UNL     1       0.061   3.116  19.873  0.00  0.00    +0.000 N 
ATOM      7  N   UNL     1       2.237   2.444  19.377  0.00  0.00    +0.000 NA
ATOM      8  C   UNL     1       3.635   2.601  19.002  0.00  0.00    +0.000 C 
ATOM      9  C   UNL     1       4.400   2.290  20.312  0.00  0.00    +0.000 C 
ATOM     10  C   UNL     1       3.884   1.545  17.903  0.00  0.00    +0.000 C 
ATOM     11  H   UNL     1       4.114   6.788  18.402  0.00  0.00    +0.000 HD
ATOM     12  H   UNL     1       2.397   7.071  18.603  0.00  0.00    +0.000 HD
ATOM     13  H   UNL     1      -0.623   3.881  19.965  0.00  0.00    +0.000 HD
ATOM     14  H   UNL     1      -0.199   2.168  20.183  0.00  0.00    +0.000 HD
ENDROOT
BRANCH   1  19
ATOM     15  C   UNL     1       6.450   4.586  15.677  0.00  0.00    +0.000 A 
ATOM     16  C   UNL     1       7.602   4.906  16.400  0.00  0.00    +0.000 A 
ATOM     17  C   UNL     1       7.581   4.874  17.784  0.00  0.00    +0.000 A 
ATOM     18  C   UNL     1       6.409   4.556  18.465  0.00  0.00    +0.000 A 
ATOM     19  C   UNL     1       5.192   4.279  17.789  0.00  0.00    +0.000 A 
ATOM     20  C   UNL     1       5.268   4.261  16.370  0.00  0.00    +0.000 A 
BRANCH  15  21
ATOM     21  C   UNL     1       6.490   4.591  14.197  0.00  0.00    +0.000 C 
ATOM     22  O   UNL     1       7.368   5.205  13.608  0.00  0.00    +0.000 OA
BRANCH  21  23
ATOM     23  O   UNL     1       5.540   3.907  13.504  0.00  0.00    +0.000 OA
BRANCH  23  25
ATOM     24  C   UNL     1       4.439   3.239  11.515  0.00  0.00    +0.000 C 
ATOM     25  C   UNL     1       5.733   3.239  12.316  0.00  0.00    +0.000 C 
ENDBRANCH  23  25
ENDBRANCH  21  23
ENDBRANCH  15  21
ENDBRANCH   1  19
TORSDOF 4
ENDMDL
MODEL 6
REMARK VINA RESULT:      -7.5      4.354      6.915
REMARK  Name = 
REMARK  7 active torsions:
REMARK  status: ('A' for Active; 'I' for Inactive)
REMARK    1  A    between atoms: C_1  and  C_2
REMARK    2  A    between atoms: C_2  and  O_3
REMARK    3  A    between atoms: O_3  and  C_4
REMARK    4  A    between atoms: C_4  and  C_6
REMARK    5  A    between atoms: C_10  and  N_11
REMARK    6  A    between atoms: C_18  and  C_19
REMARK    7  A    between atoms: C_18  and  C_20
REMARK                            x       y       z     vdW  Elec       q    Type
REMARK                         _______ _______ _______ _____ _____    ______ ____
ROOT
ATOM      1  N   UNL     1       3.154   5.204  19.210  0.00  0.00    +0.000 N 
ATOM      2  C   UNL     1       4.602   5.018  19.136  0.00  0.00    +0.000 C 
ATOM      3  N   UNL     1       5.493   6.021  18.652  0.00  0.00    +0.000 N 
ATOM      4  N   UNL     1       5.131   3.878  19.401  0.00  0.00    +0.000 NA
ATOM      5  C   UNL     1       4.371   2.753  19.758  0.00  0.00    +0.000 C 
ATOM      6  N   UNL     1       5.018   1.524  20.024  0.00  0.00    +0.000 N 
ATOM      7  N   UNL     1       3.094   2.811  19.754  0.00  0.00    +0.000 NA
ATOM      8  C   UNL     1       2.305   3.986  19.413  0.00  0.00    +0.000 C 
ATOM      9  C   UNL     1       1.570   3.566  18.116  0.00  0.00    +0.000 C 
ATOM     10  C   UNL     1       1.341   4.190  20.602  0.00  0.00    +0.000 C 
ATOM     11  H   UNL     1       5.176   6.877  18.181  0.00  0.00    +0.000 HD
ATOM     12  H   UNL     1       6.507   5.835  18.642  0.00  0.00    +0.000 HD
ATOM     13  H   UNL     1       6.043   1.453  19.961  0.00  0.00    +0.000 HD
ATOM     14  H   UNL     1       4.466   0.676  20.224  0.00  0.00    +0.000 HD
ENDROOT
BRANCH   1  19
ATOM     15  C   UNL     1       1.515   8.486  20.272  0.00  0.00    +0.000 A 
ATOM     16  C   UNL     1       1.467   9.177  19.059  0.00  0.00    +0.000 A 
ATOM     17  C   UNL     1       1.913   8.569  17.899  0.00  0.00    +0.000 A 
ATOM     18  C   UNL     1       2.440   7.280  17.934  0.00  0.00    +0.000 A 
ATOM     19  C   UNL     1       2.569   6.548  19.144  0.00  0.00    +0.000 A 
ATOM     20  C   UNL     1       2.045   7.181  20.303  0.00  0.00    +0.000 A 
BRANCH  15  21
ATOM     21  C   UNL     1       1.005   9.131  21.504  0.00  0.00    +0.000 C 
ATOM     22  O   UNL     1       1.736   9.258  22.477  0.00  0.00    +0.000 OA
BRANCH  21  23
ATOM     23  O   UNL     1      -0.278   9.577  21.539  0.00  0.00    +0.000 OA
BRANCH  23  25
ATOM     24  C   UNL     1      -1.256  11.092  23.076  0.00  0.00    +0.000 C 
ATOM     25  C   UNL     1      -0.674  10.888  21.686  0.00  0.00    +0.000 C 
ENDBRANCH  23  25
ENDBRANCH  21  23
ENDBRANCH  15  21
ENDBRANCH   1  19
TORSDOF 4
ENDMDL
MODEL 7
REMARK VINA RESULT:      -7.0      1.384      1.464
REMARK  Name = 
REMARK  7 active torsions:
REMARK  status: ('A' for Active; 'I' for Inactive)
REMARK    1  A    between atoms: C_1  and  C_2
REMARK    2  A    between atoms: C_2  and  O_3
REMARK    3  A    between atoms: O_3  and  C_4
REMARK    4  A    between atoms: C_4  and  C_6
REMARK    5  A    between atoms: C_10  and  N_11
REMARK    6  A    between atoms: C_18  and  C_19
REMARK    7  A    between atoms: C_18  and  C_20
REMARK                            x       y       z     vdW  Elec       q    Type
REMARK                         _______ _______ _______ _____ _____    ______ ____
ROOT
ATOM      1  N   UNL     1       3.251   4.125  19.048  0.00  0.00    +0.000 N 
ATOM      2  C   UNL     1       3.965   3.128  19.844  0.00  0.00    +0.000 C 
ATOM      3  N   UNL     1       5.255   2.630  19.494  0.00  0.00    +0.000 N 
ATOM      4  N   UNL     1       3.399   2.563  20.848  0.00  0.00    +0.000 NA
ATOM      5  C   UNL     1       2.079   2.847  21.235  0.00  0.00    +0.000 C 
ATOM      6  N   UNL     1       1.513   2.177  22.345  0.00  0.00    +0.000 N 
ATOM      7  N   UNL     1       1.359   3.637  20.534  0.00  0.00    +0.000 NA
ATOM      8  C   UNL     1       1.791   4.319  19.323  0.00  0.00    +0.000 C 
ATOM      9  C   UNL     1       0.903   3.695  18.219  0.00  0.00    +0.000 C 
ATOM     10  C   UNL     1       1.479   5.813  19.562  0.00  0.00    +0.000 C 
ATOM     11  H   UNL     1       5.704   2.814  18.590  0.00  0.00    +0.000 HD
ATOM     12  H   UNL     1       5.714   1.939  20.107  0.00  0.00    +0.000 HD
ATOM     13  H   UNL     1       2.066   1.487  22.872  0.00  0.00    +0.000 HD
ATOM     14  H   UNL     1       0.525   2.330  22.598  0.00  0.00    +0.000 HD
ENDROOT
BRANCH   1  19
ATOM     15  C   UNL     1       5.523   5.108  16.140  0.00  0.00    +0.000 A 
ATOM     16  C   UNL     1       5.329   6.491  16.092  0.00  0.00    +0.000 A 
ATOM     17  C   UNL     1       4.511   7.107  17.024  0.00  0.00    +0.000 A 
ATOM     18  C   UNL     1       3.853   6.355  17.993  0.00  0.00    +0.000 A 
ATOM     19  C   UNL     1       3.964   4.941  18.058  0.00  0.00    +0.000 A 
ATOM     20  C   UNL     1       4.858   4.352  17.124  0.00  0.00    +0.000 A 
BRANCH  15  21
ATOM     21  C   UNL     1       6.424   4.461  15.160  0.00  0.00    +0.000 C 
ATOM     22  O   UNL     1       7.632   4.646  15.220  0.00  0.00    +0.000 OA
BRANCH  21  23
ATOM     23  O   UNL     1       5.894   3.663  14.195  0.00  0.00    +0.000 OA
BRANCH  23  25
ATOM     24  C   UNL     1       5.007   3.350  12.020  0.00  0.00    +0.000 C 
ATOM     25  C   UNL     1       6.232   3.677  12.860  0.00  0.00    +0.000 C 
ENDBRANCH  23  25
ENDBRANCH  21  23
ENDBRANCH  15  21
ENDBRANCH   1  19
TORSDOF 4
ENDMDL
MODEL 8
REMARK VINA RESULT:      -6.9      1.543      2.639
REMARK  Name = 
REMARK  7 active torsions:
REMARK  status: ('A' for Active; 'I' for Inactive)
REMARK    1  A    between atoms: C_1  and  C_2
REMARK    2  A    between atoms: C_2  and  O_3
REMARK    3  A    between atoms: O_3  and  C_4
REMARK    4  A    between atoms: C_4  and  C_6
REMARK    5  A    between atoms: C_10  and  N_11
REMARK    6  A    between atoms: C_18  and  C_19
REMARK    7  A    between atoms: C_18  and  C_20
REMARK                            x       y       z     vdW  Elec       q    Type
REMARK                         _______ _______ _______ _____ _____    ______ ____
ROOT
ATOM      1  N   UNL     1       3.286   4.473  19.338  0.00  0.00    +0.000 N 
ATOM      2  C   UNL     1       2.476   5.146  20.353  0.00  0.00    +0.000 C 
ATOM      3  N   UNL     1       2.534   6.551  20.588  0.00  0.00    +0.000 N 
ATOM      4  N   UNL     1       1.751   4.470  21.168  0.00  0.00    +0.000 NA
ATOM      5  C   UNL     1       1.697   3.066  21.152  0.00  0.00    +0.000 C 
ATOM      6  N   UNL     1       0.885   2.384  22.088  0.00  0.00    +0.000 N 
ATOM      7  N   UNL     1       2.447   2.403  20.357  0.00  0.00    +0.000 NA
ATOM      8  C   UNL     1       3.389   2.979  19.409  0.00  0.00    +0.000 C 
ATOM      9  C   UNL     1       4.767   2.516  19.940  0.00  0.00    +0.000 C 
ATOM     10  C   UNL     1       3.035   2.348  18.045  0.00  0.00    +0.000 C 
ATOM     11  H   UNL     1       3.249   7.164  20.178  0.00  0.00    +0.000 HD
ATOM     12  H   UNL     1       1.923   6.969  21.307  0.00  0.00    +0.000 HD
ATOM     13  H   UNL     1       0.332   2.912  22.777  0.00  0.00    +0.000 HD
ATOM     14  H   UNL     1       0.889   1.354  22.127  0.00  0.00    +0.000 HD
ENDROOT
BRANCH   1  19
ATOM     15  C   UNL     1       5.789   5.541  16.659  0.00  0.00    +0.000 A 
ATOM     16  C   UNL     1       5.167   6.678  16.136  0.00  0.00    +0.000 A 
ATOM     17  C   UNL     1       3.975   7.125  16.679  0.00  0.00    +0.000 A 
ATOM     18  C   UNL     1       3.371   6.431  17.725  0.00  0.00    +0.000 A 
ATOM     19  C   UNL     1       3.923   5.239  18.261  0.00  0.00    +0.000 A 
ATOM     20  C   UNL     1       5.177   4.845  17.719  0.00  0.00    +0.000 A 
BRANCH  15  21
ATOM     21  C   UNL     1       7.080   5.087  16.094  0.00  0.00    +0.000 C 
ATOM     22  O   UNL     1       7.817   4.363  16.749  0.00  0.00    +0.000 OA
BRANCH  21  23
ATOM     23  O   UNL     1       7.436   5.486  14.843  0.00  0.00    +0.000 OA
BRANCH  23  25
ATOM     24  C   UNL     1       6.060   3.917  13.720  0.00  0.00    +0.000 C 
ATOM     25  C   UNL     1       7.349   4.725  13.699  0.00  0.00    +0.000 C 
ENDBRANCH  23  25
ENDBRANCH  21  23
ENDBRANCH  15  21
ENDBRANCH   1  19
TORSDOF 4
ENDMDL
MODEL 9
REMARK VINA RESULT:      -6.8      2.157      3.982
REMARK  Name = 
REMARK  7 active torsions:
REMARK  status: ('A' for Active; 'I' for Inactive)
REMARK    1  A    between atoms: C_1  and  C_2
REMARK    2  A    between atoms: C_2  and  O_3
REMARK    3  A    between atoms: O_3  and  C_4
REMARK    4  A    between atoms: C_4  and  C_6
REMARK    5  A    between atoms: C_10  and  N_11
REMARK    6  A    between atoms: C_18  and  C_19
REMARK    7  A    between atoms: C_18  and  C_20
REMARK                            x       y       z     vdW  Elec       q    Type
REMARK                         _______ _______ _______ _____ _____    ______ ____
ROOT
ATOM      1  N   UNL     1       3.635   4.165  19.212  0.00  0.00    +0.000 N 
ATOM      2  C   UNL     1       2.715   5.008  19.974  0.00  0.00    +0.000 C 
ATOM      3  N   UNL     1       2.844   6.425  20.056  0.00  0.00    +0.000 N 
ATOM      4  N   UNL     1       1.803   4.484  20.709  0.00  0.00    +0.000 NA
ATOM      5  C   UNL     1       1.637   3.095  20.842  0.00  0.00    +0.000 C 
ATOM      6  N   UNL     1       0.619   2.586  21.681  0.00  0.00    +0.000 N 
ATOM      7  N   UNL     1       2.460   2.293  20.282  0.00  0.00    +0.000 NA
ATOM      8  C   UNL     1       3.601   2.688  19.468  0.00  0.00    +0.000 C 
ATOM      9  C   UNL     1       4.819   2.214  20.296  0.00  0.00    +0.000 C 
ATOM     10  C   UNL     1       3.445   1.913  18.142  0.00  0.00    +0.000 C 
ATOM     11  H   UNL     1       3.669   6.937  19.720  0.00  0.00    +0.000 HD
ATOM     12  H   UNL     1       2.152   6.966  20.596  0.00  0.00    +0.000 HD
ATOM     13  H   UNL     1      -0.003   3.229  22.190  0.00  0.00    +0.000 HD
ATOM     14  H   UNL     1       0.530   1.571  21.836  0.00  0.00    +0.000 HD
ENDROOT
BRANCH   1  19
ATOM     15  C   UNL     1       6.514   6.087  17.598  0.00  0.00    +0.000 A 
ATOM     16  C   UNL     1       6.271   5.862  16.241  0.00  0.00    +0.000 A 
ATOM     17  C   UNL     1       5.157   5.139  15.848  0.00  0.00    +0.000 A 
ATOM     18  C   UNL     1       4.291   4.605  16.799  0.00  0.00    +0.000 A 
ATOM     19  C   UNL     1       4.515   4.749  18.193  0.00  0.00    +0.000 A 
ATOM     20  C   UNL     1       5.633   5.548  18.556  0.00  0.00    +0.000 A 
BRANCH  15  21
ATOM     21  C   UNL     1       7.689   6.888  18.009  0.00  0.00    +0.000 C 
ATOM     22  O   UNL     1       8.357   6.547  18.975  0.00  0.00    +0.000 OA
BRANCH  21  23
ATOM     23  O   UNL     1       8.013   8.004  17.302  0.00  0.00    +0.000 OA
BRANCH  23  25
ATOM     24  C   UNL     1       8.937   9.786  18.561  0.00  0.00    +0.000 C 
ATOM     25  C   UNL     1       7.783   9.303  17.696  0.00  0.00    +0.000 C 
ENDBRANCH  23  25
ENDBRANCH  21  23
ENDBRANCH  15  21
ENDBRANCH   1  19
TORSDOF 4
ENDMDL
