MODEL 1
REMARK VINA RESULT:      -8.7      0.000      0.000
REMARK  Name = 
REMARK  5 active torsions:
REMARK  status: ('A' for Active; 'I' for Inactive)
REMARK    1  A    between atoms: C_1  and  C_2
REMARK    2  A    between atoms: C_7  and  C_8
REMARK    3  A    between atoms: C_11  and  C_13
REMARK    4  A    between atoms: C_14  and  C_15
REMARK    5  A    between atoms: C_24  and  C_25
REMARK                            x       y       z     vdW  Elec       q    Type
REMARK                         _______ _______ _______ _____ _____    ______ ____
ROOT
ATOM      1  C   UNL     1       1.436   7.808  19.367  0.00  0.00    +0.000 C 
ATOM      2  C   UNL     1       2.139   8.200  18.042  0.00  0.00    +0.000 C 
ATOM      3  N   UNL     1       3.095   7.163  18.413  0.00  0.00    +0.000 N 
ATOM      4  C   UNL     1       4.100   6.632  17.652  0.00  0.00    +0.000 C 
ATOM      5  O   UNL     1       4.271   7.019  16.497  0.00  0.00    +0.000 OA
ATOM      6  C   UNL     1       2.873   7.412  19.825  0.00  0.00    +0.000 C 
ENDROOT
BRANCH   1  13
ATOM      7  C   UNL     1      -1.186  14.160  22.102  0.00  0.00    +0.000 C 
ATOM      8  C   UNL     1      -0.837  12.705  21.994  0.00  0.00    +0.000 A 
ATOM      9  C   UNL     1      -1.193  11.813  23.016  0.00  0.00    +0.000 A 
ATOM     10  C   UNL     1      -0.894  10.448  22.937  0.00  0.00    +0.000 A 
ATOM     11  C   UNL     1      -0.223  10.020  21.792  0.00  0.00    +0.000 A 
ATOM     12  N   UNL     1       0.206   8.788  21.394  0.00  0.00    +0.000 N 
ATOM     13  C   UNL     1       0.825   8.924  20.179  0.00  0.00    +0.000 A 
ATOM     14  N   UNL     1       0.813  10.176  19.780  0.00  0.00    +0.000 NA
ATOM     15  C   UNL     1       0.158  10.875  20.762  0.00  0.00    +0.000 A 
ATOM     16  C   UNL     1      -0.154  12.237  20.856  0.00  0.00    +0.000 A 
ATOM     17  H   UNL     1       0.085   7.933  21.919  0.00  0.00    +0.000 HD
ENDBRANCH   1  13
BRANCH   4  18
ATOM     18  C   UNL     1       4.945   5.614  18.242  0.00  0.00    +0.000 A 
ATOM     19  C   UNL     1       4.538   4.456  18.999  0.00  0.00    +0.000 A 
ATOM     20  N   UNL     1       5.622   3.776  19.404  0.00  0.00    +0.000 NA
ATOM     21  O   UNL     1       6.716   4.502  19.022  0.00  0.00    +0.000 OA
ATOM     22  C   UNL     1       6.327   5.607  18.339  0.00  0.00    +0.000 A 
ATOM     23  C   UNL     1       7.433   6.511  17.960  0.00  0.00    +0.000 C 
BRANCH  19  24
ATOM     24  C   UNL     1       3.187   3.938  19.285  0.00  0.00    +0.000 A 
ATOM     25  C   UNL     1       2.692   4.012  20.602  0.00  0.00    +0.000 A 
ATOM     26  C   UNL     1       1.406   3.570  20.926  0.00  0.00    +0.000 A 
ATOM     27  C   UNL     1       0.567   3.077  19.934  0.00  0.00    +0.000 A 
ATOM     28  C   UNL     1       1.029   2.999  18.623  0.00  0.00    +0.000 A 
ATOM     29  C   UNL     1       2.333   3.407  18.297  0.00  0.00    +0.000 A 
ATOM     30 CL   UNL     1       2.804   3.160  16.646  0.00  0.00    +0.000 Cl
ENDBRANCH  19  24
ENDBRANCH   4  18
TORSDOF 3
ENDMDL
MODEL 2
REMARK VINA RESULT:      -8.7      4.664      6.447
REMARK  Name = 
REMARK  5 active torsions:
REMARK  status: ('A' for Active; 'I' for Inactive)
REMARK    1  A    between atoms: C_1  and  C_2
REMARK    2  A    between atoms: C_7  and  C_8
REMARK    3  A    between atoms: C_11  and  C_13
REMARK    4  A    between atoms: C_14  and  C_15
REMARK    5  A    between atoms: C_24  and  C_25
REMARK                            x       y       z     vdW  Elec       q    Type
REMARK                         _______ _______ _______ _____ _____    ______ ____
ROOT
ATOM      1  C   UNL     1       8.143   7.401  17.941  0.00  0.00    +0.000 C 
ATOM      2  C   UNL     1       7.831   6.450  19.125  0.00  0.00    +0.000 C 
ATOM      3  N   UNL     1       6.816   5.906  18.230  0.00  0.00    +0.000 N 
ATOM      4  C   UNL     1       6.065   4.775  18.399  0.00  0.00    +0.000 C 
ATOM      5  O   UNL     1       6.218   4.074  19.397  0.00  0.00    +0.000 OA
ATOM      6  C   UNL     1       6.638   7.195  17.589  0.00  0.00    +0.000 C 
ENDROOT
BRANCH   1  13
ATOM      7  C   UNL     1       9.142  14.723  18.248  0.00  0.00    +0.000 C 
ATOM      8  C   UNL     1       9.185  13.273  18.631  0.00  0.00    +0.000 A 
ATOM      9  C   UNL     1       9.758  12.880  19.850  0.00  0.00    +0.000 A 
ATOM     10  C   UNL     1       9.800  11.536  20.243  0.00  0.00    +0.000 A 
ATOM     11  C   UNL     1       9.245  10.610  19.360  0.00  0.00    +0.000 A 
ATOM     12  N   UNL     1       9.112   9.254  19.427  0.00  0.00    +0.000 N 
ATOM     13  C   UNL     1       8.498   8.828  18.278  0.00  0.00    +0.000 A 
ATOM     14  N   UNL     1       8.233   9.839  17.482  0.00  0.00    +0.000 NA
ATOM     15  C   UNL     1       8.678  10.958  18.137  0.00  0.00    +0.000 A 
ATOM     16  C   UNL     1       8.641  12.308  17.764  0.00  0.00    +0.000 A 
ATOM     17  H   UNL     1       9.421   8.677  20.197  0.00  0.00    +0.000 HD
ENDBRANCH   1  13
BRANCH   4  18
ATOM     18  C   UNL     1       5.096   4.436  17.376  0.00  0.00    +0.000 A 
ATOM     19  C   UNL     1       3.726   4.024  17.557  0.00  0.00    +0.000 A 
ATOM     20  N   UNL     1       3.170   3.767  16.362  0.00  0.00    +0.000 NA
ATOM     21  O   UNL     1       4.155   3.901  15.424  0.00  0.00    +0.000 OA
ATOM     22  C   UNL     1       5.312   4.288  16.016  0.00  0.00    +0.000 A 
ATOM     23  C   UNL     1       6.467   4.373  15.098  0.00  0.00    +0.000 C 
BRANCH  19  24
ATOM     24  C   UNL     1       2.917   3.939  18.786  0.00  0.00    +0.000 A 
ATOM     25  C   UNL     1       2.551   2.669  19.276  0.00  0.00    +0.000 A 
ATOM     26  C   UNL     1       1.816   2.524  20.456  0.00  0.00    +0.000 A 
ATOM     27  C   UNL     1       1.459   3.643  21.197  0.00  0.00    +0.000 A 
ATOM     28  C   UNL     1       1.813   4.909  20.739  0.00  0.00    +0.000 A 
ATOM     29  C   UNL     1       2.520   5.065  19.536  0.00  0.00    +0.000 A 
ATOM     30 CL   UNL     1       2.805   6.702  19.040  0.00  0.00    +0.000 Cl
ENDBRANCH  19  24
ENDBRANCH   4  18
TORSDOF 3
ENDMDL
MODEL 3
REMARK VINA RESULT:      -8.5      4.532      6.416
REMARK  Name = 
REMARK  5 active torsions:
REMARK  status: ('A' for Active; 'I' for Inactive)
REMARK    1  A    between atoms: C_1  and  C_2
REMARK    2  A    between atoms: C_7  and  C_8
REMARK    3  A    between atoms: C_11  and  C_13
REMARK    4  A    between atoms: C_14  and  C_15
REMARK    5  A    between atoms: C_24  and  C_25
REMARK                            x       y       z     vdW  Elec       q    Type
REMARK                         _______ _______ _______ _____ _____    ______ ____
ROOT
ATOM      1  C   UNL     1       8.342   7.767  17.952  0.00  0.00    +0.000 C 
ATOM      2  C   UNL     1       8.027   6.797  19.120  0.00  0.00    +0.000 C 
ATOM      3  N   UNL     1       7.062   6.223  18.189  0.00  0.00    +0.000 N 
ATOM      4  C   UNL     1       6.347   5.064  18.326  0.00  0.00    +0.000 C 
ATOM      5  O   UNL     1       6.492   4.363  19.325  0.00  0.00    +0.000 OA
ATOM      6  C   UNL     1       6.857   7.509  17.550  0.00  0.00    +0.000 C 
ENDROOT
BRANCH   1  13
ATOM      7  C   UNL     1       9.023  15.121  18.354  0.00  0.00    +0.000 C 
ATOM      8  C   UNL     1       9.127  13.669  18.720  0.00  0.00    +0.000 A 
ATOM      9  C   UNL     1       9.710  13.285  19.937  0.00  0.00    +0.000 A 
ATOM     10  C   UNL     1       9.808  11.940  20.313  0.00  0.00    +0.000 A 
ATOM     11  C   UNL     1       9.298  11.002  19.416  0.00  0.00    +0.000 A 
ATOM     12  N   UNL     1       9.223   9.641  19.466  0.00  0.00    +0.000 N 
ATOM     13  C   UNL     1       8.634   9.204  18.308  0.00  0.00    +0.000 A 
ATOM     14  N   UNL     1       8.328  10.212  17.524  0.00  0.00    +0.000 NA
ATOM     15  C   UNL     1       8.722  11.341  18.195  0.00  0.00    +0.000 A 
ATOM     16  C   UNL     1       8.629  12.693  17.838  0.00  0.00    +0.000 A 
ATOM     17  H   UNL     1       9.554   9.068  20.229  0.00  0.00    +0.000 HD
ENDBRANCH   1  13
BRANCH   4  18
ATOM     18  C   UNL     1       5.425   4.697  17.270  0.00  0.00    +0.000 A 
ATOM     19  C   UNL     1       4.064   4.240  17.404  0.00  0.00    +0.000 A 
ATOM     20  N   UNL     1       3.557   3.969  16.190  0.00  0.00    +0.000 NA
ATOM     21  O   UNL     1       4.569   4.139  15.286  0.00  0.00    +0.000 OA
ATOM     22  C   UNL     1       5.692   4.561  15.918  0.00  0.00    +0.000 A 
ATOM     23  C   UNL     1       6.874   4.687  15.040  0.00  0.00    +0.000 C 
BRANCH  19  24
ATOM     24  C   UNL     1       3.217   4.124  18.605  0.00  0.00    +0.000 A 
ATOM     25  C   UNL     1       2.705   5.297  19.195  0.00  0.00    +0.000 A 
ATOM     26  C   UNL     1       1.868   5.249  20.313  0.00  0.00    +0.000 A 
ATOM     27  C   UNL     1       1.490   4.024  20.849  0.00  0.00    +0.000 A 
ATOM     28  C   UNL     1       1.977   2.849  20.281  0.00  0.00    +0.000 A 
ATOM     29  C   UNL     1       2.847   2.891  19.180  0.00  0.00    +0.000 A 
ATOM     30 CL   UNL     1       3.450   1.357  18.642  0.00  0.00    +0.000 Cl
ENDBRANCH  19  24
ENDBRANCH   4  18
TORSDOF 3
ENDMDL
MODEL 4
REMARK VINA RESULT:      -8.5      0.638      1.259
REMARK  Name = 
REMARK  5 active torsions:
REMARK  status: ('A' for Active; 'I' for Inactive)
REMARK    1  A    between atoms: C_1  and  C_2
REMARK    2  A    between atoms: C_7  and  C_8
REMARK    3  A    between atoms: C_11  and  C_13
REMARK    4  A    between atoms: C_14  and  C_15
REMARK    5  A    between atoms: C_24  and  C_25
REMARK                            x       y       z     vdW  Elec       q    Type
REMARK                         _______ _______ _______ _____ _____    ______ ____
ROOT
ATOM      1  C   UNL     1       1.527   8.021  18.892  0.00  0.00    +0.000 C 
ATOM      2  C   UNL     1       2.303   8.243  17.568  0.00  0.00    +0.000 C 
ATOM      3  N   UNL     1       3.226   7.255  18.114  0.00  0.00    +0.000 N 
ATOM      4  C   UNL     1       4.263   6.630  17.478  0.00  0.00    +0.000 C 
ATOM      5  O   UNL     1       4.499   6.871  16.296  0.00  0.00    +0.000 OA
ATOM      6  C   UNL     1       2.933   7.677  19.471  0.00  0.00    +0.000 C 
ENDROOT
BRANCH   1  13
ATOM      7  C   UNL     1      -1.440  13.134  23.337  0.00  0.00    +0.000 C 
ATOM      8  C   UNL     1      -0.936  12.462  22.093  0.00  0.00    +0.000 A 
ATOM      9  C   UNL     1      -0.968  13.136  20.863  0.00  0.00    +0.000 A 
ATOM     10  C   UNL     1      -0.491  12.542  19.688  0.00  0.00    +0.000 A 
ATOM     11  C   UNL     1       0.015  11.247  19.803  0.00  0.00    +0.000 A 
ATOM     12  N   UNL     1       0.555  10.395  18.885  0.00  0.00    +0.000 N 
ATOM     13  C   UNL     1       0.887   9.231  19.527  0.00  0.00    +0.000 A 
ATOM     14  N   UNL     1       0.588   9.295  20.805  0.00  0.00    +0.000 NA
ATOM     15  C   UNL     1       0.054  10.542  21.003  0.00  0.00    +0.000 A 
ATOM     16  C   UNL     1      -0.423  11.155  22.169  0.00  0.00    +0.000 A 
ATOM     17  H   UNL     1       0.679  10.601  17.903  0.00  0.00    +0.000 HD
ENDBRANCH   1  13
BRANCH   4  18
ATOM     18  C   UNL     1       5.064   5.687  18.233  0.00  0.00    +0.000 A 
ATOM     19  C   UNL     1       4.604   4.601  19.063  0.00  0.00    +0.000 A 
ATOM     20  N   UNL     1       5.657   3.981  19.620  0.00  0.00    +0.000 NA
ATOM     21  O   UNL     1       6.773   4.685  19.261  0.00  0.00    +0.000 OA
ATOM     22  C   UNL     1       6.433   5.712  18.444  0.00  0.00    +0.000 A 
ATOM     23  C   UNL     1       7.560   6.594  18.071  0.00  0.00    +0.000 C 
BRANCH  19  24
ATOM     24  C   UNL     1       3.239   4.091  19.284  0.00  0.00    +0.000 A 
ATOM     25  C   UNL     1       2.658   4.227  20.561  0.00  0.00    +0.000 A 
ATOM     26  C   UNL     1       1.355   3.795  20.822  0.00  0.00    +0.000 A 
ATOM     27  C   UNL     1       0.584   3.250  19.803  0.00  0.00    +0.000 A 
ATOM     28  C   UNL     1       1.131   3.109  18.531  0.00  0.00    +0.000 A 
ATOM     29  C   UNL     1       2.453   3.507  18.270  0.00  0.00    +0.000 A 
ATOM     30 CL   UNL     1       3.032   3.181  16.669  0.00  0.00    +0.000 Cl
ENDBRANCH  19  24
ENDBRANCH   4  18
TORSDOF 3
ENDMDL
MODEL 5
REMARK VINA RESULT:      -8.4      4.575      6.577
REMARK  Name = 
REMARK  5 active torsions:
REMARK  status: ('A' for Active; 'I' for Inactive)
REMARK    1  A    between atoms: C_1  and  C_2
REMARK    2  A    between atoms: C_7  and  C_8
REMARK    3  A    between atoms: C_11  and  C_13
REMARK    4  A    between atoms: C_14  and  C_15
REMARK    5  A    between atoms: C_24  and  C_25
REMARK                            x       y       z     vdW  Elec       q    Type
REMARK                         _______ _______ _______ _____ _____    ______ ____
ROOT
ATOM      1  C   UNL     1       8.380   8.032  17.883  0.00  0.00    +0.000 C 
ATOM      2  C   UNL     1       8.196   7.033  19.054  0.00  0.00    +0.000 C 
ATOM      3  N   UNL     1       7.201   6.420  18.181  0.00  0.00    +0.000 N 
ATOM      4  C   UNL     1       6.558   5.224  18.347  0.00  0.00    +0.000 C 
ATOM      5  O   UNL     1       6.807   4.519  19.322  0.00  0.00    +0.000 OA
ATOM      6  C   UNL     1       6.887   7.702  17.578  0.00  0.00    +0.000 C 
ENDROOT
BRANCH   1  13
ATOM      7  C   UNL     1      10.345  14.511  20.862  0.00  0.00    +0.000 C 
ATOM      8  C   UNL     1       9.743  13.515  19.914  0.00  0.00    +0.000 A 
ATOM      9  C   UNL     1       9.087  13.950  18.753  0.00  0.00    +0.000 A 
ATOM     10  C   UNL     1       8.529  13.045  17.843  0.00  0.00    +0.000 A 
ATOM     11  C   UNL     1       8.657  11.690  18.150  0.00  0.00    +0.000 A 
ATOM     12  N   UNL     1       8.247  10.565  17.496  0.00  0.00    +0.000 N 
ATOM     13  C   UNL     1       8.621   9.478  18.243  0.00  0.00    +0.000 A 
ATOM     14  N   UNL     1       9.246   9.850  19.337  0.00  0.00    +0.000 NA
ATOM     15  C   UNL     1       9.290  11.219  19.297  0.00  0.00    +0.000 A 
ATOM     16  C   UNL     1       9.846  12.140  20.194  0.00  0.00    +0.000 A 
ATOM     17  H   UNL     1       7.752  10.552  16.615  0.00  0.00    +0.000 HD
ENDBRANCH   1  13
BRANCH   4  18
ATOM     18  C   UNL     1       5.586   4.823  17.349  0.00  0.00    +0.000 A 
ATOM     19  C   UNL     1       4.233   4.372  17.563  0.00  0.00    +0.000 A 
ATOM     20  N   UNL     1       3.669   4.061  16.386  0.00  0.00    +0.000 NA
ATOM     21  O   UNL     1       4.636   4.198  15.429  0.00  0.00    +0.000 OA
ATOM     22  C   UNL     1       5.788   4.640  15.991  0.00  0.00    +0.000 A 
ATOM     23  C   UNL     1       6.927   4.734  15.054  0.00  0.00    +0.000 C 
BRANCH  19  24
ATOM     24  C   UNL     1       3.445   4.299  18.807  0.00  0.00    +0.000 A 
ATOM     25  C   UNL     1       3.462   3.106  19.557  0.00  0.00    +0.000 A 
ATOM     26  C   UNL     1       2.763   2.989  20.762  0.00  0.00    +0.000 A 
ATOM     27  C   UNL     1       2.060   4.074  21.268  0.00  0.00    +0.000 A 
ATOM     28  C   UNL     1       2.031   5.267  20.551  0.00  0.00    +0.000 A 
ATOM     29  C   UNL     1       2.700   5.381  19.321  0.00  0.00    +0.000 A 
ATOM     30 CL   UNL     1       2.496   6.890  18.493  0.00  0.00    +0.000 Cl
ENDBRANCH  19  24
ENDBRANCH   4  18
TORSDOF 3
ENDMDL
MODEL 6
REMARK VINA RESULT:      -8.4      3.554      6.781
REMARK  Name = 
REMARK  5 active torsions:
REMARK  status: ('A' for Active; 'I' for Inactive)
REMARK    1  A    between atoms: C_1  and  C_2
REMARK    2  A    between atoms: C_7  and  C_8
REMARK    3  A    between atoms: C_11  and  C_13
REMARK    4  A    between atoms: C_14  and  C_15
REMARK    5  A    between atoms: C_24  and  C_25
REMARK                            x       y       z     vdW  Elec       q    Type
REMARK                         _______ _______ _______ _____ _____    ______ ____
ROOT
ATOM      1  C   UNL     1       7.236   6.332  18.029  0.00  0.00    +0.000 C 
ATOM      2  C   UNL     1       7.054   5.496  19.322  0.00  0.00    +0.000 C 
ATOM      3  N   UNL     1       5.823   5.045  18.682  0.00  0.00    +0.000 N 
ATOM      4  C   UNL     1       4.989   4.036  19.078  0.00  0.00    +0.000 C 
ATOM      5  O   UNL     1       5.251   3.374  20.080  0.00  0.00    +0.000 OA
ATOM      6  C   UNL     1       5.677   6.311  17.988  0.00  0.00    +0.000 C 
ENDROOT
BRANCH   1  13
ATOM      7  C   UNL     1       9.101  13.478  17.616  0.00  0.00    +0.000 C 
ATOM      8  C   UNL     1       9.071  12.048  18.072  0.00  0.00    +0.000 A 
ATOM      9  C   UNL     1       9.871  11.631  19.146  0.00  0.00    +0.000 A 
ATOM     10  C   UNL     1       9.854  10.308  19.605  0.00  0.00    +0.000 A 
ATOM     11  C   UNL     1       9.002   9.427  18.938  0.00  0.00    +0.000 A 
ATOM     12  N   UNL     1       8.737   8.102  19.123  0.00  0.00    +0.000 N 
ATOM     13  C   UNL     1       7.821   7.715  18.180  0.00  0.00    +0.000 A 
ATOM     14  N   UNL     1       7.488   8.722  17.404  0.00  0.00    +0.000 NA
ATOM     15  C   UNL     1       8.202   9.799  17.862  0.00  0.00    +0.000 A 
ATOM     16  C   UNL     1       8.229  11.129  17.421  0.00  0.00    +0.000 A 
ATOM     17  H   UNL     1       9.154   7.519  19.835  0.00  0.00    +0.000 HD
ENDBRANCH   1  13
BRANCH   4  18
ATOM     18  C   UNL     1       3.802   3.776  18.288  0.00  0.00    +0.000 A 
ATOM     19  C   UNL     1       2.643   4.619  18.129  0.00  0.00    +0.000 A 
ATOM     20  N   UNL     1       1.743   4.007  17.344  0.00  0.00    +0.000 NA
ATOM     21  O   UNL     1       2.233   2.760  17.069  0.00  0.00    +0.000 OA
ATOM     22  C   UNL     1       3.454   2.605  17.636  0.00  0.00    +0.000 A 
ATOM     23  C   UNL     1       4.034   1.254  17.475  0.00  0.00    +0.000 C 
BRANCH  19  24
ATOM     24  C   UNL     1       2.391   5.985  18.622  0.00  0.00    +0.000 A 
ATOM     25  C   UNL     1       2.387   7.053  17.702  0.00  0.00    +0.000 A 
ATOM     26  C   UNL     1       2.120   8.364  18.103  0.00  0.00    +0.000 A 
ATOM     27  C   UNL     1       1.812   8.638  19.430  0.00  0.00    +0.000 A 
ATOM     28  C   UNL     1       1.803   7.601  20.359  0.00  0.00    +0.000 A 
ATOM     29  C   UNL     1       2.106   6.287  19.969  0.00  0.00    +0.000 A 
ATOM     30 CL   UNL     1       2.153   5.118  21.249  0.00  0.00    +0.000 Cl
ENDBRANCH  19  24
ENDBRANCH   4  18
TORSDOF 3
ENDMDL
MODEL 7
REMARK VINA RESULT:      -8.4      4.554      6.532
REMARK  Name = 
REMARK  5 active torsions:
REMARK  status: ('A' for Active; 'I' for Inactive)
REMARK    1  A    between atoms: C_1  and  C_2
REMARK    2  A    between atoms: C_7  and  C_8
REMARK    3  A    between atoms: C_11  and  C_13
REMARK    4  A    between atoms: C_14  and  C_15
REMARK    5  A    between atoms: C_24  and  C_25
REMARK                            x       y       z     vdW  Elec       q    Type
REMARK                         _______ _______ _______ _____ _____    ______ ____
ROOT
ATOM      1  C   UNL     1       8.372   7.964  17.888  0.00  0.00    +0.000 C 
ATOM      2  C   UNL     1       8.129   6.972  19.054  0.00  0.00    +0.000 C 
ATOM      3  N   UNL     1       7.159   6.371  18.147  0.00  0.00    +0.000 N 
ATOM      4  C   UNL     1       6.491   5.185  18.292  0.00  0.00    +0.000 C 
ATOM      5  O   UNL     1       6.693   4.479  19.278  0.00  0.00    +0.000 OA
ATOM      6  C   UNL     1       6.887   7.654  17.528  0.00  0.00    +0.000 C 
ENDROOT
BRANCH   1  13
ATOM      7  C   UNL     1      10.327  14.423  20.915  0.00  0.00    +0.000 C 
ATOM      8  C   UNL     1       9.744  13.432  19.949  0.00  0.00    +0.000 A 
ATOM      9  C   UNL     1       9.135  13.873  18.765  0.00  0.00    +0.000 A 
ATOM     10  C   UNL     1       8.595  12.973  17.838  0.00  0.00    +0.000 A 
ATOM     11  C   UNL     1       8.693  11.618  18.154  0.00  0.00    +0.000 A 
ATOM     12  N   UNL     1       8.290  10.497  17.489  0.00  0.00    +0.000 N 
ATOM     13  C   UNL     1       8.622   9.407  18.251  0.00  0.00    +0.000 A 
ATOM     14  N   UNL     1       9.214   9.773  19.365  0.00  0.00    +0.000 NA
ATOM     15  C   UNL     1       9.279  11.142  19.323  0.00  0.00    +0.000 A 
ATOM     16  C   UNL     1       9.818  12.057  20.236  0.00  0.00    +0.000 A 
ATOM     17  H   UNL     1       7.825  10.488  16.592  0.00  0.00    +0.000 HD
ENDBRANCH   1  13
BRANCH   4  18
ATOM     18  C   UNL     1       5.552   4.794  17.261  0.00  0.00    +0.000 A 
ATOM     19  C   UNL     1       4.205   4.306  17.429  0.00  0.00    +0.000 A 
ATOM     20  N   UNL     1       3.674   4.021  16.230  0.00  0.00    +0.000 NA
ATOM     21  O   UNL     1       4.659   4.212  15.300  0.00  0.00    +0.000 OA
ATOM     22  C   UNL     1       5.787   4.661  15.902  0.00  0.00    +0.000 A 
ATOM     23  C   UNL     1       6.944   4.813  14.994  0.00  0.00    +0.000 C 
BRANCH  19  24
ATOM     24  C   UNL     1       3.392   4.173  18.652  0.00  0.00    +0.000 A 
ATOM     25  C   UNL     1       2.934   5.339  19.297  0.00  0.00    +0.000 A 
ATOM     26  C   UNL     1       2.130   5.276  20.438  0.00  0.00    +0.000 A 
ATOM     27  C   UNL     1       1.732   4.045  20.944  0.00  0.00    +0.000 A 
ATOM     28  C   UNL     1       2.166   2.877  20.323  0.00  0.00    +0.000 A 
ATOM     29  C   UNL     1       3.003   2.932  19.197  0.00  0.00    +0.000 A 
ATOM     30 CL   UNL     1       3.544   1.401  18.589  0.00  0.00    +0.000 Cl
ENDBRANCH  19  24
ENDBRANCH   4  18
TORSDOF 3
ENDMDL
MODEL 8
REMARK VINA RESULT:      -8.1      2.046      4.090
REMARK  Name = 
REMARK  5 active torsions:
REMARK  status: ('A' for Active; 'I' for Inactive)
REMARK    1  A    between atoms: C_1  and  C_2
REMARK    2  A    between atoms: C_7  and  C_8
REMARK    3  A    between atoms: C_11  and  C_13
REMARK    4  A    between atoms: C_14  and  C_15
REMARK    5  A    between atoms: C_24  and  C_25
REMARK                            x       y       z     vdW  Elec       q    Type
REMARK                         _______ _______ _______ _____ _____    ______ ____
ROOT
ATOM      1  C   UNL     1       2.124   8.192  19.498  0.00  0.00    +0.000 C 
ATOM      2  C   UNL     1       2.072   7.199  20.687  0.00  0.00    +0.000 C 
ATOM      3  N   UNL     1       2.548   6.229  19.707  0.00  0.00    +0.000 N 
ATOM      4  C   UNL     1       2.997   4.956  19.931  0.00  0.00    +0.000 C 
ATOM      5  O   UNL     1       3.046   4.511  21.075  0.00  0.00    +0.000 OA
ATOM      6  C   UNL     1       1.860   6.922  18.633  0.00  0.00    +0.000 C 
ENDROOT
BRANCH   1  13
ATOM      7  C   UNL     1      -2.984  13.424  20.618  0.00  0.00    +0.000 C 
ATOM      8  C   UNL     1      -2.124  12.414  19.914  0.00  0.00    +0.000 A 
ATOM      9  C   UNL     1      -2.238  12.230  18.528  0.00  0.00    +0.000 A 
ATOM     10  C   UNL     1      -1.440  11.307  17.842  0.00  0.00    +0.000 A 
ATOM     11  C   UNL     1      -0.529  10.579  18.606  0.00  0.00    +0.000 A 
ATOM     12  N   UNL     1       0.387   9.626  18.269  0.00  0.00    +0.000 N 
ATOM     13  C   UNL     1       1.025   9.223  19.413  0.00  0.00    +0.000 A 
ATOM     14  N   UNL     1       0.566   9.869  20.461  0.00  0.00    +0.000 NA
ATOM     15  C   UNL     1      -0.393  10.724  19.984  0.00  0.00    +0.000 A 
ATOM     16  C   UNL     1      -1.197  11.656  20.653  0.00  0.00    +0.000 A 
ATOM     17  H   UNL     1       0.551   9.283  17.333  0.00  0.00    +0.000 HD
ENDBRANCH   1  13
BRANCH   4  18
ATOM     18  C   UNL     1       3.407   4.162  18.790  0.00  0.00    +0.000 A 
ATOM     19  C   UNL     1       4.571   4.343  17.959  0.00  0.00    +0.000 A 
ATOM     20  N   UNL     1       4.577   3.420  16.983  0.00  0.00    +0.000 NA
ATOM     21  O   UNL     1       3.413   2.713  17.093  0.00  0.00    +0.000 OA
ATOM     22  C   UNL     1       2.699   3.153  18.159  0.00  0.00    +0.000 A 
ATOM     23  C   UNL     1       1.375   2.513  18.312  0.00  0.00    +0.000 C 
BRANCH  19  24
ATOM     24  C   UNL     1       5.694   5.288  18.094  0.00  0.00    +0.000 A 
ATOM     25  C   UNL     1       6.636   5.087  19.123  0.00  0.00    +0.000 A 
ATOM     26  C   UNL     1       7.740   5.929  19.279  0.00  0.00    +0.000 A 
ATOM     27  C   UNL     1       7.953   6.972  18.387  0.00  0.00    +0.000 A 
ATOM     28  C   UNL     1       7.041   7.190  17.358  0.00  0.00    +0.000 A 
ATOM     29  C   UNL     1       5.910   6.370  17.217  0.00  0.00    +0.000 A 
ATOM     30 CL   UNL     1       4.812   6.820  15.952  0.00  0.00    +0.000 Cl
ENDBRANCH  19  24
ENDBRANCH   4  18
TORSDOF 3
ENDMDL
MODEL 9
REMARK VINA RESULT:      -8.1      2.497      4.436
REMARK  Name = 
REMARK  5 active torsions:
REMARK  status: ('A' for Active; 'I' for Inactive)
REMARK    1  A    between atoms: C_1  and  C_2
REMARK    2  A    between atoms: C_7  and  C_8
REMARK    3  A    between atoms: C_11  and  C_13
REMARK    4  A    between atoms: C_14  and  C_15
REMARK    5  A    between atoms: C_24  and  C_25
REMARK                            x       y       z     vdW  Elec       q    Type
REMARK                         _______ _______ _______ _____ _____    ______ ____
ROOT
ATOM      1  C   UNL     1       2.155   8.128  18.928  0.00  0.00    +0.000 C 
ATOM      2  C   UNL     1       2.120   7.186  20.159  0.00  0.00    +0.000 C 
ATOM      3  N   UNL     1       2.763   6.231  19.264  0.00  0.00    +0.000 N 
ATOM      4  C   UNL     1       3.323   5.024  19.582  0.00  0.00    +0.000 C 
ATOM      5  O   UNL     1       3.333   4.636  20.748  0.00  0.00    +0.000 OA
ATOM      6  C   UNL     1       2.088   6.801  18.112  0.00  0.00    +0.000 C 
ENDROOT
BRANCH   1  13
ATOM      7  C   UNL     1      -3.973  11.606  16.680  0.00  0.00    +0.000 C 
ATOM      8  C   UNL     1      -2.758  11.264  17.493  0.00  0.00    +0.000 A 
ATOM      9  C   UNL     1      -2.444  12.005  18.642  0.00  0.00    +0.000 A 
ATOM     10  C   UNL     1      -1.327  11.701  19.428  0.00  0.00    +0.000 A 
ATOM     11  C   UNL     1      -0.541  10.627  19.010  0.00  0.00    +0.000 A 
ATOM     12  N   UNL     1       0.588  10.067  19.532  0.00  0.00    +0.000 N 
ATOM     13  C   UNL     1       0.966   9.032  18.717  0.00  0.00    +0.000 A 
ATOM     14  N   UNL     1       0.138   8.902  17.705  0.00  0.00    +0.000 NA
ATOM     15  C   UNL     1      -0.812   9.876  17.870  0.00  0.00    +0.000 A 
ATOM     16  C   UNL     1      -1.938  10.192  17.099  0.00  0.00    +0.000 A 
ATOM     17  H   UNL     1       1.056  10.376  20.373  0.00  0.00    +0.000 HD
ENDBRANCH   1  13
BRANCH   4  18
ATOM     18  C   UNL     1       3.895   4.229  18.513  0.00  0.00    +0.000 A 
ATOM     19  C   UNL     1       5.084   4.504  17.745  0.00  0.00    +0.000 A 
ATOM     20  N   UNL     1       5.259   3.544  16.824  0.00  0.00    +0.000 NA
ATOM     21  O   UNL     1       4.176   2.713  16.901  0.00  0.00    +0.000 OA
ATOM     22  C   UNL     1       3.349   3.117  17.895  0.00  0.00    +0.000 A 
ATOM     23  C   UNL     1       2.098   2.336  18.002  0.00  0.00    +0.000 C 
BRANCH  19  24
ATOM     24  C   UNL     1       6.082   5.579  17.897  0.00  0.00    +0.000 A 
ATOM     25  C   UNL     1       7.076   5.452  18.888  0.00  0.00    +0.000 A 
ATOM     26  C   UNL     1       8.070   6.421  19.056  0.00  0.00    +0.000 A 
ATOM     27  C   UNL     1       8.118   7.523  18.212  0.00  0.00    +0.000 A 
ATOM     28  C   UNL     1       7.152   7.670  17.221  0.00  0.00    +0.000 A 
ATOM     29  C   UNL     1       6.129   6.720  17.070  0.00  0.00    +0.000 A 
ATOM     30 CL   UNL     1       4.941   7.083  15.861  0.00  0.00    +0.000 Cl
ENDBRANCH  19  24
ENDBRANCH   4  18
TORSDOF 3
ENDMDL
