MODEL 1
REMARK VINA RESULT:      -8.0      0.000      0.000
REMARK  Name = 
REMARK  8 active torsions:
REMARK  status: ('A' for Active; 'I' for Inactive)
REMARK    1  A    between atoms: C_1  and  N_2
REMARK    2  A    between atoms: N_2  and  C_25
REMARK    3  A    between atoms: C_3  and  C_5
REMARK    4  A    between atoms: C_5  and  O_6
REMARK    5  A    between atoms: O_6  and  C_7
REMARK    6  A    between atoms: C_7  and  C_9
REMARK    7  A    between atoms: C_11  and  S_12
REMARK    8  A    between atoms: S_12  and  N_15
REMARK                            x       y       z     vdW  Elec       q    Type
REMARK                         _______ _______ _______ _____ _____    ______ ____
ROOT
ATOM      1  C   UNL     1       2.343   7.248  19.235  0.00  0.00    +0.000 A 
ATOM      2  C   UNL     1       2.027   8.591  18.919  0.00  0.00    +0.000 A 
ATOM      3  C   UNL     1       1.172   9.345  19.729  0.00  0.00    +0.000 A 
ATOM      4  C   UNL     1       0.658   8.794  20.899  0.00  0.00    +0.000 A 
ATOM      5  C   UNL     1       0.979   7.472  21.235  0.00  0.00    +0.000 A 
ATOM      6  C   UNL     1       1.816   6.697  20.412  0.00  0.00    +0.000 A 
ATOM      7 CL   UNL     1       2.143   5.092  20.962  0.00  0.00    +0.000 Cl
ENDROOT
BRANCH   3   8
ATOM      8  S   UNL     1       0.874  11.064  19.330  0.00  0.00    +0.000 S 
ATOM      9  O   UNL     1       0.735  11.764  20.589  0.00  0.00    +0.000 OA
ATOM     10  O   UNL     1       1.881  11.458  18.371  0.00  0.00    +0.000 OA
BRANCH   8  11
ATOM     11  N   UNL     1      -0.649  11.085  18.545  0.00  0.00    +0.000 NA
ATOM     12  C   UNL     1      -0.922   9.922  17.669  0.00  0.00    +0.000 C 
ATOM     13  C   UNL     1      -2.186  10.150  16.848  0.00  0.00    +0.000 C 
ATOM     14  C   UNL     1      -3.366  10.417  17.770  0.00  0.00    +0.000 C 
ATOM     15  C   UNL     1      -3.077  11.685  18.554  0.00  0.00    +0.000 C 
ATOM     16  C   UNL     1      -1.796  11.540  19.375  0.00  0.00    +0.000 C 
ENDBRANCH   8  11
ENDBRANCH   3   8
BRANCH   1  17
ATOM     17  C   UNL     1       3.121   6.426  18.249  0.00  0.00    +0.000 C 
ATOM     18  O   UNL     1       2.990   5.242  18.013  0.00  0.00    +0.000 OA
BRANCH  17  19
ATOM     19  O   UNL     1       3.925   7.259  17.533  0.00  0.00    +0.000 OA
BRANCH  19  20
ATOM     20  C   UNL     1       5.289   6.820  17.406  0.00  0.00    +0.000 C 
BRANCH  20  23
ATOM     21  C   UNL     1       6.879   4.414  16.772  0.00  0.00    +0.000 C 
ATOM     22  N   UNL     1       6.293   5.216  15.693  0.00  0.00    +0.000 N 
ATOM     23  C   UNL     1       5.518   6.361  15.949  0.00  0.00    +0.000 C 
ATOM     24  O   UNL     1       4.992   7.040  15.057  0.00  0.00    +0.000 OA
BRANCH  22  25
ATOM     25  C   UNL     1       6.533   4.739  14.335  0.00  0.00    +0.000 A 
ATOM     26  C   UNL     1       7.558   5.242  13.519  0.00  0.00    +0.000 A 
ATOM     27  C   UNL     1       7.771   4.788  12.210  0.00  0.00    +0.000 A 
ATOM     28  C   UNL     1       6.965   3.802  11.672  0.00  0.00    +0.000 A 
ATOM     29  C   UNL     1       5.940   3.280  12.445  0.00  0.00    +0.000 A 
ATOM     30  C   UNL     1       5.734   3.735  13.758  0.00  0.00    +0.000 A 
ENDBRANCH  22  25
ENDBRANCH  20  23
ENDBRANCH  19  20
ENDBRANCH  17  19
ENDBRANCH   1  17
TORSDOF 7
ENDMDL
MODEL 2
REMARK VINA RESULT:      -7.8      2.765      9.670
REMARK  Name = 
REMARK  8 active torsions:
REMARK  status: ('A' for Active; 'I' for Inactive)
REMARK    1  A    between atoms: C_1  and  N_2
REMARK    2  A    between atoms: N_2  and  C_25
REMARK    3  A    between atoms: C_3  and  C_5
REMARK    4  A    between atoms: C_5  and  O_6
REMARK    5  A    between atoms: O_6  and  C_7
REMARK    6  A    between atoms: C_7  and  C_9
REMARK    7  A    between atoms: C_11  and  S_12
REMARK    8  A    between atoms: S_12  and  N_15
REMARK                            x       y       z     vdW  Elec       q    Type
REMARK                         _______ _______ _______ _____ _____    ______ ____
ROOT
ATOM      1  C   UNL     1       2.208   7.144  18.762  0.00  0.00    +0.000 A 
ATOM      2  C   UNL     1       2.663   6.000  18.063  0.00  0.00    +0.000 A 
ATOM      3  C   UNL     1       2.868   4.783  18.720  0.00  0.00    +0.000 A 
ATOM      4  C   UNL     1       2.571   4.665  20.075  0.00  0.00    +0.000 A 
ATOM      5  C   UNL     1       2.099   5.784  20.774  0.00  0.00    +0.000 A 
ATOM      6  C   UNL     1       1.917   7.020  20.128  0.00  0.00    +0.000 A 
ATOM      7 CL   UNL     1       1.309   8.305  21.110  0.00  0.00    +0.000 Cl
ENDROOT
BRANCH   3   8
ATOM      8  S   UNL     1       3.363   3.346  17.773  0.00  0.00    +0.000 S 
ATOM      9  O   UNL     1       3.509   2.259  18.716  0.00  0.00    +0.000 OA
ATOM     10  O   UNL     1       2.452   3.240  16.656  0.00  0.00    +0.000 OA
BRANCH   8  11
ATOM     11  N   UNL     1       4.918   3.726  17.162  0.00  0.00    +0.000 NA
ATOM     12  C   UNL     1       4.945   4.196  15.757  0.00  0.00    +0.000 C 
ATOM     13  C   UNL     1       6.378   4.281  15.244  0.00  0.00    +0.000 C 
ATOM     14  C   UNL     1       7.198   5.202  16.136  0.00  0.00    +0.000 C 
ATOM     15  C   UNL     1       7.230   4.606  17.532  0.00  0.00    +0.000 C 
ATOM     16  C   UNL     1       5.817   4.456  18.096  0.00  0.00    +0.000 C 
ENDBRANCH   8  11
ENDBRANCH   3   8
BRANCH   1  17
ATOM     17  C   UNL     1       2.170   8.468  18.055  0.00  0.00    +0.000 C 
ATOM     18  O   UNL     1       3.061   8.982  17.410  0.00  0.00    +0.000 OA
BRANCH  17  19
ATOM     19  O   UNL     1       0.903   8.959  18.127  0.00  0.00    +0.000 OA
BRANCH  19  20
ATOM     20  C   UNL     1       0.817  10.389  18.257  0.00  0.00    +0.000 C 
BRANCH  20  23
ATOM     21  C   UNL     1       1.119  12.234  20.543  0.00  0.00    +0.000 C 
ATOM     22  N   UNL     1      -0.173  11.596  20.277  0.00  0.00    +0.000 N 
ATOM     23  C   UNL     1      -0.367  10.721  19.193  0.00  0.00    +0.000 C 
ATOM     24  O   UNL     1      -1.454  10.189  18.933  0.00  0.00    +0.000 OA
BRANCH  22  25
ATOM     25  C   UNL     1      -1.262  11.945  21.186  0.00  0.00    +0.000 A 
ATOM     26  C   UNL     1      -2.319  12.790  20.821  0.00  0.00    +0.000 A 
ATOM     27  C   UNL     1      -3.352  13.131  21.705  0.00  0.00    +0.000 A 
ATOM     28  C   UNL     1      -3.365  12.627  22.992  0.00  0.00    +0.000 A 
ATOM     29  C   UNL     1      -2.336  11.789  23.393  0.00  0.00    +0.000 A 
ATOM     30  C   UNL     1      -1.307  11.446  22.500  0.00  0.00    +0.000 A 
ENDBRANCH  22  25
ENDBRANCH  20  23
ENDBRANCH  19  20
ENDBRANCH  17  19
ENDBRANCH   1  17
TORSDOF 7
ENDMDL
MODEL 3
REMARK VINA RESULT:      -7.6      3.143      8.865
REMARK  Name = 
REMARK  8 active torsions:
REMARK  status: ('A' for Active; 'I' for Inactive)
REMARK    1  A    between atoms: C_1  and  N_2
REMARK    2  A    between atoms: N_2  and  C_25
REMARK    3  A    between atoms: C_3  and  C_5
REMARK    4  A    between atoms: C_5  and  O_6
REMARK    5  A    between atoms: O_6  and  C_7
REMARK    6  A    between atoms: C_7  and  C_9
REMARK    7  A    between atoms: C_11  and  S_12
REMARK    8  A    between atoms: S_12  and  N_15
REMARK                            x       y       z     vdW  Elec       q    Type
REMARK                         _______ _______ _______ _____ _____    ______ ____
ROOT
ATOM      1  C   UNL     1       2.576   4.892  18.819  0.00  0.00    +0.000 A 
ATOM      2  C   UNL     1       3.612   5.428  18.017  0.00  0.00    +0.000 A 
ATOM      3  C   UNL     1       4.119   4.723  16.921  0.00  0.00    +0.000 A 
ATOM      4  C   UNL     1       3.567   3.495  16.569  0.00  0.00    +0.000 A 
ATOM      5  C   UNL     1       2.526   2.963  17.341  0.00  0.00    +0.000 A 
ATOM      6  C   UNL     1       2.029   3.651  18.463  0.00  0.00    +0.000 A 
ATOM      7 CL   UNL     1       0.731   2.885  19.307  0.00  0.00    +0.000 Cl
ENDROOT
BRANCH   3   8
ATOM      8  S   UNL     1       5.369   5.485  15.891  0.00  0.00    +0.000 S 
ATOM      9  O   UNL     1       5.795   4.477  14.944  0.00  0.00    +0.000 OA
ATOM     10  O   UNL     1       4.835   6.748  15.438  0.00  0.00    +0.000 OA
BRANCH   8  11
ATOM     11  N   UNL     1       6.683   5.806  16.943  0.00  0.00    +0.000 NA
ATOM     12  C   UNL     1       6.757   7.196  17.451  0.00  0.00    +0.000 C 
ATOM     13  C   UNL     1       8.075   7.434  18.180  0.00  0.00    +0.000 C 
ATOM     14  C   UNL     1       8.229   6.437  19.319  0.00  0.00    +0.000 C 
ATOM     15  C   UNL     1       8.263   5.040  18.724  0.00  0.00    +0.000 C 
ATOM     16  C   UNL     1       6.983   4.746  17.943  0.00  0.00    +0.000 C 
ENDBRANCH   8  11
ENDBRANCH   3   8
BRANCH   1  17
ATOM     17  C   UNL     1       2.185   5.602  20.084  0.00  0.00    +0.000 C 
ATOM     18  O   UNL     1       1.879   5.097  21.145  0.00  0.00    +0.000 OA
BRANCH  17  19
ATOM     19  O   UNL     1       2.368   6.938  19.901  0.00  0.00    +0.000 OA
BRANCH  19  20
ATOM     20  C   UNL     1       1.521   7.777  20.706  0.00  0.00    +0.000 C 
BRANCH  20  23
ATOM     21  C   UNL     1       0.242  10.112  21.985  0.00  0.00    +0.000 C 
ATOM     22  N   UNL     1       0.621  10.163  20.571  0.00  0.00    +0.000 N 
ATOM     23  C   UNL     1       1.244   9.080  19.923  0.00  0.00    +0.000 C 
ATOM     24  O   UNL     1       1.596   9.108  18.737  0.00  0.00    +0.000 OA
BRANCH  22  25
ATOM     25  C   UNL     1       0.344  11.417  19.876  0.00  0.00    +0.000 A 
ATOM     26  C   UNL     1      -0.828  11.637  19.138  0.00  0.00    +0.000 A 
ATOM     27  C   UNL     1      -1.078  12.839  18.462  0.00  0.00    +0.000 A 
ATOM     28  C   UNL     1      -0.161  13.872  18.508  0.00  0.00    +0.000 A 
ATOM     29  C   UNL     1       1.012  13.693  19.226  0.00  0.00    +0.000 A 
ATOM     30  C   UNL     1       1.255  12.488  19.906  0.00  0.00    +0.000 A 
ENDBRANCH  22  25
ENDBRANCH  20  23
ENDBRANCH  19  20
ENDBRANCH  17  19
ENDBRANCH   1  17
TORSDOF 7
ENDMDL
MODEL 4
REMARK VINA RESULT:      -7.5      3.124      8.707
REMARK  Name = 
REMARK  8 active torsions:
REMARK  status: ('A' for Active; 'I' for Inactive)
REMARK    1  A    between atoms: C_1  and  N_2
REMARK    2  A    between atoms: N_2  and  C_25
REMARK    3  A    between atoms: C_3  and  C_5
REMARK    4  A    between atoms: C_5  and  O_6
REMARK    5  A    between atoms: O_6  and  C_7
REMARK    6  A    between atoms: C_7  and  C_9
REMARK    7  A    between atoms: C_11  and  S_12
REMARK    8  A    between atoms: S_12  and  N_15
REMARK                            x       y       z     vdW  Elec       q    Type
REMARK                         _______ _______ _______ _____ _____    ______ ____
ROOT
ATOM      1  C   UNL     1       2.373   4.385  18.713  0.00  0.00    +0.000 A 
ATOM      2  C   UNL     1       3.501   4.868  18.006  0.00  0.00    +0.000 A 
ATOM      3  C   UNL     1       4.164   4.071  17.068  0.00  0.00    +0.000 A 
ATOM      4  C   UNL     1       3.686   2.797  16.775  0.00  0.00    +0.000 A 
ATOM      5  C   UNL     1       2.558   2.315  17.452  0.00  0.00    +0.000 A 
ATOM      6  C   UNL     1       1.900   3.098  18.418  0.00  0.00    +0.000 A 
ATOM      7 CL   UNL     1       0.511   2.383  19.155  0.00  0.00    +0.000 Cl
ENDROOT
BRANCH   3   8
ATOM      8  S   UNL     1       5.532   4.761  16.142  0.00  0.00    +0.000 S 
ATOM      9  O   UNL     1       6.414   3.659  15.823  0.00  0.00    +0.000 OA
ATOM     10  O   UNL     1       4.965   5.582  15.096  0.00  0.00    +0.000 OA
BRANCH   8  11
ATOM     11  N   UNL     1       6.348   5.787  17.245  0.00  0.00    +0.000 NA
ATOM     12  C   UNL     1       7.277   5.100  18.173  0.00  0.00    +0.000 C 
ATOM     13  C   UNL     1       7.767   6.059  19.253  0.00  0.00    +0.000 C 
ATOM     14  C   UNL     1       8.440   7.265  18.612  0.00  0.00    +0.000 C 
ATOM     15  C   UNL     1       7.408   7.991  17.769  0.00  0.00    +0.000 C 
ATOM     16  C   UNL     1       6.843   7.074  16.685  0.00  0.00    +0.000 C 
ENDBRANCH   8  11
ENDBRANCH   3   8
BRANCH   1  17
ATOM     17  C   UNL     1       1.802   5.207  19.832  0.00  0.00    +0.000 C 
ATOM     18  O   UNL     1       1.050   4.833  20.709  0.00  0.00    +0.000 OA
BRANCH  17  19
ATOM     19  O   UNL     1       2.380   6.438  19.801  0.00  0.00    +0.000 OA
BRANCH  19  20
ATOM     20  C   UNL     1       1.780   7.409  20.677  0.00  0.00    +0.000 C 
BRANCH  20  23
ATOM     21  C   UNL     1      -0.011   9.505  21.733  0.00  0.00    +0.000 C 
ATOM     22  N   UNL     1       0.538   9.619  20.379  0.00  0.00    +0.000 N 
ATOM     23  C   UNL     1       1.405   8.652  19.839  0.00  0.00    +0.000 C 
ATOM     24  O   UNL     1       1.902   8.738  18.709  0.00  0.00    +0.000 OA
BRANCH  22  25
ATOM     25  C   UNL     1       0.158  10.813  19.630  0.00  0.00    +0.000 A 
ATOM     26  C   UNL     1       0.929  11.985  19.619  0.00  0.00    +0.000 A 
ATOM     27  C   UNL     1       0.548  13.131  18.908  0.00  0.00    +0.000 A 
ATOM     28  C   UNL     1      -0.622  13.141  18.173  0.00  0.00    +0.000 A 
ATOM     29  C   UNL     1      -1.413  12.003  18.159  0.00  0.00    +0.000 A 
ATOM     30  C   UNL     1      -1.024  10.855  18.869  0.00  0.00    +0.000 A 
ENDBRANCH  22  25
ENDBRANCH  20  23
ENDBRANCH  19  20
ENDBRANCH  17  19
ENDBRANCH   1  17
TORSDOF 7
ENDMDL
MODEL 5
REMARK VINA RESULT:      -7.4      3.107      8.979
REMARK  Name = 
REMARK  8 active torsions:
REMARK  status: ('A' for Active; 'I' for Inactive)
REMARK    1  A    between atoms: C_1  and  N_2
REMARK    2  A    between atoms: N_2  and  C_25
REMARK    3  A    between atoms: C_3  and  C_5
REMARK    4  A    between atoms: C_5  and  O_6
REMARK    5  A    between atoms: O_6  and  C_7
REMARK    6  A    between atoms: C_7  and  C_9
REMARK    7  A    between atoms: C_11  and  S_12
REMARK    8  A    between atoms: S_12  and  N_15
REMARK                            x       y       z     vdW  Elec       q    Type
REMARK                         _______ _______ _______ _____ _____    ______ ____
ROOT
ATOM      1  C   UNL     1       2.640   4.496  18.742  0.00  0.00    +0.000 A 
ATOM      2  C   UNL     1       3.687   4.908  17.884  0.00  0.00    +0.000 A 
ATOM      3  C   UNL     1       4.285   4.016  16.989  0.00  0.00    +0.000 A 
ATOM      4  C   UNL     1       3.816   2.709  16.891  0.00  0.00    +0.000 A 
ATOM      5  C   UNL     1       2.766   2.294  17.720  0.00  0.00    +0.000 A 
ATOM      6  C   UNL     1       2.177   3.176  18.644  0.00  0.00    +0.000 A 
ATOM      7 CL   UNL     1       0.878   2.532  19.584  0.00  0.00    +0.000 Cl
ENDROOT
BRANCH   3   8
ATOM      8  S   UNL     1       5.547   4.612  15.867  0.00  0.00    +0.000 S 
ATOM      9  O   UNL     1       6.155   3.443  15.269  0.00  0.00    +0.000 OA
ATOM     10  O   UNL     1       4.936   5.632  15.045  0.00  0.00    +0.000 OA
BRANCH   8  11
ATOM     11  N   UNL     1       6.719   5.361  16.867  0.00  0.00    +0.000 NA
ATOM     12  C   UNL     1       6.563   6.826  17.032  0.00  0.00    +0.000 C 
ATOM     13  C   UNL     1       7.775   7.421  17.738  0.00  0.00    +0.000 C 
ATOM     14  C   UNL     1       7.977   6.746  19.087  0.00  0.00    +0.000 C 
ATOM     15  C   UNL     1       8.248   5.273  18.844  0.00  0.00    +0.000 C 
ATOM     16  C   UNL     1       7.084   4.617  18.102  0.00  0.00    +0.000 C 
ENDBRANCH   8  11
ENDBRANCH   3   8
BRANCH   1  17
ATOM     17  C   UNL     1       2.149   5.437  19.805  0.00  0.00    +0.000 C 
ATOM     18  O   UNL     1       2.104   5.234  21.001  0.00  0.00    +0.000 OA
BRANCH  17  19
ATOM     19  O   UNL     1       1.886   6.640  19.226  0.00  0.00    +0.000 OA
BRANCH  19  20
ATOM     20  C   UNL     1       2.274   7.783  20.010  0.00  0.00    +0.000 C 
BRANCH  20  23
ATOM     21  C   UNL     1       1.679   9.927  18.069  0.00  0.00    +0.000 C 
ATOM     22  N   UNL     1       0.805   9.719  19.227  0.00  0.00    +0.000 N 
ATOM     23  C   UNL     1       1.042   8.702  20.170  0.00  0.00    +0.000 C 
ATOM     24  O   UNL     1       0.305   8.490  21.142  0.00  0.00    +0.000 OA
BRANCH  22  25
ATOM     25  C   UNL     1      -0.347  10.609  19.331  0.00  0.00    +0.000 A 
ATOM     26  C   UNL     1      -0.432  11.640  20.278  0.00  0.00    +0.000 A 
ATOM     27  C   UNL     1      -1.550  12.480  20.380  0.00  0.00    +0.000 A 
ATOM     28  C   UNL     1      -2.625  12.320  19.526  0.00  0.00    +0.000 A 
ATOM     29  C   UNL     1      -2.581  11.310  18.577  0.00  0.00    +0.000 A 
ATOM     30  C   UNL     1      -1.456  10.475  18.476  0.00  0.00    +0.000 A 
ENDBRANCH  22  25
ENDBRANCH  20  23
ENDBRANCH  19  20
ENDBRANCH  17  19
ENDBRANCH   1  17
TORSDOF 7
ENDMDL
MODEL 6
REMARK VINA RESULT:      -7.4      2.699      9.824
REMARK  Name = 
REMARK  8 active torsions:
REMARK  status: ('A' for Active; 'I' for Inactive)
REMARK    1  A    between atoms: C_1  and  N_2
REMARK    2  A    between atoms: N_2  and  C_25
REMARK    3  A    between atoms: C_3  and  C_5
REMARK    4  A    between atoms: C_5  and  O_6
REMARK    5  A    between atoms: O_6  and  C_7
REMARK    6  A    between atoms: C_7  and  C_9
REMARK    7  A    between atoms: C_11  and  S_12
REMARK    8  A    between atoms: S_12  and  N_15
REMARK                            x       y       z     vdW  Elec       q    Type
REMARK                         _______ _______ _______ _____ _____    ______ ____
ROOT
ATOM      1  C   UNL     1       2.035   7.526  18.877  0.00  0.00    +0.000 A 
ATOM      2  C   UNL     1       2.592   6.440  18.158  0.00  0.00    +0.000 A 
ATOM      3  C   UNL     1       2.844   5.213  18.779  0.00  0.00    +0.000 A 
ATOM      4  C   UNL     1       2.496   5.024  20.113  0.00  0.00    +0.000 A 
ATOM      5  C   UNL     1       1.925   6.083  20.830  0.00  0.00    +0.000 A 
ATOM      6  C   UNL     1       1.694   7.331  20.223  0.00  0.00    +0.000 A 
ATOM      7 CL   UNL     1       0.964   8.536  21.222  0.00  0.00    +0.000 Cl
ENDROOT
BRANCH   3   8
ATOM      8  S   UNL     1       3.468   3.848  17.802  0.00  0.00    +0.000 S 
ATOM      9  O   UNL     1       4.051   2.906  18.734  0.00  0.00    +0.000 OA
ATOM     10  O   UNL     1       2.407   3.445  16.908  0.00  0.00    +0.000 OA
BRANCH   8  11
ATOM     11  N   UNL     1       4.737   4.513  16.863  0.00  0.00    +0.000 NA
ATOM     12  C   UNL     1       6.008   4.738  17.591  0.00  0.00    +0.000 C 
ATOM     13  C   UNL     1       6.985   5.539  16.737  0.00  0.00    +0.000 C 
ATOM     14  C   UNL     1       7.239   4.818  15.420  0.00  0.00    +0.000 C 
ATOM     15  C   UNL     1       5.922   4.724  14.670  0.00  0.00    +0.000 C 
ATOM     16  C   UNL     1       4.880   3.963  15.488  0.00  0.00    +0.000 C 
ENDBRANCH   8  11
ENDBRANCH   3   8
BRANCH   1  17
ATOM     17  C   UNL     1       1.946   8.872  18.218  0.00  0.00    +0.000 C 
ATOM     18  O   UNL     1       2.806   9.431  17.569  0.00  0.00    +0.000 OA
BRANCH  17  19
ATOM     19  O   UNL     1       0.669   9.327  18.341  0.00  0.00    +0.000 OA
BRANCH  19  20
ATOM     20  C   UNL     1       0.543  10.758  18.415  0.00  0.00    +0.000 C 
BRANCH  20  23
ATOM     21  C   UNL     1       0.809  12.405  20.851  0.00  0.00    +0.000 C 
ATOM     22  N   UNL     1      -0.499  11.871  20.463  0.00  0.00    +0.000 N 
ATOM     23  C   UNL     1      -0.675  11.093  19.304  0.00  0.00    +0.000 C 
ATOM     24  O   UNL     1      -1.773  10.651  18.941  0.00  0.00    +0.000 OA
BRANCH  22  25
ATOM     25  C   UNL     1      -1.619  12.218  21.332  0.00  0.00    +0.000 A 
ATOM     26  C   UNL     1      -2.635  13.106  20.949  0.00  0.00    +0.000 A 
ATOM     27  C   UNL     1      -3.699  13.445  21.797  0.00  0.00    +0.000 A 
ATOM     28  C   UNL     1      -3.787  12.897  23.062  0.00  0.00    +0.000 A 
ATOM     29  C   UNL     1      -2.801  12.016  23.479  0.00  0.00    +0.000 A 
ATOM     30  C   UNL     1      -1.740  11.676  22.624  0.00  0.00    +0.000 A 
ENDBRANCH  22  25
ENDBRANCH  20  23
ENDBRANCH  19  20
ENDBRANCH  17  19
ENDBRANCH   1  17
TORSDOF 7
ENDMDL
MODEL 7
REMARK VINA RESULT:      -7.4      2.606      9.347
REMARK  Name = 
REMARK  8 active torsions:
REMARK  status: ('A' for Active; 'I' for Inactive)
REMARK    1  A    between atoms: C_1  and  N_2
REMARK    2  A    between atoms: N_2  and  C_25
REMARK    3  A    between atoms: C_3  and  C_5
REMARK    4  A    between atoms: C_5  and  O_6
REMARK    5  A    between atoms: O_6  and  C_7
REMARK    6  A    between atoms: C_7  and  C_9
REMARK    7  A    between atoms: C_11  and  S_12
REMARK    8  A    between atoms: S_12  and  N_15
REMARK                            x       y       z     vdW  Elec       q    Type
REMARK                         _______ _______ _______ _____ _____    ______ ____
ROOT
ATOM      1  C   UNL     1       2.070   7.176  19.069  0.00  0.00    +0.000 A 
ATOM      2  C   UNL     1       2.572   6.084  18.321  0.00  0.00    +0.000 A 
ATOM      3  C   UNL     1       2.762   4.829  18.907  0.00  0.00    +0.000 A 
ATOM      4  C   UNL     1       2.403   4.621  20.236  0.00  0.00    +0.000 A 
ATOM      5  C   UNL     1       1.884   5.687  20.982  0.00  0.00    +0.000 A 
ATOM      6  C   UNL     1       1.717   6.961  20.409  0.00  0.00    +0.000 A 
ATOM      7 CL   UNL     1       1.047   8.174  21.441  0.00  0.00    +0.000 Cl
ENDROOT
BRANCH   3   8
ATOM      8  S   UNL     1       3.319   3.462  17.894  0.00  0.00    +0.000 S 
ATOM      9  O   UNL     1       3.485   2.330  18.781  0.00  0.00    +0.000 OA
ATOM     10  O   UNL     1       2.431   3.387  16.756  0.00  0.00    +0.000 OA
BRANCH   8  11
ATOM     11  N   UNL     1       4.871   3.923  17.333  0.00  0.00    +0.000 NA
ATOM     12  C   UNL     1       4.888   4.603  16.016  0.00  0.00    +0.000 C 
ATOM     13  C   UNL     1       6.317   4.758  15.508  0.00  0.00    +0.000 C 
ATOM     14  C   UNL     1       7.150   5.528  16.522  0.00  0.00    +0.000 C 
ATOM     15  C   UNL     1       7.192   4.725  17.810  0.00  0.00    +0.000 C 
ATOM     16  C   UNL     1       5.783   4.498  18.358  0.00  0.00    +0.000 C 
ENDBRANCH   8  11
ENDBRANCH   3   8
BRANCH   1  17
ATOM     17  C   UNL     1       2.048   8.542  18.448  0.00  0.00    +0.000 C 
ATOM     18  O   UNL     1       2.286   8.828  17.291  0.00  0.00    +0.000 OA
BRANCH  17  19
ATOM     19  O   UNL     1       1.569   9.425  19.366  0.00  0.00    +0.000 OA
BRANCH  19  20
ATOM     20  C   UNL     1       1.105  10.672  18.819  0.00  0.00    +0.000 C 
BRANCH  20  23
ATOM     21  C   UNL     1      -0.470  13.067  18.109  0.00  0.00    +0.000 C 
ATOM     22  N   UNL     1      -1.149  11.820  18.474  0.00  0.00    +0.000 N 
ATOM     23  C   UNL     1      -0.439  10.651  18.806  0.00  0.00    +0.000 C 
ATOM     24  O   UNL     1      -0.989   9.580  19.093  0.00  0.00    +0.000 OA
BRANCH  22  25
ATOM     25  C   UNL     1      -2.608  11.850  18.443  0.00  0.00    +0.000 A 
ATOM     26  C   UNL     1      -3.386  12.284  19.525  0.00  0.00    +0.000 A 
ATOM     27  C   UNL     1      -4.787  12.295  19.491  0.00  0.00    +0.000 A 
ATOM     28  C   UNL     1      -5.462  11.875  18.360  0.00  0.00    +0.000 A 
ATOM     29  C   UNL     1      -4.729  11.436  17.268  0.00  0.00    +0.000 A 
ATOM     30  C   UNL     1      -3.325  11.433  17.306  0.00  0.00    +0.000 A 
ENDBRANCH  22  25
ENDBRANCH  20  23
ENDBRANCH  19  20
ENDBRANCH  17  19
ENDBRANCH   1  17
TORSDOF 7
ENDMDL
MODEL 8
REMARK VINA RESULT:      -7.3      2.574      9.545
REMARK  Name = 
REMARK  8 active torsions:
REMARK  status: ('A' for Active; 'I' for Inactive)
REMARK    1  A    between atoms: C_1  and  N_2
REMARK    2  A    between atoms: N_2  and  C_25
REMARK    3  A    between atoms: C_3  and  C_5
REMARK    4  A    between atoms: C_5  and  O_6
REMARK    5  A    between atoms: O_6  and  C_7
REMARK    6  A    between atoms: C_7  and  C_9
REMARK    7  A    between atoms: C_11  and  S_12
REMARK    8  A    between atoms: S_12  and  N_15
REMARK                            x       y       z     vdW  Elec       q    Type
REMARK                         _______ _______ _______ _____ _____    ______ ____
ROOT
ATOM      1  C   UNL     1       1.663   8.263  19.021  0.00  0.00    +0.000 A 
ATOM      2  C   UNL     1       2.179   7.136  18.338  0.00  0.00    +0.000 A 
ATOM      3  C   UNL     1       2.474   5.949  19.016  0.00  0.00    +0.000 A 
ATOM      4  C   UNL     1       2.210   5.842  20.378  0.00  0.00    +0.000 A 
ATOM      5  C   UNL     1       1.679   6.943  21.063  0.00  0.00    +0.000 A 
ATOM      6  C   UNL     1       1.406   8.151  20.395  0.00  0.00    +0.000 A 
ATOM      7 CL   UNL     1       0.734   9.415  21.362  0.00  0.00    +0.000 Cl
ENDROOT
BRANCH   3   8
ATOM      8  S   UNL     1       3.044   4.527  18.089  0.00  0.00    +0.000 S 
ATOM      9  O   UNL     1       3.550   3.577  19.057  0.00  0.00    +0.000 OA
ATOM     10  O   UNL     1       1.984   4.162  17.177  0.00  0.00    +0.000 OA
BRANCH   8  11
ATOM     11  N   UNL     1       4.371   5.096  17.166  0.00  0.00    +0.000 NA
ATOM     12  C   UNL     1       5.500   5.641  17.957  0.00  0.00    +0.000 C 
ATOM     13  C   UNL     1       6.514   6.326  17.048  0.00  0.00    +0.000 C 
ATOM     14  C   UNL     1       7.017   5.347  15.997  0.00  0.00    +0.000 C 
ATOM     15  C   UNL     1       5.836   4.916  15.146  0.00  0.00    +0.000 C 
ATOM     16  C   UNL     1       4.757   4.253  16.003  0.00  0.00    +0.000 C 
ENDBRANCH   8  11
ENDBRANCH   3   8
BRANCH   1  17
ATOM     17  C   UNL     1       1.527   9.566  18.288  0.00  0.00    +0.000 C 
ATOM     18  O   UNL     1       2.319  10.057  17.510  0.00  0.00    +0.000 OA
BRANCH  17  19
ATOM     19  O   UNL     1       0.283  10.064  18.522  0.00  0.00    +0.000 OA
BRANCH  19  20
ATOM     20  C   UNL     1      -0.658   9.861  17.453  0.00  0.00    +0.000 C 
BRANCH  20  23
ATOM     21  C   UNL     1      -3.035   9.715  15.707  0.00  0.00    +0.000 C 
ATOM     22  N   UNL     1      -3.122  10.368  17.016  0.00  0.00    +0.000 N 
ATOM     23  C   UNL     1      -2.020  10.450  17.886  0.00  0.00    +0.000 C 
ATOM     24  O   UNL     1      -2.074  10.973  19.006  0.00  0.00    +0.000 OA
BRANCH  22  25
ATOM     25  C   UNL     1      -4.430  10.904  17.382  0.00  0.00    +0.000 A 
ATOM     26  C   UNL     1      -4.956  12.080  16.827  0.00  0.00    +0.000 A 
ATOM     27  C   UNL     1      -6.206  12.594  17.196  0.00  0.00    +0.000 A 
ATOM     28  C   UNL     1      -6.982  11.940  18.134  0.00  0.00    +0.000 A 
ATOM     29  C   UNL     1      -6.497  10.775  18.708  0.00  0.00    +0.000 A 
ATOM     30  C   UNL     1      -5.246  10.261  18.331  0.00  0.00    +0.000 A 
ENDBRANCH  22  25
ENDBRANCH  20  23
ENDBRANCH  19  20
ENDBRANCH  17  19
ENDBRANCH   1  17
TORSDOF 7
ENDMDL
MODEL 9
REMARK VINA RESULT:      -7.3      2.722      9.732
REMARK  Name = 
REMARK  8 active torsions:
REMARK  status: ('A' for Active; 'I' for Inactive)
REMARK    1  A    between atoms: C_1  and  N_2
REMARK    2  A    between atoms: N_2  and  C_25
REMARK    3  A    between atoms: C_3  and  C_5
REMARK    4  A    between atoms: C_5  and  O_6
REMARK    5  A    between atoms: O_6  and  C_7
REMARK    6  A    between atoms: C_7  and  C_9
REMARK    7  A    between atoms: C_11  and  S_12
REMARK    8  A    between atoms: S_12  and  N_15
REMARK                            x       y       z     vdW  Elec       q    Type
REMARK                         _______ _______ _______ _____ _____    ______ ____
ROOT
ATOM      1  C   UNL     1       2.203   7.176  18.819  0.00  0.00    +0.000 A 
ATOM      2  C   UNL     1       2.602   6.030  18.089  0.00  0.00    +0.000 A 
ATOM      3  C   UNL     1       2.833   4.808  18.727  0.00  0.00    +0.000 A 
ATOM      4  C   UNL     1       2.618   4.687  20.097  0.00  0.00    +0.000 A 
ATOM      5  C   UNL     1       2.202   5.807  20.828  0.00  0.00    +0.000 A 
ATOM      6  C   UNL     1       1.995   7.049  20.199  0.00  0.00    +0.000 A 
ATOM      7 CL   UNL     1       1.463   8.336  21.222  0.00  0.00    +0.000 Cl
ENDROOT
BRANCH   3   8
ATOM      8  S   UNL     1       3.253   3.371  17.745  0.00  0.00    +0.000 S 
ATOM      9  O   UNL     1       3.387   2.264  18.667  0.00  0.00    +0.000 OA
ATOM     10  O   UNL     1       2.310   3.314  16.651  0.00  0.00    +0.000 OA
BRANCH   8  11
ATOM     11  N   UNL     1       4.803   3.708  17.097  0.00  0.00    +0.000 NA
ATOM     12  C   UNL     1       4.808   4.205  15.701  0.00  0.00    +0.000 C 
ATOM     13  C   UNL     1       6.228   4.249  15.149  0.00  0.00    +0.000 C 
ATOM     14  C   UNL     1       7.105   5.123  16.035  0.00  0.00    +0.000 C 
ATOM     15  C   UNL     1       7.155   4.497  17.417  0.00  0.00    +0.000 C 
ATOM     16  C   UNL     1       5.754   4.386  18.018  0.00  0.00    +0.000 C 
ENDBRANCH   8  11
ENDBRANCH   3   8
BRANCH   1  17
ATOM     17  C   UNL     1       2.137   8.504  18.121  0.00  0.00    +0.000 C 
ATOM     18  O   UNL     1       3.046   9.088  17.567  0.00  0.00    +0.000 OA
BRANCH  17  19
ATOM     19  O   UNL     1       0.837   8.902  18.076  0.00  0.00    +0.000 OA
BRANCH  19  20
ATOM     20  C   UNL     1       0.637  10.322  18.192  0.00  0.00    +0.000 C 
BRANCH  20  23
ATOM     21  C   UNL     1      -0.228  13.053  18.910  0.00  0.00    +0.000 C 
ATOM     22  N   UNL     1      -0.744  11.898  19.650  0.00  0.00    +0.000 N 
ATOM     23  C   UNL     1      -0.371  10.579  19.334  0.00  0.00    +0.000 C 
ATOM     24  O   UNL     1      -0.812   9.586  19.927  0.00  0.00    +0.000 OA
BRANCH  22  25
ATOM     25  C   UNL     1      -1.697  12.192  20.716  0.00  0.00    +0.000 A 
ATOM     26  C   UNL     1      -1.414  11.978  22.073  0.00  0.00    +0.000 A 
ATOM     27  C   UNL     1      -2.341  12.249  23.089  0.00  0.00    +0.000 A 
ATOM     28  C   UNL     1      -3.589  12.755  22.779  0.00  0.00    +0.000 A 
ATOM     29  C   UNL     1      -3.909  12.978  21.449  0.00  0.00    +0.000 A 
ATOM     30  C   UNL     1      -2.974  12.710  20.436  0.00  0.00    +0.000 A 
ENDBRANCH  22  25
ENDBRANCH  20  23
ENDBRANCH  19  20
ENDBRANCH  17  19
ENDBRANCH   1  17
TORSDOF 7
ENDMDL
