MODEL 1
REMARK VINA RESULT:      -7.9      0.000      0.000
REMARK  Name = 
REMARK  7 active torsions:
REMARK  status: ('A' for Active; 'I' for Inactive)
REMARK    1  A    between atoms: C_1  and  C_2
REMARK    2  A    between atoms: C_2  and  C_4
REMARK    3  A    between atoms: C_5  and  N_6
REMARK    4  A    between atoms: N_6  and  C_7
REMARK    5  A    between atoms: C_21  and  O_22
REMARK    6  A    between atoms: C_25  and  C_26
REMARK    7  A    between atoms: C_30  and  C_31
REMARK                            x       y       z     vdW  Elec       q    Type
REMARK                         _______ _______ _______ _____ _____    ______ ____
ROOT
ATOM      1  C   UNL     1       3.690   3.970  19.320  0.00  0.00    +0.000 C 
ATOM      2  C   UNL     1       4.058   4.180  17.809  0.00  0.00    +0.000 C 
ATOM      3  C   UNL     1       3.382   5.514  17.411  0.00  0.00    +0.000 C 
ATOM      4  C   UNL     1       3.064   6.175  18.735  0.00  0.00    +0.000 C 
ATOM      5  C   UNL     1       2.129   7.378  18.678  0.00  0.00    +0.000 C 
ATOM      6  C   UNL     1       2.707   8.471  17.764  0.00  0.00    +0.000 C 
ATOM      7  C   UNL     1       2.005   9.777  17.894  0.00  0.00    +0.000 C 
ATOM      8  C   UNL     1       1.170  10.089  18.906  0.00  0.00    +0.000 C 
ATOM      9  C   UNL     1       0.475  11.430  18.919  0.00  0.00    +0.000 C 
ATOM     10  C   UNL     1       0.641  12.152  20.257  0.00  0.00    +0.000 C 
ATOM     11  C   UNL     1       0.265  11.253  21.432  0.00  0.00    +0.000 C 
ATOM     12  C   UNL     1       1.045   9.939  21.405  0.00  0.00    +0.000 C 
ATOM     13  C   UNL     1       0.888   9.138  20.081  0.00  0.00    +0.000 C 
ATOM     14  C   UNL     1      -0.567   8.630  19.941  0.00  0.00    +0.000 C 
ATOM     15  C   UNL     1       1.914   7.934  20.106  0.00  0.00    +0.000 C 
ATOM     16  C   UNL     1       1.587   6.814  21.139  0.00  0.00    +0.000 C 
ATOM     17  C   UNL     1       2.490   5.562  21.041  0.00  0.00    +0.000 C 
ATOM     18  C   UNL     1       2.558   5.016  19.603  0.00  0.00    +0.000 C 
ATOM     19  C   UNL     1       1.163   4.494  19.158  0.00  0.00    +0.000 C 
ENDROOT
BRANCH   1  21
ATOM     20  C   UNL     1       3.312   1.458  18.666  0.00  0.00    +0.000 C 
ATOM     21  C   UNL     1       3.332   2.535  19.712  0.00  0.00    +0.000 C 
ATOM     22  O   UNL     1       3.193   2.214  20.907  0.00  0.00    +0.000 OA
ENDBRANCH   1  21
BRANCH   2  23
ATOM     23  N   UNL     1       5.532   4.273  17.632  0.00  0.00    +0.000 N 
ATOM     24  H   UNL     1       6.019   3.506  18.097  0.00  0.00    +0.000 HD
BRANCH  23  25
ATOM     25  C   UNL     1       6.023   4.398  16.312  0.00  0.00    +0.000 A 
ATOM     26  C   UNL     1       5.358   3.771  15.242  0.00  0.00    +0.000 A 
ATOM     27  C   UNL     1       5.851   3.840  13.930  0.00  0.00    +0.000 A 
ATOM     28  C   UNL     1       6.959   4.626  13.653  0.00  0.00    +0.000 A 
ATOM     29 CL   UNL     1       7.524   4.773  12.036  0.00  0.00    +0.000 Cl
ATOM     30  C   UNL     1       7.589   5.322  14.679  0.00  0.00    +0.000 A 
ATOM     31  C   UNL     1       7.121   5.202  15.995  0.00  0.00    +0.000 A 
ENDBRANCH  23  25
ENDBRANCH   2  23
BRANCH  10  32
ATOM     32  O   UNL     1      -0.172  13.324  20.280  0.00  0.00    +0.000 OA
ATOM     33  H   UNL     1      -0.980  13.136  19.772  0.00  0.00    +0.000 HD
ENDBRANCH  10  32
TORSDOF 4
ENDMDL
MODEL 2
REMARK VINA RESULT:      -7.9      0.610      1.134
REMARK  Name = 
REMARK  7 active torsions:
REMARK  status: ('A' for Active; 'I' for Inactive)
REMARK    1  A    between atoms: C_1  and  C_2
REMARK    2  A    between atoms: C_2  and  C_4
REMARK    3  A    between atoms: C_5  and  N_6
REMARK    4  A    between atoms: N_6  and  C_7
REMARK    5  A    between atoms: C_21  and  O_22
REMARK    6  A    between atoms: C_25  and  C_26
REMARK    7  A    between atoms: C_30  and  C_31
REMARK                            x       y       z     vdW  Elec       q    Type
REMARK                         _______ _______ _______ _____ _____    ______ ____
ROOT
ATOM      1  C   UNL     1       3.431   4.001  19.621  0.00  0.00    +0.000 C 
ATOM      2  C   UNL     1       3.876   4.111  18.120  0.00  0.00    +0.000 C 
ATOM      3  C   UNL     1       3.291   5.454  17.623  0.00  0.00    +0.000 C 
ATOM      4  C   UNL     1       2.953   6.202  18.895  0.00  0.00    +0.000 C 
ATOM      5  C   UNL     1       2.088   7.447  18.733  0.00  0.00    +0.000 C 
ATOM      6  C   UNL     1       2.765   8.457  17.792  0.00  0.00    +0.000 C 
ATOM      7  C   UNL     1       2.130   9.804  17.823  0.00  0.00    +0.000 C 
ATOM      8  C   UNL     1       1.270  10.213  18.777  0.00  0.00    +0.000 C 
ATOM      9  C   UNL     1       0.649  11.587  18.689  0.00  0.00    +0.000 C 
ATOM     10  C   UNL     1       0.796  12.370  19.995  0.00  0.00    +0.000 C 
ATOM     11  C   UNL     1       0.320  11.557  21.196  0.00  0.00    +0.000 C 
ATOM     12  C   UNL     1       1.027  10.204  21.272  0.00  0.00    +0.000 C 
ATOM     13  C   UNL     1       0.885   9.342  19.985  0.00  0.00    +0.000 C 
ATOM     14  C   UNL     1      -0.588   8.904  19.804  0.00  0.00    +0.000 C 
ATOM     15  C   UNL     1       1.841   8.089  20.120  0.00  0.00    +0.000 C 
ATOM     16  C   UNL     1       1.409   7.045  21.192  0.00  0.00    +0.000 C 
ATOM     17  C   UNL     1       2.246   5.744  21.201  0.00  0.00    +0.000 C 
ATOM     18  C   UNL     1       2.347   5.119  19.797  0.00  0.00    +0.000 C 
ATOM     19  C   UNL     1       0.946   4.648  19.315  0.00  0.00    +0.000 C 
ENDROOT
BRANCH   1  21
ATOM     20  C   UNL     1       2.608   2.371  21.504  0.00  0.00    +0.000 C 
ATOM     21  C   UNL     1       2.979   2.611  20.069  0.00  0.00    +0.000 C 
ATOM     22  O   UNL     1       2.778   1.705  19.237  0.00  0.00    +0.000 OA
ENDBRANCH   1  21
BRANCH   2  23
ATOM     23  N   UNL     1       5.359   4.117  18.007  0.00  0.00    +0.000 N 
ATOM     24  H   UNL     1       5.772   3.268  18.394  0.00  0.00    +0.000 HD
BRANCH  23  25
ATOM     25  C   UNL     1       5.914   4.359  16.729  0.00  0.00    +0.000 A 
ATOM     26  C   UNL     1       6.977   5.267  16.574  0.00  0.00    +0.000 A 
ATOM     27  C   UNL     1       7.512   5.561  15.310  0.00  0.00    +0.000 A 
ATOM     28  C   UNL     1       7.062   4.871  14.196  0.00  0.00    +0.000 A 
ATOM     29 CL   UNL     1       7.765   5.173  12.656  0.00  0.00    +0.000 Cl
ATOM     30  C   UNL     1       6.067   3.909  14.332  0.00  0.00    +0.000 A 
ATOM     31  C   UNL     1       5.500   3.662  15.590  0.00  0.00    +0.000 A 
ENDBRANCH  23  25
ENDBRANCH   2  23
BRANCH  10  32
ATOM     32  O   UNL     1       0.048  13.583  19.920  0.00  0.00    +0.000 OA
ATOM     33  H   UNL     1      -0.645  13.464  19.248  0.00  0.00    +0.000 HD
ENDBRANCH  10  32
TORSDOF 4
ENDMDL
MODEL 3
REMARK VINA RESULT:      -7.9      4.502      9.930
REMARK  Name = 
REMARK  7 active torsions:
REMARK  status: ('A' for Active; 'I' for Inactive)
REMARK    1  A    between atoms: C_1  and  C_2
REMARK    2  A    between atoms: C_2  and  C_4
REMARK    3  A    between atoms: C_5  and  N_6
REMARK    4  A    between atoms: N_6  and  C_7
REMARK    5  A    between atoms: C_21  and  O_22
REMARK    6  A    between atoms: C_25  and  C_26
REMARK    7  A    between atoms: C_30  and  C_31
REMARK                            x       y       z     vdW  Elec       q    Type
REMARK                         _______ _______ _______ _____ _____    ______ ____
ROOT
ATOM      1  C   UNL     1       0.455  11.243  19.534  0.00  0.00    +0.000 C 
ATOM      2  C   UNL     1      -0.460  10.863  20.751  0.00  0.00    +0.000 C 
ATOM      3  C   UNL     1      -0.283   9.336  20.929  0.00  0.00    +0.000 C 
ATOM      4  C   UNL     1       0.978   9.019  20.153  0.00  0.00    +0.000 C 
ATOM      5  C   UNL     1       1.257   7.543  19.897  0.00  0.00    +0.000 C 
ATOM      6  C   UNL     1       1.348   6.771  21.224  0.00  0.00    +0.000 C 
ATOM      7  C   UNL     1       1.907   5.400  21.069  0.00  0.00    +0.000 C 
ATOM      8  C   UNL     1       2.559   4.970  19.969  0.00  0.00    +0.000 C 
ATOM      9  C   UNL     1       3.049   3.543  19.899  0.00  0.00    +0.000 C 
ATOM     10  C   UNL     1       4.522   3.460  19.494  0.00  0.00    +0.000 C 
ATOM     11  C   UNL     1       4.806   4.270  18.232  0.00  0.00    +0.000 C 
ATOM     12  C   UNL     1       4.349   5.721  18.383  0.00  0.00    +0.000 C 
ATOM     13  C   UNL     1       2.848   5.875  18.760  0.00  0.00    +0.000 C 
ATOM     14  C   UNL     1       1.958   5.397  17.587  0.00  0.00    +0.000 C 
ATOM     15  C   UNL     1       2.576   7.395  19.100  0.00  0.00    +0.000 C 
ATOM     16  C   UNL     1       2.649   8.365  17.883  0.00  0.00    +0.000 C 
ATOM     17  C   UNL     1       2.214   9.817  18.188  0.00  0.00    +0.000 C 
ATOM     18  C   UNL     1       0.841   9.871  18.884  0.00  0.00    +0.000 C 
ATOM     19  C   UNL     1      -0.268   9.352  17.927  0.00  0.00    +0.000 C 
ENDROOT
BRANCH   1  21
ATOM     20  C   UNL     1      -1.619  12.244  18.279  0.00  0.00    +0.000 C 
ATOM     21  C   UNL     1      -0.143  12.256  18.557  0.00  0.00    +0.000 C 
ATOM     22  O   UNL     1       0.548  13.183  18.093  0.00  0.00    +0.000 OA
ENDBRANCH   1  21
BRANCH   2  23
ATOM     23  N   UNL     1      -0.031  11.582  21.981  0.00  0.00    +0.000 N 
ATOM     24  H   UNL     1       0.829  12.110  21.831  0.00  0.00    +0.000 HD
BRANCH  23  25
ATOM     25  C   UNL     1      -0.982  12.419  22.611  0.00  0.00    +0.000 A 
ATOM     26  C   UNL     1      -0.753  13.802  22.719  0.00  0.00    +0.000 A 
ATOM     27  C   UNL     1      -1.657  14.646  23.383  0.00  0.00    +0.000 A 
ATOM     28  C   UNL     1      -2.855  14.133  23.854  0.00  0.00    +0.000 A 
ATOM     29 CL   UNL     1      -4.000  15.175  24.602  0.00  0.00    +0.000 Cl
ATOM     30  C   UNL     1      -3.144  12.783  23.689  0.00  0.00    +0.000 A 
ATOM     31  C   UNL     1      -2.210  11.938  23.074  0.00  0.00    +0.000 A 
ENDBRANCH  23  25
ENDBRANCH   2  23
BRANCH  10  32
ATOM     32  O   UNL     1       4.888   2.099  19.273  0.00  0.00    +0.000 OA
ATOM     33  H   UNL     1       5.839   2.075  19.067  0.00  0.00    +0.000 HD
ENDBRANCH  10  32
TORSDOF 4
ENDMDL
MODEL 4
REMARK VINA RESULT:      -7.4      1.857      2.283
REMARK  Name = 
REMARK  7 active torsions:
REMARK  status: ('A' for Active; 'I' for Inactive)
REMARK    1  A    between atoms: C_1  and  C_2
REMARK    2  A    between atoms: C_2  and  C_4
REMARK    3  A    between atoms: C_5  and  N_6
REMARK    4  A    between atoms: N_6  and  C_7
REMARK    5  A    between atoms: C_21  and  O_22
REMARK    6  A    between atoms: C_25  and  C_26
REMARK    7  A    between atoms: C_30  and  C_31
REMARK                            x       y       z     vdW  Elec       q    Type
REMARK                         _______ _______ _______ _____ _____    ______ ____
ROOT
ATOM      1  C   UNL     1       3.894   3.666  19.036  0.00  0.00    +0.000 C 
ATOM      2  C   UNL     1       4.282   3.900  17.534  0.00  0.00    +0.000 C 
ATOM      3  C   UNL     1       3.644   5.259  17.158  0.00  0.00    +0.000 C 
ATOM      4  C   UNL     1       3.330   5.900  18.494  0.00  0.00    +0.000 C 
ATOM      5  C   UNL     1       2.426   7.126  18.455  0.00  0.00    +0.000 C 
ATOM      6  C   UNL     1       3.041   8.224  17.570  0.00  0.00    +0.000 C 
ATOM      7  C   UNL     1       2.371   9.545  17.722  0.00  0.00    +0.000 C 
ATOM      8  C   UNL     1       1.534   9.856  18.733  0.00  0.00    +0.000 C 
ATOM      9  C   UNL     1       0.874  11.214  18.769  0.00  0.00    +0.000 C 
ATOM     10  C   UNL     1       1.045  11.902  20.124  0.00  0.00    +0.000 C 
ATOM     11  C   UNL     1       0.635  10.988  21.276  0.00  0.00    +0.000 C 
ATOM     12  C   UNL     1       1.381   9.655  21.227  0.00  0.00    +0.000 C 
ATOM     13  C   UNL     1       1.217   8.887  19.885  0.00  0.00    +0.000 C 
ATOM     14  C   UNL     1      -0.250   8.420  19.720  0.00  0.00    +0.000 C 
ATOM     15  C   UNL     1       2.211   7.657  19.893  0.00  0.00    +0.000 C 
ATOM     16  C   UNL     1       1.846   6.523  20.898  0.00  0.00    +0.000 C 
ATOM     17  C   UNL     1       2.718   5.252  20.781  0.00  0.00    +0.000 C 
ATOM     18  C   UNL     1       2.786   4.735  19.331  0.00  0.00    +0.000 C 
ATOM     19  C   UNL     1       1.383   4.259  18.863  0.00  0.00    +0.000 C 
ENDROOT
BRANCH   1  21
ATOM     20  C   UNL     1       3.553   1.159  18.345  0.00  0.00    +0.000 C 
ATOM     21  C   UNL     1       3.496   2.233  19.393  0.00  0.00    +0.000 C 
ATOM     22  O   UNL     1       3.258   1.910  20.573  0.00  0.00    +0.000 OA
ENDBRANCH   1  21
BRANCH   2  23
ATOM     23  N   UNL     1       5.760   3.959  17.372  0.00  0.00    +0.000 N 
ATOM     24  H   UNL     1       6.060   3.567  16.479  0.00  0.00    +0.000 HD
BRANCH  23  25
ATOM     25  C   UNL     1       6.386   5.212  17.560  0.00  0.00    +0.000 A 
ATOM     26  C   UNL     1       7.241   5.425  18.657  0.00  0.00    +0.000 A 
ATOM     27  C   UNL     1       7.836   6.674  18.892  0.00  0.00    +0.000 A 
ATOM     28  C   UNL     1       7.668   7.698  17.975  0.00  0.00    +0.000 A 
ATOM     29 CL   UNL     1       8.454   9.208  18.220  0.00  0.00    +0.000 Cl
ATOM     30  C   UNL     1       6.892   7.491  16.840  0.00  0.00    +0.000 A 
ATOM     31  C   UNL     1       6.257   6.258  16.641  0.00  0.00    +0.000 A 
ENDBRANCH  23  25
ENDBRANCH   2  23
BRANCH  10  32
ATOM     32  O   UNL     1       0.262  13.094  20.165  0.00  0.00    +0.000 OA
ATOM     33  H   UNL     1       0.684  13.748  19.581  0.00  0.00    +0.000 HD
ENDBRANCH  10  32
TORSDOF 4
ENDMDL
MODEL 5
REMARK VINA RESULT:      -7.2      1.821      2.145
REMARK  Name = 
REMARK  7 active torsions:
REMARK  status: ('A' for Active; 'I' for Inactive)
REMARK    1  A    between atoms: C_1  and  C_2
REMARK    2  A    between atoms: C_2  and  C_4
REMARK    3  A    between atoms: C_5  and  N_6
REMARK    4  A    between atoms: N_6  and  C_7
REMARK    5  A    between atoms: C_21  and  O_22
REMARK    6  A    between atoms: C_25  and  C_26
REMARK    7  A    between atoms: C_30  and  C_31
REMARK                            x       y       z     vdW  Elec       q    Type
REMARK                         _______ _______ _______ _____ _____    ______ ____
ROOT
ATOM      1  C   UNL     1       3.161   3.668  19.584  0.00  0.00    +0.000 C 
ATOM      2  C   UNL     1       3.493   3.701  18.050  0.00  0.00    +0.000 C 
ATOM      3  C   UNL     1       2.979   5.074  17.555  0.00  0.00    +0.000 C 
ATOM      4  C   UNL     1       2.802   5.881  18.824  0.00  0.00    +0.000 C 
ATOM      5  C   UNL     1       2.029   7.187  18.688  0.00  0.00    +0.000 C 
ATOM      6  C   UNL     1       2.706   8.113  17.665  0.00  0.00    +0.000 C 
ATOM      7  C   UNL     1       2.184   9.507  17.699  0.00  0.00    +0.000 C 
ATOM      8  C   UNL     1       1.437  10.010  18.703  0.00  0.00    +0.000 C 
ATOM      9  C   UNL     1       0.922  11.428  18.617  0.00  0.00    +0.000 C 
ATOM     10  C   UNL     1       1.234  12.231  19.881  0.00  0.00    +0.000 C 
ATOM     11  C   UNL     1       0.792  11.492  21.141  0.00  0.00    +0.000 C 
ATOM     12  C   UNL     1       1.394  10.089  21.208  0.00  0.00    +0.000 C 
ATOM     13  C   UNL     1       1.082   9.207  19.965  0.00  0.00    +0.000 C 
ATOM     14  C   UNL     1      -0.431   8.886  19.912  0.00  0.00    +0.000 C 
ATOM     15  C   UNL     1       1.944   7.884  20.067  0.00  0.00    +0.000 C 
ATOM     16  C   UNL     1       1.517   6.908  21.204  0.00  0.00    +0.000 C 
ATOM     17  C   UNL     1       2.247   5.544  21.191  0.00  0.00    +0.000 C 
ATOM     18  C   UNL     1       2.186   4.875  19.805  0.00  0.00    +0.000 C 
ATOM     19  C   UNL     1       0.719   4.507  19.449  0.00  0.00    +0.000 C 
ENDROOT
BRANCH   1  21
ATOM     20  C   UNL     1       2.382   2.156  21.580  0.00  0.00    +0.000 C 
ATOM     21  C   UNL     1       2.638   2.332  20.111  0.00  0.00    +0.000 C 
ATOM     22  O   UNL     1       2.285   1.429  19.328  0.00  0.00    +0.000 OA
ENDBRANCH   1  21
BRANCH   2  23
ATOM     23  N   UNL     1       4.958   3.583  17.823  0.00  0.00    +0.000 N 
ATOM     24  H   UNL     1       5.170   3.041  16.985  0.00  0.00    +0.000 HD
BRANCH  23  25
ATOM     25  C   UNL     1       5.712   4.779  17.802  0.00  0.00    +0.000 A 
ATOM     26  C   UNL     1       5.606   5.669  16.718  0.00  0.00    +0.000 A 
ATOM     27  C   UNL     1       6.380   6.838  16.650  0.00  0.00    +0.000 A 
ATOM     28  C   UNL     1       7.192   7.187  17.717  0.00  0.00    +0.000 A 
ATOM     29 CL   UNL     1       8.086   8.655  17.671  0.00  0.00    +0.000 Cl
ATOM     30  C   UNL     1       7.255   6.366  18.837  0.00  0.00    +0.000 A 
ATOM     31  C   UNL     1       6.521   5.172  18.872  0.00  0.00    +0.000 A 
ENDBRANCH  23  25
ENDBRANCH   2  23
BRANCH  10  32
ATOM     32  O   UNL     1       0.581  13.498  19.824  0.00  0.00    +0.000 OA
ATOM     33  H   UNL     1       0.003  13.500  19.040  0.00  0.00    +0.000 HD
ENDBRANCH  10  32
TORSDOF 4
ENDMDL
MODEL 6
REMARK VINA RESULT:      -7.2      4.017      8.636
REMARK  Name = 
REMARK  7 active torsions:
REMARK  status: ('A' for Active; 'I' for Inactive)
REMARK    1  A    between atoms: C_1  and  C_2
REMARK    2  A    between atoms: C_2  and  C_4
REMARK    3  A    between atoms: C_5  and  N_6
REMARK    4  A    between atoms: N_6  and  C_7
REMARK    5  A    between atoms: C_21  and  O_22
REMARK    6  A    between atoms: C_25  and  C_26
REMARK    7  A    between atoms: C_30  and  C_31
REMARK                            x       y       z     vdW  Elec       q    Type
REMARK                         _______ _______ _______ _____ _____    ______ ____
ROOT
ATOM      1  C   UNL     1       0.019  10.652  20.540  0.00  0.00    +0.000 C 
ATOM      2  C   UNL     1       0.956  11.299  19.459  0.00  0.00    +0.000 C 
ATOM      3  C   UNL     1       1.879  10.151  18.985  0.00  0.00    +0.000 C 
ATOM      4  C   UNL     1       1.176   8.895  19.455  0.00  0.00    +0.000 C 
ATOM      5  C   UNL     1       1.988   7.607  19.392  0.00  0.00    +0.000 C 
ATOM      6  C   UNL     1       2.464   7.337  17.955  0.00  0.00    +0.000 C 
ATOM      7  C   UNL     1       3.001   5.962  17.762  0.00  0.00    +0.000 C 
ATOM      8  C   UNL     1       2.814   4.949  18.634  0.00  0.00    +0.000 C 
ATOM      9  C   UNL     1       3.440   3.601  18.362  0.00  0.00    +0.000 C 
ATOM     10  C   UNL     1       2.425   2.462  18.474  0.00  0.00    +0.000 C 
ATOM     11  C   UNL     1       1.650   2.527  19.788  0.00  0.00    +0.000 C 
ATOM     12  C   UNL     1       0.985   3.889  19.980  0.00  0.00    +0.000 C 
ATOM     13  C   UNL     1       1.971   5.090  19.912  0.00  0.00    +0.000 C 
ATOM     14  C   UNL     1       2.936   5.050  21.122  0.00  0.00    +0.000 C 
ATOM     15  C   UNL     1       1.125   6.426  19.899  0.00  0.00    +0.000 C 
ATOM     16  C   UNL     1       0.394   6.754  21.236  0.00  0.00    +0.000 C 
ATOM     17  C   UNL     1      -0.287   8.141  21.275  0.00  0.00    +0.000 C 
ATOM     18  C   UNL     1       0.678   9.266  20.858  0.00  0.00    +0.000 C 
ATOM     19  C   UNL     1       1.832   9.397  21.891  0.00  0.00    +0.000 C 
ENDROOT
BRANCH   1  21
ATOM     20  C   UNL     1      -1.172  11.016  22.848  0.00  0.00    +0.000 C 
ATOM     21  C   UNL     1      -0.252  11.517  21.771  0.00  0.00    +0.000 C 
ATOM     22  O   UNL     1       0.384  12.570  21.966  0.00  0.00    +0.000 OA
ENDBRANCH   1  21
BRANCH   2  23
ATOM     23  N   UNL     1       0.160  11.829  18.319  0.00  0.00    +0.000 N 
ATOM     24  H   UNL     1       0.584  11.598  17.420  0.00  0.00    +0.000 HD
BRANCH  23  25
ATOM     25  C   UNL     1      -1.215  11.505  18.278  0.00  0.00    +0.000 A 
ATOM     26  C   UNL     1      -2.165  12.350  18.880  0.00  0.00    +0.000 A 
ATOM     27  C   UNL     1      -3.531  12.025  18.896  0.00  0.00    +0.000 A 
ATOM     28  C   UNL     1      -3.977  10.903  18.217  0.00  0.00    +0.000 A 
ATOM     29 CL   UNL     1      -5.658  10.541  18.171  0.00  0.00    +0.000 Cl
ATOM     30  C   UNL     1      -3.069  10.093  17.545  0.00  0.00    +0.000 A 
ATOM     31  C   UNL     1      -1.701  10.395  17.581  0.00  0.00    +0.000 A 
ENDBRANCH  23  25
ENDBRANCH   2  23
BRANCH  10  32
ATOM     32  O   UNL     1       3.094   1.206  18.382  0.00  0.00    +0.000 OA
ATOM     33  H   UNL     1       2.627   0.577  18.959  0.00  0.00    +0.000 HD
ENDBRANCH  10  32
TORSDOF 4
ENDMDL
MODEL 7
REMARK VINA RESULT:      -7.0      7.894     10.337
REMARK  Name = 
REMARK  7 active torsions:
REMARK  status: ('A' for Active; 'I' for Inactive)
REMARK    1  A    between atoms: C_1  and  C_2
REMARK    2  A    between atoms: C_2  and  C_4
REMARK    3  A    between atoms: C_5  and  N_6
REMARK    4  A    between atoms: N_6  and  C_7
REMARK    5  A    between atoms: C_21  and  O_22
REMARK    6  A    between atoms: C_25  and  C_26
REMARK    7  A    between atoms: C_30  and  C_31
REMARK                            x       y       z     vdW  Elec       q    Type
REMARK                         _______ _______ _______ _____ _____    ______ ____
ROOT
ATOM      1  C   UNL     1      10.178  15.324  18.528  0.00  0.00    +0.000 C 
ATOM      2  C   UNL     1      10.770  15.154  19.972  0.00  0.00    +0.000 C 
ATOM      3  C   UNL     1       9.551  15.241  20.921  0.00  0.00    +0.000 C 
ATOM      4  C   UNL     1       8.360  15.019  20.012  0.00  0.00    +0.000 C 
ATOM      5  C   UNL     1       6.993  15.336  20.607  0.00  0.00    +0.000 C 
ATOM      6  C   UNL     1       6.746  14.499  21.873  0.00  0.00    +0.000 C 
ATOM      7  C   UNL     1       5.331  14.533  22.333  0.00  0.00    +0.000 C 
ATOM      8  C   UNL     1       4.302  14.973  21.579  0.00  0.00    +0.000 C 
ATOM      9  C   UNL     1       2.907  15.005  22.160  0.00  0.00    +0.000 C 
ATOM     10  C   UNL     1       1.887  14.326  21.246  0.00  0.00    +0.000 C 
ATOM     11  C   UNL     1       1.970  14.857  19.817  0.00  0.00    +0.000 C 
ATOM     12  C   UNL     1       3.388  14.740  19.257  0.00  0.00    +0.000 C 
ATOM     13  C   UNL     1       4.470  15.443  20.125  0.00  0.00    +0.000 C 
ATOM     14  C   UNL     1       4.258  16.976  20.095  0.00  0.00    +0.000 C 
ATOM     15  C   UNL     1       5.893  15.052  19.555  0.00  0.00    +0.000 C 
ATOM     16  C   UNL     1       6.232  15.658  18.160  0.00  0.00    +0.000 C 
ATOM     17  C   UNL     1       7.684  15.416  17.687  0.00  0.00    +0.000 C 
ATOM     18  C   UNL     1       8.712  15.828  18.757  0.00  0.00    +0.000 C 
ATOM     19  C   UNL     1       8.657  17.362  18.994  0.00  0.00    +0.000 C 
ENDROOT
BRANCH   1  21
ATOM     20  C   UNL     1      12.213  16.923  18.099  0.00  0.00    +0.000 C 
ATOM     21  C   UNL     1      11.003  16.199  17.583  0.00  0.00    +0.000 C 
ATOM     22  O   UNL     1      10.772  16.213  16.359  0.00  0.00    +0.000 OA
ENDBRANCH   1  21
BRANCH   2  23
ATOM     23  N   UNL     1      11.446  13.837  20.114  0.00  0.00    +0.000 N 
ATOM     24  H   UNL     1      11.799  13.692  21.060  0.00  0.00    +0.000 HD
BRANCH  23  25
ATOM     25  C   UNL     1      10.727  12.689  19.709  0.00  0.00    +0.000 A 
ATOM     26  C   UNL     1      10.706  12.301  18.357  0.00  0.00    +0.000 A 
ATOM     27  C   UNL     1       9.961  11.194  17.922  0.00  0.00    +0.000 A 
ATOM     28  C   UNL     1       9.310  10.397  18.851  0.00  0.00    +0.000 A 
ATOM     29 CL   UNL     1       8.456   8.998  18.332  0.00  0.00    +0.000 Cl
ATOM     30  C   UNL     1       9.379  10.711  20.203  0.00  0.00    +0.000 A 
ATOM     31  C   UNL     1      10.081  11.850  20.622  0.00  0.00    +0.000 A 
ENDBRANCH  23  25
ENDBRANCH   2  23
BRANCH  10  32
ATOM     32  O   UNL     1       0.569  14.535  21.750  0.00  0.00    +0.000 OA
ATOM     33  H   UNL     1      -0.012  14.730  20.994  0.00  0.00    +0.000 HD
ENDBRANCH  10  32
TORSDOF 4
ENDMDL
MODEL 8
REMARK VINA RESULT:      -7.0      8.906     11.522
REMARK  Name = 
REMARK  7 active torsions:
REMARK  status: ('A' for Active; 'I' for Inactive)
REMARK    1  A    between atoms: C_1  and  C_2
REMARK    2  A    between atoms: C_2  and  C_4
REMARK    3  A    between atoms: C_5  and  N_6
REMARK    4  A    between atoms: N_6  and  C_7
REMARK    5  A    between atoms: C_21  and  O_22
REMARK    6  A    between atoms: C_25  and  C_26
REMARK    7  A    between atoms: C_30  and  C_31
REMARK                            x       y       z     vdW  Elec       q    Type
REMARK                         _______ _______ _______ _____ _____    ______ ____
ROOT
ATOM      1  C   UNL     1       6.015  13.641  23.669  0.00  0.00    +0.000 C 
ATOM      2  C   UNL     1       5.480  15.064  23.278  0.00  0.00    +0.000 C 
ATOM      3  C   UNL     1       6.415  15.551  22.146  0.00  0.00    +0.000 C 
ATOM      4  C   UNL     1       7.105  14.290  21.671  0.00  0.00    +0.000 C 
ATOM      5  C   UNL     1       8.305  14.485  20.752  0.00  0.00    +0.000 C 
ATOM      6  C   UNL     1       7.901  15.270  19.493  0.00  0.00    +0.000 C 
ATOM      7  C   UNL     1       8.937  15.241  18.424  0.00  0.00    +0.000 C 
ATOM      8  C   UNL     1       9.976  14.380  18.402  0.00  0.00    +0.000 C 
ATOM      9  C   UNL     1      10.996  14.465  17.292  0.00  0.00    +0.000 C 
ATOM     10  C   UNL     1      11.244  13.107  16.633  0.00  0.00    +0.000 C 
ATOM     11  C   UNL     1      11.550  12.027  17.669  0.00  0.00    +0.000 C 
ATOM     12  C   UNL     1      10.454  11.942  18.730  0.00  0.00    +0.000 C 
ATOM     13  C   UNL     1      10.178  13.286  19.463  0.00  0.00    +0.000 C 
ATOM     14  C   UNL     1      11.404  13.680  20.323  0.00  0.00    +0.000 C 
ATOM     15  C   UNL     1       8.886  13.106  20.358  0.00  0.00    +0.000 C 
ATOM     16  C   UNL     1       9.063  12.162  21.585  0.00  0.00    +0.000 C 
ATOM     17  C   UNL     1       7.855  12.124  22.550  0.00  0.00    +0.000 C 
ATOM     18  C   UNL     1       7.415  13.539  22.972  0.00  0.00    +0.000 C 
ATOM     19  C   UNL     1       8.531  14.222  23.811  0.00  0.00    +0.000 C 
ENDROOT
BRANCH   1  21
ATOM     20  C   UNL     1       6.250  11.931  25.644  0.00  0.00    +0.000 C 
ATOM     21  C   UNL     1       6.035  13.339  25.168  0.00  0.00    +0.000 C 
ATOM     22  O   UNL     1       6.017  14.260  26.007  0.00  0.00    +0.000 OA
ENDBRANCH   1  21
BRANCH   2  23
ATOM     23  N   UNL     1       4.075  14.987  22.795  0.00  0.00    +0.000 N 
ATOM     24  H   UNL     1       3.427  15.441  23.439  0.00  0.00    +0.000 HD
BRANCH  23  25
ATOM     25  C   UNL     1       3.813  15.438  21.481  0.00  0.00    +0.000 A 
ATOM     26  C   UNL     1       3.741  14.523  20.415  0.00  0.00    +0.000 A 
ATOM     27  C   UNL     1       3.531  14.950  19.094  0.00  0.00    +0.000 A 
ATOM     28  C   UNL     1       3.284  16.289  18.837  0.00  0.00    +0.000 A 
ATOM     29 CL   UNL     1       2.952  16.808  17.232  0.00  0.00    +0.000 Cl
ATOM     30  C   UNL     1       3.269  17.204  19.884  0.00  0.00    +0.000 A 
ATOM     31  C   UNL     1       3.535  16.777  21.191  0.00  0.00    +0.000 A 
ENDBRANCH  23  25
ENDBRANCH   2  23
BRANCH  10  32
ATOM     32  O   UNL     1      12.333  13.204  15.717  0.00  0.00    +0.000 OA
ATOM     33  H   UNL     1      11.994  13.588  14.890  0.00  0.00    +0.000 HD
ENDBRANCH  10  32
TORSDOF 4
ENDMDL
MODEL 9
REMARK VINA RESULT:      -6.9      3.431      5.883
REMARK  Name = 
REMARK  7 active torsions:
REMARK  status: ('A' for Active; 'I' for Inactive)
REMARK    1  A    between atoms: C_1  and  C_2
REMARK    2  A    between atoms: C_2  and  C_4
REMARK    3  A    between atoms: C_5  and  N_6
REMARK    4  A    between atoms: N_6  and  C_7
REMARK    5  A    between atoms: C_21  and  O_22
REMARK    6  A    between atoms: C_25  and  C_26
REMARK    7  A    between atoms: C_30  and  C_31
REMARK                            x       y       z     vdW  Elec       q    Type
REMARK                         _______ _______ _______ _____ _____    ______ ____
ROOT
ATOM      1  C   UNL     1       1.382   8.282  19.098  0.00  0.00    +0.000 C 
ATOM      2  C   UNL     1       1.911   7.816  20.501  0.00  0.00    +0.000 C 
ATOM      3  C   UNL     1       1.330   8.835  21.510  0.00  0.00    +0.000 C 
ATOM      4  C   UNL     1       0.214   9.515  20.747  0.00  0.00    +0.000 C 
ATOM      5  C   UNL     1      -0.362  10.776  21.379  0.00  0.00    +0.000 C 
ATOM      6  C   UNL     1      -0.906  10.476  22.786  0.00  0.00    +0.000 C 
ATOM      7  C   UNL     1      -1.743  11.576  23.339  0.00  0.00    +0.000 C 
ATOM      8  C   UNL     1      -2.245  12.588  22.602  0.00  0.00    +0.000 C 
ATOM      9  C   UNL     1      -3.047  13.678  23.272  0.00  0.00    +0.000 C 
ATOM     10  C   UNL     1      -4.382  13.927  22.568  0.00  0.00    +0.000 C 
ATOM     11  C   UNL     1      -4.197  14.134  21.067  0.00  0.00    +0.000 C 
ATOM     12  C   UNL     1      -3.436  12.971  20.430  0.00  0.00    +0.000 C 
ATOM     13  C   UNL     1      -2.052  12.690  21.079  0.00  0.00    +0.000 C 
ATOM     14  C   UNL     1      -1.089  13.870  20.802  0.00  0.00    +0.000 C 
ATOM     15  C   UNL     1      -1.488  11.339  20.479  0.00  0.00    +0.000 C 
ATOM     16  C   UNL     1      -1.072  11.410  18.979  0.00  0.00    +0.000 C 
ATOM     17  C   UNL     1      -0.364  10.143  18.445  0.00  0.00    +0.000 C 
ATOM     18  C   UNL     1       0.810   9.720  19.348  0.00  0.00    +0.000 C 
ATOM     19  C   UNL     1       1.927  10.800  19.321  0.00  0.00    +0.000 C 
ENDROOT
BRANCH   1  21
ATOM     20  C   UNL     1       3.512   7.195  18.020  0.00  0.00    +0.000 C 
ATOM     21  C   UNL     1       2.396   8.199  17.957  0.00  0.00    +0.000 C 
ATOM     22  O   UNL     1       2.235   8.852  16.908  0.00  0.00    +0.000 OA
ENDBRANCH   1  21
BRANCH   2  23
ATOM     23  N   UNL     1       1.433   6.443  20.816  0.00  0.00    +0.000 N 
ATOM     24  H   UNL     1       0.415   6.379  20.785  0.00  0.00    +0.000 HD
BRANCH  23  25
ATOM     25  C   UNL     1       1.985   5.375  20.072  0.00  0.00    +0.000 A 
ATOM     26  C   UNL     1       3.291   4.922  20.336  0.00  0.00    +0.000 A 
ATOM     27  C   UNL     1       3.879   3.897  19.579  0.00  0.00    +0.000 A 
ATOM     28  C   UNL     1       3.131   3.238  18.617  0.00  0.00    +0.000 A 
ATOM     29 CL   UNL     1       3.822   1.932  17.738  0.00  0.00    +0.000 Cl
ATOM     30  C   UNL     1       1.811   3.611  18.390  0.00  0.00    +0.000 A 
ATOM     31  C   UNL     1       1.250   4.673  19.112  0.00  0.00    +0.000 A 
ENDBRANCH  23  25
ENDBRANCH   2  23
BRANCH  10  32
ATOM     32  O   UNL     1      -5.020  15.074  23.128  0.00  0.00    +0.000 OA
ATOM     33  H   UNL     1      -5.486  14.792  23.933  0.00  0.00    +0.000 HD
ENDBRANCH  10  32
TORSDOF 4
ENDMDL
