MODEL 1
REMARK VINA RESULT:      -8.6      0.000      0.000
REMARK  Name = 
REMARK  13 active torsions:
REMARK  status: ('A' for Active; 'I' for Inactive)
REMARK    1  A    between atoms: C_1  and  O_2
REMARK    2  A    between atoms: O_2  and  C_3
REMARK    3  A    between atoms: C_7  and  C_8
REMARK    4  A    between atoms: C_8  and  N_9
REMARK    5  A    between atoms: N_9  and  C_10
REMARK    6  A    between atoms: C_10  and  C_11
REMARK    7  A    between atoms: C_11  and  C_12
REMARK    8  A    between atoms: C_12  and  N_13
REMARK    9  A    between atoms: N_13  and  C_14
REMARK   10  A    between atoms: C_20  and  C_21
REMARK   11  A    between atoms: C_21  and  C_22
REMARK   12  A    between atoms: C_26  and  C_27
REMARK   13  A    between atoms: C_35  and  O_36
REMARK                            x       y       z     vdW  Elec       q    Type
REMARK                         _______ _______ _______ _____ _____    ______ ____
ROOT
ATOM      1  C   UNL     1       2.223   7.147  19.861  0.00  0.00    +0.000 A 
ATOM      2  C   UNL     1       2.975   6.799  18.739  0.00  0.00    +0.000 A 
ATOM      3  C   UNL     1       3.026   7.661  17.662  0.00  0.00    +0.000 A 
ATOM      4  N   UNL     1       2.366   8.826  17.604  0.00  0.00    +0.000 NA
ATOM      5  C   UNL     1       1.602   9.172  18.656  0.00  0.00    +0.000 A 
ATOM      6  C   UNL     1       0.899  10.369  18.584  0.00  0.00    +0.000 A 
ATOM      7  C   UNL     1       0.073  10.828  19.622  0.00  0.00    +0.000 A 
ATOM      8  C   UNL     1      -0.061  10.026  20.760  0.00  0.00    +0.000 A 
ATOM      9  C   UNL     1       0.653   8.829  20.864  0.00  0.00    +0.000 A 
ATOM     10  C   UNL     1       1.494   8.367  19.820  0.00  0.00    +0.000 A 
ENDROOT
BRANCH   1  11
ATOM     11  N   UNL     1       2.104   6.268  20.963  0.00  0.00    +0.000 N 
ATOM     12  H   UNL     1       2.620   6.622  21.767  0.00  0.00    +0.000 HD
BRANCH  11  13
ATOM     13  C   UNL     1       2.274   4.836  20.729  0.00  0.00    +0.000 C 
BRANCH  13  14
ATOM     14  C   UNL     1       0.965   4.186  20.314  0.00  0.00    +0.000 C 
BRANCH  14  15
ATOM     15  C   UNL     1       1.199   3.246  19.126  0.00  0.00    +0.000 C 
BRANCH  15  16
ATOM     16  N   UNL     1       2.614   2.900  19.108  0.00  0.00    +0.000 NA
ATOM     17  H   UNL     1       3.147   3.658  19.547  0.00  0.00    +0.000 HD
BRANCH  16  18
ATOM     18  C   UNL     1       3.148   2.708  17.754  0.00  0.00    +0.000 C 
BRANCH  18  23
ATOM     19  C   UNL     1       6.353   4.819  18.186  0.00  0.00    +0.000 A 
ATOM     20  C   UNL     1       6.351   5.497  16.961  0.00  0.00    +0.000 A 
ATOM     21  C   UNL     1       5.370   5.247  16.002  0.00  0.00    +0.000 A 
ATOM     22  C   UNL     1       4.346   4.342  16.274  0.00  0.00    +0.000 A 
ATOM     23  C   UNL     1       4.300   3.662  17.500  0.00  0.00    +0.000 A 
ATOM     24  C   UNL     1       5.348   3.872  18.428  0.00  0.00    +0.000 A 
BRANCH  19  26
ATOM     25  C   UNL     1       8.005   6.452  18.763  0.00  0.00    +0.000 C 
ATOM     26  O   UNL     1       7.381   5.199  19.009  0.00  0.00    +0.000 OA
ENDBRANCH  19  26
BRANCH  24  27
ATOM     27  O   UNL     1       5.383   3.119  19.576  0.00  0.00    +0.000 OA
ATOM     28  H   UNL     1       5.382   2.176  19.307  0.00  0.00    +0.000 HD
ENDBRANCH  24  27
ENDBRANCH  18  23
ENDBRANCH  16  18
ENDBRANCH  15  16
ENDBRANCH  14  15
ENDBRANCH  13  14
ENDBRANCH  11  13
ENDBRANCH   1  11
BRANCH   7  29
ATOM     29  C   UNL     1      -0.636  12.163  19.525  0.00  0.00    +0.000 C 
BRANCH  29  30
ATOM     30  C   UNL     1      -2.081  12.080  19.091  0.00  0.00    +0.000 A 
ATOM     31  C   UNL     1      -2.418  11.599  17.818  0.00  0.00    +0.000 A 
ATOM     32  C   UNL     1      -3.753  11.465  17.437  0.00  0.00    +0.000 A 
ATOM     33  C   UNL     1      -4.772  11.791  18.332  0.00  0.00    +0.000 A 
ATOM     34  C   UNL     1      -4.464  12.277  19.610  0.00  0.00    +0.000 A 
ATOM     35  C   UNL     1      -3.115  12.445  19.968  0.00  0.00    +0.000 A 
BRANCH  34  36
ATOM     36  C   UNL     1      -5.554  12.565  20.613  0.00  0.00    +0.000 C 
ATOM     37  F   UNL     1      -5.113  12.615  21.901  0.00  0.00    +0.000 F 
ATOM     38  F   UNL     1      -6.162  13.763  20.384  0.00  0.00    +0.000 F 
ATOM     39  F   UNL     1      -6.549  11.635  20.597  0.00  0.00    +0.000 F 
ENDBRANCH  34  36
ENDBRANCH  29  30
ENDBRANCH   7  29
TORSDOF 12
ENDMDL
MODEL 2
REMARK VINA RESULT:      -8.4      1.791      2.443
REMARK  Name = 
REMARK  13 active torsions:
REMARK  status: ('A' for Active; 'I' for Inactive)
REMARK    1  A    between atoms: C_1  and  O_2
REMARK    2  A    between atoms: O_2  and  C_3
REMARK    3  A    between atoms: C_7  and  C_8
REMARK    4  A    between atoms: C_8  and  N_9
REMARK    5  A    between atoms: N_9  and  C_10
REMARK    6  A    between atoms: C_10  and  C_11
REMARK    7  A    between atoms: C_11  and  C_12
REMARK    8  A    between atoms: C_12  and  N_13
REMARK    9  A    between atoms: N_13  and  C_14
REMARK   10  A    between atoms: C_20  and  C_21
REMARK   11  A    between atoms: C_21  and  C_22
REMARK   12  A    between atoms: C_26  and  C_27
REMARK   13  A    between atoms: C_35  and  O_36
REMARK                            x       y       z     vdW  Elec       q    Type
REMARK                         _______ _______ _______ _____ _____    ______ ____
ROOT
ATOM      1  C   UNL     1       1.846   7.569  20.010  0.00  0.00    +0.000 A 
ATOM      2  C   UNL     1       2.573   7.353  18.839  0.00  0.00    +0.000 A 
ATOM      3  C   UNL     1       2.521   8.290  17.827  0.00  0.00    +0.000 A 
ATOM      4  N   UNL     1       1.783   9.408  17.878  0.00  0.00    +0.000 NA
ATOM      5  C   UNL     1       1.042   9.625  18.980  0.00  0.00    +0.000 A 
ATOM      6  C   UNL     1       0.258  10.773  19.021  0.00  0.00    +0.000 A 
ATOM      7  C   UNL     1      -0.553  11.098  20.119  0.00  0.00    +0.000 A 
ATOM      8  C   UNL     1      -0.586  10.211  21.200  0.00  0.00    +0.000 A 
ATOM      9  C   UNL     1       0.211   9.063  21.190  0.00  0.00    +0.000 A 
ATOM     10  C   UNL     1       1.037   8.735  20.085  0.00  0.00    +0.000 A 
ENDROOT
BRANCH   1  11
ATOM     11  N   UNL     1       1.832   6.608  21.049  0.00  0.00    +0.000 N 
ATOM     12  H   UNL     1       2.237   6.990  21.903  0.00  0.00    +0.000 HD
BRANCH  11  13
ATOM     13  C   UNL     1       2.268   5.248  20.741  0.00  0.00    +0.000 C 
BRANCH  13  14
ATOM     14  C   UNL     1       1.084   4.345  20.437  0.00  0.00    +0.000 C 
BRANCH  14  15
ATOM     15  C   UNL     1       1.544   2.884  20.363  0.00  0.00    +0.000 C 
BRANCH  15  16
ATOM     16  N   UNL     1       1.479   2.471  18.968  0.00  0.00    +0.000 NA
ATOM     17  H   UNL     1       0.784   1.723  18.874  0.00  0.00    +0.000 HD
BRANCH  16  18
ATOM     18  C   UNL     1       2.756   1.957  18.456  0.00  0.00    +0.000 C 
BRANCH  18  23
ATOM     19  C   UNL     1       5.657   4.481  18.812  0.00  0.00    +0.000 A 
ATOM     20  C   UNL     1       5.412   5.277  17.686  0.00  0.00    +0.000 A 
ATOM     21  C   UNL     1       4.369   4.981  16.809  0.00  0.00    +0.000 A 
ATOM     22  C   UNL     1       3.523   3.905  17.072  0.00  0.00    +0.000 A 
ATOM     23  C   UNL     1       3.722   3.100  18.204  0.00  0.00    +0.000 A 
ATOM     24  C   UNL     1       4.833   3.370  19.038  0.00  0.00    +0.000 A 
BRANCH  19  26
ATOM     25  C   UNL     1       7.651   5.798  18.950  0.00  0.00    +0.000 C 
ATOM     26  O   UNL     1       6.712   4.926  19.565  0.00  0.00    +0.000 OA
ENDBRANCH  19  26
BRANCH  24  27
ATOM     27  O   UNL     1       5.112   2.514  20.075  0.00  0.00    +0.000 OA
ATOM     28  H   UNL     1       6.088   2.431  20.131  0.00  0.00    +0.000 HD
ENDBRANCH  24  27
ENDBRANCH  18  23
ENDBRANCH  16  18
ENDBRANCH  15  16
ENDBRANCH  14  15
ENDBRANCH  13  14
ENDBRANCH  11  13
ENDBRANCH   1  11
BRANCH   7  29
ATOM     29  C   UNL     1      -1.353  12.384  20.146  0.00  0.00    +0.000 C 
BRANCH  29  30
ATOM     30  C   UNL     1      -1.725  12.867  21.530  0.00  0.00    +0.000 A 
ATOM     31  C   UNL     1      -0.805  13.585  22.306  0.00  0.00    +0.000 A 
ATOM     32  C   UNL     1      -1.165  14.083  23.559  0.00  0.00    +0.000 A 
ATOM     33  C   UNL     1      -2.457  13.885  24.045  0.00  0.00    +0.000 A 
ATOM     34  C   UNL     1      -3.396  13.168  23.291  0.00  0.00    +0.000 A 
ATOM     35  C   UNL     1      -3.010  12.638  22.047  0.00  0.00    +0.000 A 
BRANCH  34  36
ATOM     36  C   UNL     1      -4.818  13.009  23.771  0.00  0.00    +0.000 C 
ATOM     37  F   UNL     1      -5.395  14.178  24.168  0.00  0.00    +0.000 F 
ATOM     38  F   UNL     1      -5.635  12.503  22.805  0.00  0.00    +0.000 F 
ATOM     39  F   UNL     1      -4.928  12.162  24.832  0.00  0.00    +0.000 F 
ENDBRANCH  34  36
ENDBRANCH  29  30
ENDBRANCH   7  29
TORSDOF 12
ENDMDL
MODEL 3
REMARK VINA RESULT:      -8.2      1.437      1.873
REMARK  Name = 
REMARK  13 active torsions:
REMARK  status: ('A' for Active; 'I' for Inactive)
REMARK    1  A    between atoms: C_1  and  O_2
REMARK    2  A    between atoms: O_2  and  C_3
REMARK    3  A    between atoms: C_7  and  C_8
REMARK    4  A    between atoms: C_8  and  N_9
REMARK    5  A    between atoms: N_9  and  C_10
REMARK    6  A    between atoms: C_10  and  C_11
REMARK    7  A    between atoms: C_11  and  C_12
REMARK    8  A    between atoms: C_12  and  N_13
REMARK    9  A    between atoms: N_13  and  C_14
REMARK   10  A    between atoms: C_20  and  C_21
REMARK   11  A    between atoms: C_21  and  C_22
REMARK   12  A    between atoms: C_26  and  C_27
REMARK   13  A    between atoms: C_35  and  O_36
REMARK                            x       y       z     vdW  Elec       q    Type
REMARK                         _______ _______ _______ _____ _____    ______ ____
ROOT
ATOM      1  C   UNL     1       2.330   7.077  19.651  0.00  0.00    +0.000 A 
ATOM      2  C   UNL     1       2.963   6.807  18.438  0.00  0.00    +0.000 A 
ATOM      3  C   UNL     1       2.983   7.774  17.453  0.00  0.00    +0.000 A 
ATOM      4  N   UNL     1       2.398   8.975  17.572  0.00  0.00    +0.000 NA
ATOM      5  C   UNL     1       1.748   9.251  18.717  0.00  0.00    +0.000 A 
ATOM      6  C   UNL     1       1.122  10.487  18.829  0.00  0.00    +0.000 A 
ATOM      7  C   UNL     1       0.416  10.879  19.976  0.00  0.00    +0.000 A 
ATOM      8  C   UNL     1       0.323   9.970  21.035  0.00  0.00    +0.000 A 
ATOM      9  C   UNL     1       0.962   8.730  20.953  0.00  0.00    +0.000 A 
ATOM     10  C   UNL     1       1.683   8.334  19.799  0.00  0.00    +0.000 A 
ENDROOT
BRANCH   1  11
ATOM     11  N   UNL     1       2.243   6.094  20.665  0.00  0.00    +0.000 N 
ATOM     12  H   UNL     1       3.162   5.704  20.872  0.00  0.00    +0.000 HD
BRANCH  11  13
ATOM     13  C   UNL     1       1.180   5.096  20.574  0.00  0.00    +0.000 C 
BRANCH  13  14
ATOM     14  C   UNL     1       1.721   3.693  20.793  0.00  0.00    +0.000 C 
BRANCH  14  15
ATOM     15  C   UNL     1       1.970   3.010  19.443  0.00  0.00    +0.000 C 
BRANCH  15  16
ATOM     16  N   UNL     1       3.259   3.470  18.946  0.00  0.00    +0.000 NA
ATOM     17  H   UNL     1       3.262   4.495  18.927  0.00  0.00    +0.000 HD
BRANCH  16  18
ATOM     18  C   UNL     1       3.559   3.000  17.588  0.00  0.00    +0.000 C 
BRANCH  18  23
ATOM     19  C   UNL     1       6.831   5.005  17.150  0.00  0.00    +0.000 A 
ATOM     20  C   UNL     1       6.708   5.357  15.800  0.00  0.00    +0.000 A 
ATOM     21  C   UNL     1       5.624   4.922  15.039  0.00  0.00    +0.000 A 
ATOM     22  C   UNL     1       4.619   4.160  15.631  0.00  0.00    +0.000 A 
ATOM     23  C   UNL     1       4.695   3.808  16.987  0.00  0.00    +0.000 A 
ATOM     24  C   UNL     1       5.841   4.194  17.723  0.00  0.00    +0.000 A 
BRANCH  19  26
ATOM     25  C   UNL     1       7.799   6.699  18.536  0.00  0.00    +0.000 C 
ATOM     26  O   UNL     1       7.949   5.530  17.743  0.00  0.00    +0.000 OA
ENDBRANCH  19  26
BRANCH  24  27
ATOM     27  O   UNL     1       5.987   3.749  19.013  0.00  0.00    +0.000 OA
ATOM     28  H   UNL     1       5.148   3.940  19.485  0.00  0.00    +0.000 HD
ENDBRANCH  24  27
ENDBRANCH  18  23
ENDBRANCH  16  18
ENDBRANCH  15  16
ENDBRANCH  14  15
ENDBRANCH  13  14
ENDBRANCH  11  13
ENDBRANCH   1  11
BRANCH   7  29
ATOM     29  C   UNL     1      -0.208  12.256  20.078  0.00  0.00    +0.000 C 
BRANCH  29  30
ATOM     30  C   UNL     1      -1.715  12.275  19.955  0.00  0.00    +0.000 A 
ATOM     31  C   UNL     1      -2.496  13.001  20.865  0.00  0.00    +0.000 A 
ATOM     32  C   UNL     1      -3.882  13.069  20.719  0.00  0.00    +0.000 A 
ATOM     33  C   UNL     1      -4.504  12.428  19.649  0.00  0.00    +0.000 A 
ATOM     34  C   UNL     1      -3.749  11.694  18.725  0.00  0.00    +0.000 A 
ATOM     35  C   UNL     1      -2.357  11.600  18.905  0.00  0.00    +0.000 A 
BRANCH  34  36
ATOM     36  C   UNL     1      -4.400  11.056  17.522  0.00  0.00    +0.000 C 
ATOM     37  F   UNL     1      -5.736  10.837  17.676  0.00  0.00    +0.000 F 
ATOM     38  F   UNL     1      -4.277  11.823  16.402  0.00  0.00    +0.000 F 
ATOM     39  F   UNL     1      -3.859   9.847  17.205  0.00  0.00    +0.000 F 
ENDBRANCH  34  36
ENDBRANCH  29  30
ENDBRANCH   7  29
TORSDOF 12
ENDMDL
MODEL 4
REMARK VINA RESULT:      -8.1      1.862      2.535
REMARK  Name = 
REMARK  13 active torsions:
REMARK  status: ('A' for Active; 'I' for Inactive)
REMARK    1  A    between atoms: C_1  and  O_2
REMARK    2  A    between atoms: O_2  and  C_3
REMARK    3  A    between atoms: C_7  and  C_8
REMARK    4  A    between atoms: C_8  and  N_9
REMARK    5  A    between atoms: N_9  and  C_10
REMARK    6  A    between atoms: C_10  and  C_11
REMARK    7  A    between atoms: C_11  and  C_12
REMARK    8  A    between atoms: C_12  and  N_13
REMARK    9  A    between atoms: N_13  and  C_14
REMARK   10  A    between atoms: C_20  and  C_21
REMARK   11  A    between atoms: C_21  and  C_22
REMARK   12  A    between atoms: C_26  and  C_27
REMARK   13  A    between atoms: C_35  and  O_36
REMARK                            x       y       z     vdW  Elec       q    Type
REMARK                         _______ _______ _______ _____ _____    ______ ____
ROOT
ATOM      1  C   UNL     1       2.329   6.972  19.603  0.00  0.00    +0.000 A 
ATOM      2  C   UNL     1       2.975   6.821  18.376  0.00  0.00    +0.000 A 
ATOM      3  C   UNL     1       2.979   7.868  17.478  0.00  0.00    +0.000 A 
ATOM      4  N   UNL     1       2.368   9.042  17.693  0.00  0.00    +0.000 NA
ATOM      5  C   UNL     1       1.705   9.205  18.853  0.00  0.00    +0.000 A 
ATOM      6  C   UNL     1       1.051  10.413  19.064  0.00  0.00    +0.000 A 
ATOM      7  C   UNL     1       0.329  10.691  20.235  0.00  0.00    +0.000 A 
ATOM      8  C   UNL     1       0.250   9.693  21.212  0.00  0.00    +0.000 A 
ATOM      9  C   UNL     1       0.918   8.479  21.030  0.00  0.00    +0.000 A 
ATOM     10  C   UNL     1       1.653   8.198  19.852  0.00  0.00    +0.000 A 
ENDROOT
BRANCH   1  11
ATOM     11  N   UNL     1       2.259   5.905  20.529  0.00  0.00    +0.000 N 
ATOM     12  H   UNL     1       3.174   5.715  20.935  0.00  0.00    +0.000 HD
BRANCH  11  13
ATOM     13  C   UNL     1       1.517   4.706  20.149  0.00  0.00    +0.000 C 
BRANCH  13  14
ATOM     14  C   UNL     1       1.580   3.649  21.239  0.00  0.00    +0.000 C 
BRANCH  14  15
ATOM     15  C   UNL     1       2.776   2.719  20.999  0.00  0.00    +0.000 C 
BRANCH  15  16
ATOM     16  N   UNL     1       3.407   3.124  19.751  0.00  0.00    +0.000 NA
ATOM     17  H   UNL     1       3.184   2.433  19.026  0.00  0.00    +0.000 HD
BRANCH  16  18
ATOM     18  C   UNL     1       4.870   3.214  19.843  0.00  0.00    +0.000 C 
BRANCH  18  23
ATOM     19  C   UNL     1       5.742   4.715  16.393  0.00  0.00    +0.000 A 
ATOM     20  C   UNL     1       6.520   5.804  16.804  0.00  0.00    +0.000 A 
ATOM     21  C   UNL     1       6.720   6.076  18.157  0.00  0.00    +0.000 A 
ATOM     22  C   UNL     1       6.178   5.231  19.124  0.00  0.00    +0.000 A 
ATOM     23  C   UNL     1       5.413   4.116  18.750  0.00  0.00    +0.000 A 
ATOM     24  C   UNL     1       5.157   3.902  17.374  0.00  0.00    +0.000 A 
BRANCH  19  26
ATOM     25  C   UNL     1       6.831   4.867  14.268  0.00  0.00    +0.000 C 
ATOM     26  O   UNL     1       5.664   4.595  15.030  0.00  0.00    +0.000 OA
ENDBRANCH  19  26
BRANCH  24  27
ATOM     27  O   UNL     1       4.307   2.890  17.003  0.00  0.00    +0.000 OA
ATOM     28  H   UNL     1       3.400   3.160  17.262  0.00  0.00    +0.000 HD
ENDBRANCH  24  27
ENDBRANCH  18  23
ENDBRANCH  16  18
ENDBRANCH  15  16
ENDBRANCH  14  15
ENDBRANCH  13  14
ENDBRANCH  11  13
ENDBRANCH   1  11
BRANCH   7  29
ATOM     29  C   UNL     1      -0.326  12.040  20.448  0.00  0.00    +0.000 C 
BRANCH  29  30
ATOM     30  C   UNL     1      -1.787  12.099  20.063  0.00  0.00    +0.000 A 
ATOM     31  C   UNL     1      -2.698  12.839  20.830  0.00  0.00    +0.000 A 
ATOM     32  C   UNL     1      -4.034  12.943  20.444  0.00  0.00    +0.000 A 
ATOM     33  C   UNL     1      -4.475  12.325  19.274  0.00  0.00    +0.000 A 
ATOM     34  C   UNL     1      -3.587  11.577  18.490  0.00  0.00    +0.000 A 
ATOM     35  C   UNL     1      -2.251  11.446  18.910  0.00  0.00    +0.000 A 
BRANCH  34  36
ATOM     36  C   UNL     1      -4.032  10.963  17.185  0.00  0.00    +0.000 C 
ATOM     37  F   UNL     1      -3.421  11.500  16.092  0.00  0.00    +0.000 F 
ATOM     38  F   UNL     1      -3.778   9.625  17.131  0.00  0.00    +0.000 F 
ATOM     39  F   UNL     1      -5.370  11.096  16.966  0.00  0.00    +0.000 F 
ENDBRANCH  34  36
ENDBRANCH  29  30
ENDBRANCH   7  29
TORSDOF 12
ENDMDL
MODEL 5
REMARK VINA RESULT:      -7.9      1.669      2.184
REMARK  Name = 
REMARK  13 active torsions:
REMARK  status: ('A' for Active; 'I' for Inactive)
REMARK    1  A    between atoms: C_1  and  O_2
REMARK    2  A    between atoms: O_2  and  C_3
REMARK    3  A    between atoms: C_7  and  C_8
REMARK    4  A    between atoms: C_8  and  N_9
REMARK    5  A    between atoms: N_9  and  C_10
REMARK    6  A    between atoms: C_10  and  C_11
REMARK    7  A    between atoms: C_11  and  C_12
REMARK    8  A    between atoms: C_12  and  N_13
REMARK    9  A    between atoms: N_13  and  C_14
REMARK   10  A    between atoms: C_20  and  C_21
REMARK   11  A    between atoms: C_21  and  C_22
REMARK   12  A    between atoms: C_26  and  C_27
REMARK   13  A    between atoms: C_35  and  O_36
REMARK                            x       y       z     vdW  Elec       q    Type
REMARK                         _______ _______ _______ _____ _____    ______ ____
ROOT
ATOM      1  C   UNL     1       2.303   7.185  19.562  0.00  0.00    +0.000 A 
ATOM      2  C   UNL     1       2.790   7.075  18.259  0.00  0.00    +0.000 A 
ATOM      3  C   UNL     1       2.617   8.125  17.380  0.00  0.00    +0.000 A 
ATOM      4  N   UNL     1       1.975   9.261  17.688  0.00  0.00    +0.000 NA
ATOM      5  C   UNL     1       1.462   9.381  18.926  0.00  0.00    +0.000 A 
ATOM      6  C   UNL     1       0.775  10.549  19.235  0.00  0.00    +0.000 A 
ATOM      7  C   UNL     1       0.199  10.780  20.493  0.00  0.00    +0.000 A 
ATOM      8  C   UNL     1       0.305   9.776  21.461  0.00  0.00    +0.000 A 
ATOM      9  C   UNL     1       1.009   8.602  21.179  0.00  0.00    +0.000 A 
ATOM     10  C   UNL     1       1.598   8.369  19.911  0.00  0.00    +0.000 A 
ENDROOT
BRANCH   1  11
ATOM     11  N   UNL     1       2.415   6.111  20.477  0.00  0.00    +0.000 N 
ATOM     12  H   UNL     1       3.318   5.647  20.384  0.00  0.00    +0.000 HD
BRANCH  11  13
ATOM     13  C   UNL     1       1.286   5.194  20.610  0.00  0.00    +0.000 C 
BRANCH  13  14
ATOM     14  C   UNL     1       1.446   3.986  19.701  0.00  0.00    +0.000 C 
BRANCH  14  15
ATOM     15  C   UNL     1       2.427   2.986  20.325  0.00  0.00    +0.000 C 
BRANCH  15  16
ATOM     16  N   UNL     1       3.324   2.530  19.273  0.00  0.00    +0.000 NA
ATOM     17  H   UNL     1       3.379   1.507  19.302  0.00  0.00    +0.000 HD
BRANCH  16  18
ATOM     18  C   UNL     1       4.690   3.052  19.408  0.00  0.00    +0.000 C 
BRANCH  18  23
ATOM     19  C   UNL     1       5.890   6.089  17.348  0.00  0.00    +0.000 A 
ATOM     20  C   UNL     1       5.516   5.663  16.067  0.00  0.00    +0.000 A 
ATOM     21  C   UNL     1       4.936   4.411  15.866  0.00  0.00    +0.000 A 
ATOM     22  C   UNL     1       4.679   3.580  16.955  0.00  0.00    +0.000 A 
ATOM     23  C   UNL     1       5.017   3.984  18.256  0.00  0.00    +0.000 A 
ATOM     24  C   UNL     1       5.676   5.224  18.430  0.00  0.00    +0.000 A 
BRANCH  19  26
ATOM     25  C   UNL     1       7.824   7.472  17.619  0.00  0.00    +0.000 C 
ATOM     26  O   UNL     1       6.433   7.347  17.358  0.00  0.00    +0.000 OA
ENDBRANCH  19  26
BRANCH  24  27
ATOM     27  O   UNL     1       6.124   5.572  19.680  0.00  0.00    +0.000 OA
ATOM     28  H   UNL     1       7.105   5.585  19.645  0.00  0.00    +0.000 HD
ENDBRANCH  24  27
ENDBRANCH  18  23
ENDBRANCH  16  18
ENDBRANCH  15  16
ENDBRANCH  14  15
ENDBRANCH  13  14
ENDBRANCH  11  13
ENDBRANCH   1  11
BRANCH   7  29
ATOM     29  C   UNL     1      -0.497  12.089  20.806  0.00  0.00    +0.000 C 
BRANCH  29  30
ATOM     30  C   UNL     1      -1.927  12.173  20.324  0.00  0.00    +0.000 A 
ATOM     31  C   UNL     1      -2.855  12.993  20.982  0.00  0.00    +0.000 A 
ATOM     32  C   UNL     1      -4.159  13.118  20.504  0.00  0.00    +0.000 A 
ATOM     33  C   UNL     1      -4.549  12.441  19.349  0.00  0.00    +0.000 A 
ATOM     34  C   UNL     1      -3.643  11.613  18.673  0.00  0.00    +0.000 A 
ATOM     35  C   UNL     1      -2.343  11.463  19.186  0.00  0.00    +0.000 A 
BRANCH  34  36
ATOM     36  C   UNL     1      -4.029  10.931  17.383  0.00  0.00    +0.000 C 
ATOM     37  F   UNL     1      -3.530  11.541  16.271  0.00  0.00    +0.000 F 
ATOM     38  F   UNL     1      -3.587   9.644  17.327  0.00  0.00    +0.000 F 
ATOM     39  F   UNL     1      -5.377  10.869  17.199  0.00  0.00    +0.000 F 
ENDBRANCH  34  36
ENDBRANCH  29  30
ENDBRANCH   7  29
TORSDOF 12
ENDMDL
MODEL 6
REMARK VINA RESULT:      -7.8      1.517      2.091
REMARK  Name = 
REMARK  13 active torsions:
REMARK  status: ('A' for Active; 'I' for Inactive)
REMARK    1  A    between atoms: C_1  and  O_2
REMARK    2  A    between atoms: O_2  and  C_3
REMARK    3  A    between atoms: C_7  and  C_8
REMARK    4  A    between atoms: C_8  and  N_9
REMARK    5  A    between atoms: N_9  and  C_10
REMARK    6  A    between atoms: C_10  and  C_11
REMARK    7  A    between atoms: C_11  and  C_12
REMARK    8  A    between atoms: C_12  and  N_13
REMARK    9  A    between atoms: N_13  and  C_14
REMARK   10  A    between atoms: C_20  and  C_21
REMARK   11  A    between atoms: C_21  and  C_22
REMARK   12  A    between atoms: C_26  and  C_27
REMARK   13  A    between atoms: C_35  and  O_36
REMARK                            x       y       z     vdW  Elec       q    Type
REMARK                         _______ _______ _______ _____ _____    ______ ____
ROOT
ATOM      1  C   UNL     1       2.011   7.213  19.906  0.00  0.00    +0.000 A 
ATOM      2  C   UNL     1       2.574   7.016  18.645  0.00  0.00    +0.000 A 
ATOM      3  C   UNL     1       2.623   8.067  17.752  0.00  0.00    +0.000 A 
ATOM      4  N   UNL     1       2.131   9.288  18.006  0.00  0.00    +0.000 NA
ATOM      5  C   UNL     1       1.549   9.499  19.200  0.00  0.00    +0.000 A 
ATOM      6  C   UNL     1       1.018  10.759  19.451  0.00  0.00    +0.000 A 
ATOM      7  C   UNL     1       0.388  11.089  20.661  0.00  0.00    +0.000 A 
ATOM      8  C   UNL     1       0.273  10.094  21.638  0.00  0.00    +0.000 A 
ATOM      9  C   UNL     1       0.819   8.826  21.415  0.00  0.00    +0.000 A 
ATOM     10  C   UNL     1       1.462   8.492  20.196  0.00  0.00    +0.000 A 
ENDROOT
BRANCH   1  11
ATOM     11  N   UNL     1       1.896   6.148  20.830  0.00  0.00    +0.000 N 
ATOM     12  H   UNL     1       2.759   6.031  21.359  0.00  0.00    +0.000 HD
BRANCH  11  13
ATOM     13  C   UNL     1       1.304   4.894  20.372  0.00  0.00    +0.000 C 
BRANCH  13  14
ATOM     14  C   UNL     1       1.676   3.741  21.289  0.00  0.00    +0.000 C 
BRANCH  14  15
ATOM     15  C   UNL     1       2.757   2.875  20.630  0.00  0.00    +0.000 C 
BRANCH  15  16
ATOM     16  N   UNL     1       3.699   3.769  19.970  0.00  0.00    +0.000 NA
ATOM     17  H   UNL     1       3.177   4.531  19.525  0.00  0.00    +0.000 HD
BRANCH  16  18
ATOM     18  C   UNL     1       4.494   3.107  18.929  0.00  0.00    +0.000 C 
BRANCH  18  23
ATOM     19  C   UNL     1       5.927   6.280  17.257  0.00  0.00    +0.000 A 
ATOM     20  C   UNL     1       5.721   5.947  15.913  0.00  0.00    +0.000 A 
ATOM     21  C   UNL     1       5.179   4.714  15.551  0.00  0.00    +0.000 A 
ATOM     22  C   UNL     1       4.791   3.809  16.538  0.00  0.00    +0.000 A 
ATOM     23  C   UNL     1       4.958   4.118  17.896  0.00  0.00    +0.000 A 
ATOM     24  C   UNL     1       5.583   5.341  18.240  0.00  0.00    +0.000 A 
BRANCH  19  26
ATOM     25  C   UNL     1       7.862   7.645  17.605  0.00  0.00    +0.000 C 
ATOM     26  O   UNL     1       6.457   7.533  17.425  0.00  0.00    +0.000 OA
ENDBRANCH  19  26
BRANCH  24  27
ATOM     27  O   UNL     1       5.867   5.598  19.558  0.00  0.00    +0.000 OA
ATOM     28  H   UNL     1       5.136   6.149  19.912  0.00  0.00    +0.000 HD
ENDBRANCH  24  27
ENDBRANCH  18  23
ENDBRANCH  16  18
ENDBRANCH  15  16
ENDBRANCH  14  15
ENDBRANCH  13  14
ENDBRANCH  11  13
ENDBRANCH   1  11
BRANCH   7  29
ATOM     29  C   UNL     1      -0.132  12.489  20.915  0.00  0.00    +0.000 C 
BRANCH  29  30
ATOM     30  C   UNL     1      -1.478  12.547  21.601  0.00  0.00    +0.000 A 
ATOM     31  C   UNL     1      -1.566  12.740  22.986  0.00  0.00    +0.000 A 
ATOM     32  C   UNL     1      -2.807  12.853  23.612  0.00  0.00    +0.000 A 
ATOM     33  C   UNL     1      -3.979  12.794  22.858  0.00  0.00    +0.000 A 
ATOM     34  C   UNL     1      -3.921  12.600  21.472  0.00  0.00    +0.000 A 
ATOM     35  C   UNL     1      -2.665  12.448  20.857  0.00  0.00    +0.000 A 
BRANCH  34  36
ATOM     36  C   UNL     1      -5.176  12.607  20.634  0.00  0.00    +0.000 C 
ATOM     37  F   UNL     1      -6.283  12.178  21.304  0.00  0.00    +0.000 F 
ATOM     38  F   UNL     1      -5.482  13.852  20.174  0.00  0.00    +0.000 F 
ATOM     39  F   UNL     1      -5.081  11.816  19.530  0.00  0.00    +0.000 F 
ENDBRANCH  34  36
ENDBRANCH  29  30
ENDBRANCH   7  29
TORSDOF 12
ENDMDL
MODEL 7
REMARK VINA RESULT:      -7.8      3.011      3.921
REMARK  Name = 
REMARK  13 active torsions:
REMARK  status: ('A' for Active; 'I' for Inactive)
REMARK    1  A    between atoms: C_1  and  O_2
REMARK    2  A    between atoms: O_2  and  C_3
REMARK    3  A    between atoms: C_7  and  C_8
REMARK    4  A    between atoms: C_8  and  N_9
REMARK    5  A    between atoms: N_9  and  C_10
REMARK    6  A    between atoms: C_10  and  C_11
REMARK    7  A    between atoms: C_11  and  C_12
REMARK    8  A    between atoms: C_12  and  N_13
REMARK    9  A    between atoms: N_13  and  C_14
REMARK   10  A    between atoms: C_20  and  C_21
REMARK   11  A    between atoms: C_21  and  C_22
REMARK   12  A    between atoms: C_26  and  C_27
REMARK   13  A    between atoms: C_35  and  O_36
REMARK                            x       y       z     vdW  Elec       q    Type
REMARK                         _______ _______ _______ _____ _____    ______ ____
ROOT
ATOM      1  C   UNL     1       1.920   7.726  19.799  0.00  0.00    +0.000 A 
ATOM      2  C   UNL     1       2.581   7.417  18.610  0.00  0.00    +0.000 A 
ATOM      3  C   UNL     1       2.561   8.321  17.568  0.00  0.00    +0.000 A 
ATOM      4  N   UNL     1       1.913   9.494  17.607  0.00  0.00    +0.000 NA
ATOM      5  C   UNL     1       1.235   9.804  18.727  0.00  0.00    +0.000 A 
ATOM      6  C   UNL     1       0.544  11.010  18.756  0.00  0.00    +0.000 A 
ATOM      7  C   UNL     1      -0.196  11.433  19.871  0.00  0.00    +0.000 A 
ATOM      8  C   UNL     1      -0.253  10.587  20.984  0.00  0.00    +0.000 A 
ATOM      9  C   UNL     1       0.452   9.380  20.984  0.00  0.00    +0.000 A 
ATOM     10  C   UNL     1       1.206   8.954  19.863  0.00  0.00    +0.000 A 
ENDROOT
BRANCH   1  11
ATOM     11  N   UNL     1       1.874   6.804  20.871  0.00  0.00    +0.000 N 
ATOM     12  H   UNL     1       2.741   6.827  21.408  0.00  0.00    +0.000 HD
BRANCH  11  13
ATOM     13  C   UNL     1       1.374   5.458  20.606  0.00  0.00    +0.000 C 
BRANCH  13  14
ATOM     14  C   UNL     1       2.236   4.406  21.285  0.00  0.00    +0.000 C 
BRANCH  14  15
ATOM     15  C   UNL     1       1.522   3.048  21.262  0.00  0.00    +0.000 C 
BRANCH  15  16
ATOM     16  N   UNL     1       1.220   2.731  19.873  0.00  0.00    +0.000 NA
ATOM     17  H   UNL     1       0.369   2.159  19.840  0.00  0.00    +0.000 HD
BRANCH  16  18
ATOM     18  C   UNL     1       2.287   1.977  19.204  0.00  0.00    +0.000 C 
BRANCH  18  23
ATOM     19  C   UNL     1       5.447   4.049  18.405  0.00  0.00    +0.000 A 
ATOM     20  C   UNL     1       4.986   4.754  17.287  0.00  0.00    +0.000 A 
ATOM     21  C   UNL     1       3.707   4.534  16.774  0.00  0.00    +0.000 A 
ATOM     22  C   UNL     1       2.851   3.633  17.405  0.00  0.00    +0.000 A 
ATOM     23  C   UNL     1       3.270   2.926  18.542  0.00  0.00    +0.000 A 
ATOM     24  C   UNL     1       4.597   3.106  18.999  0.00  0.00    +0.000 A 
BRANCH  19  26
ATOM     25  C   UNL     1       7.670   4.646  17.747  0.00  0.00    +0.000 C 
ATOM     26  O   UNL     1       6.719   4.401  18.775  0.00  0.00    +0.000 OA
ENDBRANCH  19  26
BRANCH  24  27
ATOM     27  O   UNL     1       5.058   2.328  20.033  0.00  0.00    +0.000 OA
ATOM     28  H   UNL     1       4.359   2.312  20.721  0.00  0.00    +0.000 HD
ENDBRANCH  24  27
ENDBRANCH  18  23
ENDBRANCH  16  18
ENDBRANCH  15  16
ENDBRANCH  14  15
ENDBRANCH  13  14
ENDBRANCH  11  13
ENDBRANCH   1  11
BRANCH   7  29
ATOM     29  C   UNL     1      -0.894  12.778  19.881  0.00  0.00    +0.000 C 
BRANCH  29  30
ATOM     30  C   UNL     1       0.036  13.970  19.870  0.00  0.00    +0.000 A 
ATOM     31  C   UNL     1       1.252  13.933  20.566  0.00  0.00    +0.000 A 
ATOM     32  C   UNL     1       2.139  15.009  20.508  0.00  0.00    +0.000 A 
ATOM     33  C   UNL     1       1.830  16.129  19.738  0.00  0.00    +0.000 A 
ATOM     34  C   UNL     1       0.620  16.194  19.034  0.00  0.00    +0.000 A 
ATOM     35  C   UNL     1      -0.283  15.120  19.131  0.00  0.00    +0.000 A 
BRANCH  34  36
ATOM     36  C   UNL     1       0.304  17.368  18.140  0.00  0.00    +0.000 C 
ATOM     37  F   UNL     1      -0.726  17.137  17.278  0.00  0.00    +0.000 F 
ATOM     38  F   UNL     1      -0.048  18.477  18.849  0.00  0.00    +0.000 F 
ATOM     39  F   UNL     1       1.360  17.742  17.365  0.00  0.00    +0.000 F 
ENDBRANCH  34  36
ENDBRANCH  29  30
ENDBRANCH   7  29
TORSDOF 12
ENDMDL
MODEL 8
REMARK VINA RESULT:      -7.8      1.824      2.492
REMARK  Name = 
REMARK  13 active torsions:
REMARK  status: ('A' for Active; 'I' for Inactive)
REMARK    1  A    between atoms: C_1  and  O_2
REMARK    2  A    between atoms: O_2  and  C_3
REMARK    3  A    between atoms: C_7  and  C_8
REMARK    4  A    between atoms: C_8  and  N_9
REMARK    5  A    between atoms: N_9  and  C_10
REMARK    6  A    between atoms: C_10  and  C_11
REMARK    7  A    between atoms: C_11  and  C_12
REMARK    8  A    between atoms: C_12  and  N_13
REMARK    9  A    between atoms: N_13  and  C_14
REMARK   10  A    between atoms: C_20  and  C_21
REMARK   11  A    between atoms: C_21  and  C_22
REMARK   12  A    between atoms: C_26  and  C_27
REMARK   13  A    between atoms: C_35  and  O_36
REMARK                            x       y       z     vdW  Elec       q    Type
REMARK                         _______ _______ _______ _____ _____    ______ ____
ROOT
ATOM      1  C   UNL     1       2.122   7.282  19.854  0.00  0.00    +0.000 A 
ATOM      2  C   UNL     1       2.804   7.138  18.646  0.00  0.00    +0.000 A 
ATOM      3  C   UNL     1       2.812   8.182  17.743  0.00  0.00    +0.000 A 
ATOM      4  N   UNL     1       2.172   9.344  17.936  0.00  0.00    +0.000 NA
ATOM      5  C   UNL     1       1.475   9.499  19.076  0.00  0.00    +0.000 A 
ATOM      6  C   UNL     1       0.791  10.695  19.264  0.00  0.00    +0.000 A 
ATOM      7  C   UNL     1       0.033  10.963  20.414  0.00  0.00    +0.000 A 
ATOM      8  C   UNL     1      -0.053   9.968  21.393  0.00  0.00    +0.000 A 
ATOM      9  C   UNL     1       0.642   8.766  21.235  0.00  0.00    +0.000 A 
ATOM     10  C   UNL     1       1.416   8.495  20.078  0.00  0.00    +0.000 A 
ENDROOT
BRANCH   1  11
ATOM     11  N   UNL     1       2.047   6.217  20.782  0.00  0.00    +0.000 N 
ATOM     12  H   UNL     1       2.286   6.536  21.721  0.00  0.00    +0.000 HD
BRANCH  11  13
ATOM     13  C   UNL     1       2.647   4.936  20.418  0.00  0.00    +0.000 C 
BRANCH  13  14
ATOM     14  C   UNL     1       1.764   4.170  19.448  0.00  0.00    +0.000 C 
BRANCH  14  15
ATOM     15  C   UNL     1       2.632   3.401  18.444  0.00  0.00    +0.000 C 
BRANCH  15  16
ATOM     16  N   UNL     1       3.018   4.329  17.390  0.00  0.00    +0.000 NA
ATOM     17  H   UNL     1       2.306   4.310  16.653  0.00  0.00    +0.000 HD
BRANCH  16  18
ATOM     18  C   UNL     1       4.307   4.001  16.771  0.00  0.00    +0.000 C 
BRANCH  18  23
ATOM     19  C   UNL     1       7.019   6.685  17.367  0.00  0.00    +0.000 A 
ATOM     20  C   UNL     1       7.518   6.241  18.598  0.00  0.00    +0.000 A 
ATOM     21  C   UNL     1       6.966   5.134  19.242  0.00  0.00    +0.000 A 
ATOM     22  C   UNL     1       5.928   4.425  18.639  0.00  0.00    +0.000 A 
ATOM     23  C   UNL     1       5.419   4.825  17.394  0.00  0.00    +0.000 A 
ATOM     24  C   UNL     1       5.940   5.996  16.795  0.00  0.00    +0.000 A 
BRANCH  19  26
ATOM     25  C   UNL     1       7.826   8.910  17.722  0.00  0.00    +0.000 C 
ATOM     26  O   UNL     1       7.689   7.776  16.878  0.00  0.00    +0.000 OA
ENDBRANCH  19  26
BRANCH  24  27
ATOM     27  O   UNL     1       5.365   6.469  15.641  0.00  0.00    +0.000 OA
ATOM     28  H   UNL     1       5.680   7.389  15.513  0.00  0.00    +0.000 HD
ENDBRANCH  24  27
ENDBRANCH  18  23
ENDBRANCH  16  18
ENDBRANCH  15  16
ENDBRANCH  14  15
ENDBRANCH  13  14
ENDBRANCH  11  13
ENDBRANCH   1  11
BRANCH   7  29
ATOM     29  C   UNL     1      -0.655  12.299  20.602  0.00  0.00    +0.000 C 
BRANCH  29  30
ATOM     30  C   UNL     1      -2.120  12.312  20.233  0.00  0.00    +0.000 A 
ATOM     31  C   UNL     1      -3.047  13.020  21.012  0.00  0.00    +0.000 A 
ATOM     32  C   UNL     1      -4.390  13.083  20.640  0.00  0.00    +0.000 A 
ATOM     33  C   UNL     1      -4.822  12.454  19.473  0.00  0.00    +0.000 A 
ATOM     34  C   UNL     1      -3.919  11.737  18.677  0.00  0.00    +0.000 A 
ATOM     35  C   UNL     1      -2.575  11.648  19.083  0.00  0.00    +0.000 A 
BRANCH  34  36
ATOM     36  C   UNL     1      -4.358  11.114  17.375  0.00  0.00    +0.000 C 
ATOM     37  F   UNL     1      -3.864   9.859  17.175  0.00  0.00    +0.000 F 
ATOM     38  F   UNL     1      -5.712  10.995  17.291  0.00  0.00    +0.000 F 
ATOM     39  F   UNL     1      -3.980  11.839  16.286  0.00  0.00    +0.000 F 
ENDBRANCH  34  36
ENDBRANCH  29  30
ENDBRANCH   7  29
TORSDOF 12
ENDMDL
MODEL 9
REMARK VINA RESULT:      -7.8      1.080      1.523
REMARK  Name = 
REMARK  13 active torsions:
REMARK  status: ('A' for Active; 'I' for Inactive)
REMARK    1  A    between atoms: C_1  and  O_2
REMARK    2  A    between atoms: O_2  and  C_3
REMARK    3  A    between atoms: C_7  and  C_8
REMARK    4  A    between atoms: C_8  and  N_9
REMARK    5  A    between atoms: N_9  and  C_10
REMARK    6  A    between atoms: C_10  and  C_11
REMARK    7  A    between atoms: C_11  and  C_12
REMARK    8  A    between atoms: C_12  and  N_13
REMARK    9  A    between atoms: N_13  and  C_14
REMARK   10  A    between atoms: C_20  and  C_21
REMARK   11  A    between atoms: C_21  and  C_22
REMARK   12  A    between atoms: C_26  and  C_27
REMARK   13  A    between atoms: C_35  and  O_36
REMARK                            x       y       z     vdW  Elec       q    Type
REMARK                         _______ _______ _______ _____ _____    ______ ____
ROOT
ATOM      1  C   UNL     1       2.212   7.379  19.709  0.00  0.00    +0.000 A 
ATOM      2  C   UNL     1       3.007   7.203  18.576  0.00  0.00    +0.000 A 
ATOM      3  C   UNL     1       2.930   8.117  17.544  0.00  0.00    +0.000 A 
ATOM      4  N   UNL     1       2.106   9.173  17.540  0.00  0.00    +0.000 NA
ATOM      5  C   UNL     1       1.300   9.350  18.603  0.00  0.00    +0.000 A 
ATOM      6  C   UNL     1       0.428  10.433  18.587  0.00  0.00    +0.000 A 
ATOM      7  C   UNL     1      -0.456  10.711  19.640  0.00  0.00    +0.000 A 
ATOM      8  C   UNL     1      -0.470   9.842  20.736  0.00  0.00    +0.000 A 
ATOM      9  C   UNL     1       0.413   8.759  20.784  0.00  0.00    +0.000 A 
ATOM     10  C   UNL     1       1.312   8.479  19.724  0.00  0.00    +0.000 A 
ENDROOT
BRANCH   1  11
ATOM     11  N   UNL     1       2.224   6.437  20.764  0.00  0.00    +0.000 N 
ATOM     12  H   UNL     1       3.179   6.229  21.054  0.00  0.00    +0.000 HD
BRANCH  11  13
ATOM     13  C   UNL     1       1.366   5.260  20.652  0.00  0.00    +0.000 C 
BRANCH  13  14
ATOM     14  C   UNL     1       1.380   4.700  19.239  0.00  0.00    +0.000 C 
BRANCH  14  15
ATOM     15  C   UNL     1       2.383   3.545  19.142  0.00  0.00    +0.000 C 
BRANCH  15  16
ATOM     16  N   UNL     1       3.589   3.945  19.853  0.00  0.00    +0.000 NA
ATOM     17  H   UNL     1       3.649   4.969  19.857  0.00  0.00    +0.000 HD
BRANCH  16  18
ATOM     18  C   UNL     1       4.821   3.431  19.242  0.00  0.00    +0.000 C 
BRANCH  18  23
ATOM     19  C   UNL     1       7.029   6.310  17.919  0.00  0.00    +0.000 A 
ATOM     20  C   UNL     1       6.487   6.447  16.635  0.00  0.00    +0.000 A 
ATOM     21  C   UNL     1       5.470   5.603  16.190  0.00  0.00    +0.000 A 
ATOM     22  C   UNL     1       4.946   4.634  17.044  0.00  0.00    +0.000 A 
ATOM     23  C   UNL     1       5.446   4.484  18.346  0.00  0.00    +0.000 A 
ATOM     24  C   UNL     1       6.531   5.298  18.751  0.00  0.00    +0.000 A 
BRANCH  19  26
ATOM     25  C   UNL     1       7.836   8.553  17.701  0.00  0.00    +0.000 C 
ATOM     26  O   UNL     1       8.009   7.230  18.189  0.00  0.00    +0.000 OA
ENDBRANCH  19  26
BRANCH  24  27
ATOM     27  O   UNL     1       7.112   5.075  19.976  0.00  0.00    +0.000 OA
ATOM     28  H   UNL     1       6.595   4.369  20.420  0.00  0.00    +0.000 HD
ENDBRANCH  24  27
ENDBRANCH  18  23
ENDBRANCH  16  18
ENDBRANCH  15  16
ENDBRANCH  14  15
ENDBRANCH  13  14
ENDBRANCH  11  13
ENDBRANCH   1  11
BRANCH   7  29
ATOM     29  C   UNL     1      -1.353  11.931  19.606  0.00  0.00    +0.000 C 
BRANCH  29  30
ATOM     30  C   UNL     1      -2.573  11.791  18.724  0.00  0.00    +0.000 A 
ATOM     31  C   UNL     1      -2.450  11.346  17.400  0.00  0.00    +0.000 A 
ATOM     32  C   UNL     1      -3.579  11.160  16.603  0.00  0.00    +0.000 A 
ATOM     33  C   UNL     1      -4.850  11.398  17.125  0.00  0.00    +0.000 A 
ATOM     34  C   UNL     1      -5.003  11.846  18.444  0.00  0.00    +0.000 A 
ATOM     35  C   UNL     1      -3.855  12.068  19.225  0.00  0.00    +0.000 A 
BRANCH  34  36
ATOM     36  C   UNL     1      -6.374  12.037  19.044  0.00  0.00    +0.000 C 
ATOM     37  F   UNL     1      -7.392  11.732  18.191  0.00  0.00    +0.000 F 
ATOM     38  F   UNL     1      -6.569  11.258  20.145  0.00  0.00    +0.000 F 
ATOM     39  F   UNL     1      -6.601  13.317  19.450  0.00  0.00    +0.000 F 
ENDBRANCH  34  36
ENDBRANCH  29  30
ENDBRANCH   7  29
TORSDOF 12
ENDMDL
