MODEL 1
REMARK VINA RESULT:      -8.0      0.000      0.000
REMARK  Name = 
REMARK  1 active torsions:
REMARK  status: ('A' for Active; 'I' for Inactive)
REMARK    1  A    between atoms: C_5  and  C_6
REMARK                            x       y       z     vdW  Elec       q    Type
REMARK                         _______ _______ _______ _____ _____    ______ ____
ROOT
ATOM      1  C   UNL     1       1.749   7.631  20.220  0.00  0.00    +0.000 A 
ATOM      2  N   UNL     1       2.434   7.723  19.092  0.00  0.00    +0.000 NA
ATOM      3  C   UNL     1       3.020   6.485  18.890  0.00  0.00    +0.000 A 
ATOM      4  C   UNL     1       2.651   5.616  19.904  0.00  0.00    +0.000 A 
ATOM      5  C   UNL     1       3.072   4.302  19.944  0.00  0.00    +0.000 A 
ATOM      6  N   UNL     1       3.887   3.849  18.963  0.00  0.00    +0.000 NA
ATOM      7  C   UNL     1       4.280   4.666  17.966  0.00  0.00    +0.000 A 
ATOM      8  C   UNL     1       5.125   4.177  16.977  0.00  0.00    +0.000 A 
ATOM      9  C   UNL     1       5.571   4.980  15.921  0.00  0.00    +0.000 A 
ATOM     10  C   UNL     1       5.168   6.310  15.838  0.00  0.00    +0.000 A 
ATOM     11  C   UNL     1       4.320   6.836  16.810  0.00  0.00    +0.000 A 
ATOM     12  C   UNL     1       3.878   6.014  17.869  0.00  0.00    +0.000 A 
ATOM     13  N   UNL     1       1.853   6.355  20.729  0.00  0.00    +0.000 N 
ATOM     14  H   UNL     1       1.394   6.028  21.566  0.00  0.00    +0.000 HD
ENDROOT
BRANCH   1  19
ATOM     15 CL   UNL     1      -1.474  11.924  22.876  0.00  0.00    +0.000 Cl
ATOM     16  C   UNL     1      -0.551  10.691  22.110  0.00  0.00    +0.000 A 
ATOM     17  C   UNL     1       0.034   9.685  22.876  0.00  0.00    +0.000 A 
ATOM     18  C   UNL     1       0.778   8.679  22.251  0.00  0.00    +0.000 A 
ATOM     19  C   UNL     1       0.955   8.679  20.860  0.00  0.00    +0.000 A 
ATOM     20  C   UNL     1       0.356   9.700  20.105  0.00  0.00    +0.000 A 
ATOM     21  C   UNL     1      -0.396  10.700  20.726  0.00  0.00    +0.000 A 
ENDBRANCH   1  19
TORSDOF 1
ENDMDL
MODEL 2
REMARK VINA RESULT:      -7.9      0.098      1.083
REMARK  Name = 
REMARK  1 active torsions:
REMARK  status: ('A' for Active; 'I' for Inactive)
REMARK    1  A    between atoms: C_5  and  C_6
REMARK                            x       y       z     vdW  Elec       q    Type
REMARK                         _______ _______ _______ _____ _____    ______ ____
ROOT
ATOM      1  C   UNL     1       1.788   7.660  20.204  0.00  0.00    +0.000 A 
ATOM      2  N   UNL     1       2.475   7.730  19.076  0.00  0.00    +0.000 NA
ATOM      3  C   UNL     1       3.031   6.477  18.881  0.00  0.00    +0.000 A 
ATOM      4  C   UNL     1       2.641   5.622  19.899  0.00  0.00    +0.000 A 
ATOM      5  C   UNL     1       3.029   4.298  19.948  0.00  0.00    +0.000 A 
ATOM      6  N   UNL     1       3.833   3.820  18.970  0.00  0.00    +0.000 NA
ATOM      7  C   UNL     1       4.247   4.621  17.969  0.00  0.00    +0.000 A 
ATOM      8  C   UNL     1       5.080   4.107  16.983  0.00  0.00    +0.000 A 
ATOM      9  C   UNL     1       5.547   4.892  15.923  0.00  0.00    +0.000 A 
ATOM     10  C   UNL     1       5.176   6.231  15.831  0.00  0.00    +0.000 A 
ATOM     11  C   UNL     1       4.340   6.784  16.800  0.00  0.00    +0.000 A 
ATOM     12  C   UNL     1       3.878   5.979  17.863  0.00  0.00    +0.000 A 
ATOM     13  N   UNL     1       1.861   6.385  20.721  0.00  0.00    +0.000 N 
ATOM     14  H   UNL     1       1.393   6.074  21.559  0.00  0.00    +0.000 HD
ENDROOT
BRANCH   1  19
ATOM     15 CL   UNL     1      -1.386  12.047  22.764  0.00  0.00    +0.000 Cl
ATOM     16  C   UNL     1      -0.472  10.787  22.031  0.00  0.00    +0.000 A 
ATOM     17  C   UNL     1      -0.235  10.809  20.659  0.00  0.00    +0.000 A 
ATOM     18  C   UNL     1       0.514   9.787  20.066  0.00  0.00    +0.000 A 
ATOM     19  C   UNL     1       1.019   8.731  20.838  0.00  0.00    +0.000 A 
ATOM     20  C   UNL     1       0.772   8.728  22.220  0.00  0.00    +0.000 A 
ATOM     21  C   UNL     1       0.032   9.752  22.816  0.00  0.00    +0.000 A 
ENDBRANCH   1  19
TORSDOF 1
ENDMDL
MODEL 3
REMARK VINA RESULT:      -7.9      3.273      7.577
REMARK  Name = 
REMARK  1 active torsions:
REMARK  status: ('A' for Active; 'I' for Inactive)
REMARK    1  A    between atoms: C_5  and  C_6
REMARK                            x       y       z     vdW  Elec       q    Type
REMARK                         _______ _______ _______ _____ _____    ______ ____
ROOT
ATOM      1  C   UNL     1       2.395   7.792  18.468  0.00  0.00    +0.000 A 
ATOM      2  N   UNL     1       1.966   7.815  19.719  0.00  0.00    +0.000 NA
ATOM      3  C   UNL     1       1.206   8.964  19.849  0.00  0.00    +0.000 A 
ATOM      4  C   UNL     1       1.146   9.632  18.636  0.00  0.00    +0.000 A 
ATOM      5  C   UNL     1       0.434  10.802  18.467  0.00  0.00    +0.000 A 
ATOM      6  N   UNL     1      -0.222  11.324  19.530  0.00  0.00    +0.000 NA
ATOM      7  C   UNL     1      -0.179  10.713  20.730  0.00  0.00    +0.000 A 
ATOM      8  C   UNL     1      -0.853  11.276  21.806  0.00  0.00    +0.000 A 
ATOM      9  C   UNL     1      -0.840  10.691  23.078  0.00  0.00    +0.000 A 
ATOM     10  C   UNL     1      -0.138   9.508  23.293  0.00  0.00    +0.000 A 
ATOM     11  C   UNL     1       0.550   8.912  22.238  0.00  0.00    +0.000 A 
ATOM     12  C   UNL     1       0.527   9.514  20.961  0.00  0.00    +0.000 A 
ATOM     13  N   UNL     1       1.901   8.879  17.782  0.00  0.00    +0.000 N 
ATOM     14  H   UNL     1       2.061   9.067  16.804  0.00  0.00    +0.000 HD
ENDROOT
BRANCH   1  19
ATOM     15 CL   UNL     1       5.886   3.649  15.914  0.00  0.00    +0.000 Cl
ATOM     16  C   UNL     1       4.880   4.837  16.647  0.00  0.00    +0.000 A 
ATOM     17  C   UNL     1       5.212   6.186  16.545  0.00  0.00    +0.000 A 
ATOM     18  C   UNL     1       4.389   7.151  17.134  0.00  0.00    +0.000 A 
ATOM     19  C   UNL     1       3.239   6.774  17.842  0.00  0.00    +0.000 A 
ATOM     20  C   UNL     1       2.920   5.410  17.932  0.00  0.00    +0.000 A 
ATOM     21  C   UNL     1       3.735   4.445  17.335  0.00  0.00    +0.000 A 
ENDBRANCH   1  19
TORSDOF 1
ENDMDL
MODEL 4
REMARK VINA RESULT:      -7.9      3.275      7.543
REMARK  Name = 
REMARK  1 active torsions:
REMARK  status: ('A' for Active; 'I' for Inactive)
REMARK    1  A    between atoms: C_5  and  C_6
REMARK                            x       y       z     vdW  Elec       q    Type
REMARK                         _______ _______ _______ _____ _____    ______ ____
ROOT
ATOM      1  C   UNL     1       2.399   7.820  18.461  0.00  0.00    +0.000 A 
ATOM      2  N   UNL     1       1.968   7.841  19.712  0.00  0.00    +0.000 NA
ATOM      3  C   UNL     1       1.201   8.987  19.840  0.00  0.00    +0.000 A 
ATOM      4  C   UNL     1       1.140   9.654  18.627  0.00  0.00    +0.000 A 
ATOM      5  C   UNL     1       0.421  10.820  18.456  0.00  0.00    +0.000 A 
ATOM      6  N   UNL     1      -0.239  11.338  19.518  0.00  0.00    +0.000 NA
ATOM      7  C   UNL     1      -0.195  10.728  20.719  0.00  0.00    +0.000 A 
ATOM      8  C   UNL     1      -0.874  11.288  21.793  0.00  0.00    +0.000 A 
ATOM      9  C   UNL     1      -0.859  10.703  23.065  0.00  0.00    +0.000 A 
ATOM     10  C   UNL     1      -0.150   9.524  23.282  0.00  0.00    +0.000 A 
ATOM     11  C   UNL     1       0.542   8.931  22.228  0.00  0.00    +0.000 A 
ATOM     12  C   UNL     1       0.517   9.533  20.951  0.00  0.00    +0.000 A 
ATOM     13  N   UNL     1       1.900   8.905  17.774  0.00  0.00    +0.000 N 
ATOM     14  H   UNL     1       2.061   9.093  16.796  0.00  0.00    +0.000 HD
ENDROOT
BRANCH   1  19
ATOM     15 CL   UNL     1       5.845   3.650  15.892  0.00  0.00    +0.000 Cl
ATOM     16  C   UNL     1       4.858   4.850  16.631  0.00  0.00    +0.000 A 
ATOM     17  C   UNL     1       3.720   4.473  17.338  0.00  0.00    +0.000 A 
ATOM     18  C   UNL     1       2.922   5.449  17.945  0.00  0.00    +0.000 A 
ATOM     19  C   UNL     1       3.250   6.807  17.836  0.00  0.00    +0.000 A 
ATOM     20  C   UNL     1       4.403   7.169  17.121  0.00  0.00    +0.000 A 
ATOM     21  C   UNL     1       5.206   6.194  16.523  0.00  0.00    +0.000 A 
ENDBRANCH   1  19
TORSDOF 1
ENDMDL
MODEL 5
REMARK VINA RESULT:      -7.8      6.373      7.080
REMARK  Name = 
REMARK  1 active torsions:
REMARK  status: ('A' for Active; 'I' for Inactive)
REMARK    1  A    between atoms: C_5  and  C_6
REMARK                            x       y       z     vdW  Elec       q    Type
REMARK                         _______ _______ _______ _____ _____    ______ ____
ROOT
ATOM      1  C   UNL     1       8.391   8.980  18.231  0.00  0.00    +0.000 A 
ATOM      2  N   UNL     1       7.574   8.535  17.290  0.00  0.00    +0.000 NA
ATOM      3  C   UNL     1       7.383   7.188  17.548  0.00  0.00    +0.000 A 
ATOM      4  C   UNL     1       8.074   6.821  18.692  0.00  0.00    +0.000 A 
ATOM      5  C   UNL     1       8.043   5.538  19.199  0.00  0.00    +0.000 A 
ATOM      6  N   UNL     1       7.321   4.598  18.546  0.00  0.00    +0.000 NA
ATOM      7  C   UNL     1       6.645   4.909  17.422  0.00  0.00    +0.000 A 
ATOM      8  C   UNL     1       5.920   3.922  16.767  0.00  0.00    +0.000 A 
ATOM      9  C   UNL     1       5.204   4.184  15.593  0.00  0.00    +0.000 A 
ATOM     10  C   UNL     1       5.204   5.465  15.048  0.00  0.00    +0.000 A 
ATOM     11  C   UNL     1       5.918   6.483  15.678  0.00  0.00    +0.000 A 
ATOM     12  C   UNL     1       6.634   6.203  16.861  0.00  0.00    +0.000 A 
ATOM     13  N   UNL     1       8.701   7.962  19.105  0.00  0.00    +0.000 N 
ATOM     14  H   UNL     1       9.281   8.061  19.924  0.00  0.00    +0.000 HD
ENDROOT
BRANCH   1  19
ATOM     15 CL   UNL     1      10.494  14.549  18.887  0.00  0.00    +0.000 Cl
ATOM     16  C   UNL     1       9.887  12.951  18.698  0.00  0.00    +0.000 A 
ATOM     17  C   UNL     1      10.411  11.915  19.466  0.00  0.00    +0.000 A 
ATOM     18  C   UNL     1       9.911  10.616  19.316  0.00  0.00    +0.000 A 
ATOM     19  C   UNL     1       8.895  10.345  18.390  0.00  0.00    +0.000 A 
ATOM     20  C   UNL     1       8.377  11.403  17.626  0.00  0.00    +0.000 A 
ATOM     21  C   UNL     1       8.868  12.702  17.781  0.00  0.00    +0.000 A 
ENDBRANCH   1  19
TORSDOF 1
ENDMDL
MODEL 6
REMARK VINA RESULT:      -7.8      4.739      6.064
REMARK  Name = 
REMARK  1 active torsions:
REMARK  status: ('A' for Active; 'I' for Inactive)
REMARK    1  A    between atoms: C_5  and  C_6
REMARK                            x       y       z     vdW  Elec       q    Type
REMARK                         _______ _______ _______ _____ _____    ______ ____
ROOT
ATOM      1  C   UNL     1       4.536   3.971  17.733  0.00  0.00    +0.000 A 
ATOM      2  N   UNL     1       4.506   3.532  16.485  0.00  0.00    +0.000 NA
ATOM      3  C   UNL     1       5.539   4.173  15.823  0.00  0.00    +0.000 A 
ATOM      4  C   UNL     1       6.230   4.991  16.702  0.00  0.00    +0.000 A 
ATOM      5  C   UNL     1       7.328   5.734  16.318  0.00  0.00    +0.000 A 
ATOM      6  N   UNL     1       7.737   5.672  15.030  0.00  0.00    +0.000 NA
ATOM      7  C   UNL     1       7.085   4.899  14.139  0.00  0.00    +0.000 A 
ATOM      8  C   UNL     1       7.521   4.862  12.821  0.00  0.00    +0.000 A 
ATOM      9  C   UNL     1       6.880   4.082  11.850  0.00  0.00    +0.000 A 
ATOM     10  C   UNL     1       5.771   3.313  12.194  0.00  0.00    +0.000 A 
ATOM     11  C   UNL     1       5.305   3.323  13.507  0.00  0.00    +0.000 A 
ATOM     12  C   UNL     1       5.962   4.113  14.475  0.00  0.00    +0.000 A 
ATOM     13  N   UNL     1       5.583   4.850  17.897  0.00  0.00    +0.000 N 
ATOM     14  H   UNL     1       5.833   5.295  18.767  0.00  0.00    +0.000 HD
ENDROOT
BRANCH   1  19
ATOM     15 CL   UNL     1       0.903   2.416  22.234  0.00  0.00    +0.000 Cl
ATOM     16  C   UNL     1       1.944   2.862  20.939  0.00  0.00    +0.000 A 
ATOM     17  C   UNL     1       3.279   2.467  20.954  0.00  0.00    +0.000 A 
ATOM     18  C   UNL     1       4.122   2.824  19.896  0.00  0.00    +0.000 A 
ATOM     19  C   UNL     1       3.640   3.590  18.825  0.00  0.00    +0.000 A 
ATOM     20  C   UNL     1       2.291   3.978  18.827  0.00  0.00    +0.000 A 
ATOM     21  C   UNL     1       1.445   3.614  19.878  0.00  0.00    +0.000 A 
ENDBRANCH   1  19
TORSDOF 1
ENDMDL
MODEL 7
REMARK VINA RESULT:      -7.7      6.370      7.115
REMARK  Name = 
REMARK  1 active torsions:
REMARK  status: ('A' for Active; 'I' for Inactive)
REMARK    1  A    between atoms: C_5  and  C_6
REMARK                            x       y       z     vdW  Elec       q    Type
REMARK                         _______ _______ _______ _____ _____    ______ ____
ROOT
ATOM      1  C   UNL     1       8.376   8.952  18.236  0.00  0.00    +0.000 A 
ATOM      2  N   UNL     1       7.565   8.511  17.289  0.00  0.00    +0.000 NA
ATOM      3  C   UNL     1       7.375   7.162  17.536  0.00  0.00    +0.000 A 
ATOM      4  C   UNL     1       8.062   6.789  18.680  0.00  0.00    +0.000 A 
ATOM      5  C   UNL     1       8.033   5.502  19.178  0.00  0.00    +0.000 A 
ATOM      6  N   UNL     1       7.316   4.565  18.515  0.00  0.00    +0.000 NA
ATOM      7  C   UNL     1       6.645   4.882  17.390  0.00  0.00    +0.000 A 
ATOM      8  C   UNL     1       5.925   3.898  16.725  0.00  0.00    +0.000 A 
ATOM      9  C   UNL     1       5.214   4.167  15.550  0.00  0.00    +0.000 A 
ATOM     10  C   UNL     1       5.212   5.452  15.014  0.00  0.00    +0.000 A 
ATOM     11  C   UNL     1       5.921   6.467  15.655  0.00  0.00    +0.000 A 
ATOM     12  C   UNL     1       6.633   6.181  16.839  0.00  0.00    +0.000 A 
ATOM     13  N   UNL     1       8.685   7.928  19.105  0.00  0.00    +0.000 N 
ATOM     14  H   UNL     1       9.261   8.023  19.927  0.00  0.00    +0.000 HD
ENDROOT
BRANCH   1  19
ATOM     15 CL   UNL     1      10.380  14.553  18.930  0.00  0.00    +0.000 Cl
ATOM     16  C   UNL     1       9.808  12.943  18.731  0.00  0.00    +0.000 A 
ATOM     17  C   UNL     1       8.836  12.666  17.774  0.00  0.00    +0.000 A 
ATOM     18  C   UNL     1       8.377  11.354  17.608  0.00  0.00    +0.000 A 
ATOM     19  C   UNL     1       8.875  10.317  18.408  0.00  0.00    +0.000 A 
ATOM     20  C   UNL     1       9.857  10.615  19.367  0.00  0.00    +0.000 A 
ATOM     21  C   UNL     1      10.323  11.923  19.526  0.00  0.00    +0.000 A 
ENDBRANCH   1  19
TORSDOF 1
ENDMDL
MODEL 8
REMARK VINA RESULT:      -7.7      4.742      6.161
REMARK  Name = 
REMARK  1 active torsions:
REMARK  status: ('A' for Active; 'I' for Inactive)
REMARK    1  A    between atoms: C_5  and  C_6
REMARK                            x       y       z     vdW  Elec       q    Type
REMARK                         _______ _______ _______ _____ _____    ______ ____
ROOT
ATOM      1  C   UNL     1       4.570   3.970  17.686  0.00  0.00    +0.000 A 
ATOM      2  N   UNL     1       4.522   3.532  16.439  0.00  0.00    +0.000 NA
ATOM      3  C   UNL     1       5.557   4.159  15.767  0.00  0.00    +0.000 A 
ATOM      4  C   UNL     1       6.267   4.968  16.639  0.00  0.00    +0.000 A 
ATOM      5  C   UNL     1       7.371   5.697  16.244  0.00  0.00    +0.000 A 
ATOM      6  N   UNL     1       7.767   5.629  14.952  0.00  0.00    +0.000 NA
ATOM      7  C   UNL     1       7.096   4.865  14.068  0.00  0.00    +0.000 A 
ATOM      8  C   UNL     1       7.518   4.822  12.745  0.00  0.00    +0.000 A 
ATOM      9  C   UNL     1       6.857   4.052  11.781  0.00  0.00    +0.000 A 
ATOM     10  C   UNL     1       5.742   3.297  12.135  0.00  0.00    +0.000 A 
ATOM     11  C   UNL     1       5.289   3.313  13.454  0.00  0.00    +0.000 A 
ATOM     12  C   UNL     1       5.966   4.094  14.414  0.00  0.00    +0.000 A 
ATOM     13  N   UNL     1       5.630   4.836  17.840  0.00  0.00    +0.000 N 
ATOM     14  H   UNL     1       5.894   5.277  18.708  0.00  0.00    +0.000 HD
ENDROOT
BRANCH   1  19
ATOM     15 CL   UNL     1       0.895   2.452  22.165  0.00  0.00    +0.000 Cl
ATOM     16  C   UNL     1       1.953   2.889  20.881  0.00  0.00    +0.000 A 
ATOM     17  C   UNL     1       1.474   3.644  19.814  0.00  0.00    +0.000 A 
ATOM     18  C   UNL     1       2.338   4.005  18.774  0.00  0.00    +0.000 A 
ATOM     19  C   UNL     1       3.680   3.601  18.788  0.00  0.00    +0.000 A 
ATOM     20  C   UNL     1       4.145   2.841  19.873  0.00  0.00    +0.000 A 
ATOM     21  C   UNL     1       3.287   2.488  20.917  0.00  0.00    +0.000 A 
ENDBRANCH   1  19
TORSDOF 1
ENDMDL
MODEL 9
REMARK VINA RESULT:      -7.5      1.020      1.627
REMARK  Name = 
REMARK  1 active torsions:
REMARK  status: ('A' for Active; 'I' for Inactive)
REMARK    1  A    between atoms: C_5  and  C_6
REMARK                            x       y       z     vdW  Elec       q    Type
REMARK                         _______ _______ _______ _____ _____    ______ ____
ROOT
ATOM      1  C   UNL     1       2.356   7.166  19.298  0.00  0.00    +0.000 A 
ATOM      2  N   UNL     1       3.121   7.248  18.221  0.00  0.00    +0.000 NA
ATOM      3  C   UNL     1       3.580   5.966  17.972  0.00  0.00    +0.000 A 
ATOM      4  C   UNL     1       3.051   5.085  18.901  0.00  0.00    +0.000 A 
ATOM      5  C   UNL     1       3.321   3.731  18.878  0.00  0.00    +0.000 A 
ATOM      6  N   UNL     1       4.145   3.249  17.920  0.00  0.00    +0.000 NA
ATOM      7  C   UNL     1       4.692   4.074  17.005  0.00  0.00    +0.000 A 
ATOM      8  C   UNL     1       5.543   3.553  16.039  0.00  0.00    +0.000 A 
ATOM      9  C   UNL     1       6.145   4.362  15.068  0.00  0.00    +0.000 A 
ATOM     10  C   UNL     1       5.897   5.732  15.050  0.00  0.00    +0.000 A 
ATOM     11  C   UNL     1       5.047   6.292  16.003  0.00  0.00    +0.000 A 
ATOM     12  C   UNL     1       4.448   5.463  16.975  0.00  0.00    +0.000 A 
ATOM     13  N   UNL     1       2.285   5.859  19.725  0.00  0.00    +0.000 N 
ATOM     14  H   UNL     1       1.737   5.537  20.509  0.00  0.00    +0.000 HD
ENDROOT
BRANCH   1  19
ATOM     15 CL   UNL     1      -0.599  11.641  21.966  0.00  0.00    +0.000 Cl
ATOM     16  C   UNL     1       0.251  10.355  21.203  0.00  0.00    +0.000 A 
ATOM     17  C   UNL     1       0.562  10.437  19.848  0.00  0.00    +0.000 A 
ATOM     18  C   UNL     1       1.260   9.394  19.230  0.00  0.00    +0.000 A 
ATOM     19  C   UNL     1       1.640   8.258  19.958  0.00  0.00    +0.000 A 
ATOM     20  C   UNL     1       1.320   8.195  21.324  0.00  0.00    +0.000 A 
ATOM     21  C   UNL     1       0.631   9.239  21.945  0.00  0.00    +0.000 A 
ENDBRANCH   1  19
TORSDOF 1
ENDMDL
