MODEL 1
REMARK VINA RESULT:      -7.9      0.000      0.000
REMARK  Name = 
REMARK  10 active torsions:
REMARK  status: ('A' for Active; 'I' for Inactive)
REMARK    1  A    between atoms: C_1  and  N_2
REMARK    2  A    between atoms: N_2  and  C_3
REMARK    3  A    between atoms: N_2  and  C_21
REMARK    4  A    between atoms: C_3  and  C_4
REMARK    5  A    between atoms: C_7  and  C_8
REMARK    6  A    between atoms: C_8  and  N_9
REMARK    7  A    between atoms: N_9  and  C_10
REMARK    8  A    between atoms: N_9  and  C_11
REMARK    9  A    between atoms: C_11  and  C_12
REMARK   10  A    between atoms: C_21  and  C_22
REMARK                            x       y       z     vdW  Elec       q    Type
REMARK                         _______ _______ _______ _____ _____    ______ ____
ROOT
ATOM      1  C   UNL     1       1.796   8.482  19.311  0.00  0.00    +0.000 A 
ATOM      2  C   UNL     1       2.421   8.661  18.065  0.00  0.00    +0.000 A 
ATOM      3  C   UNL     1       3.318   7.712  17.578  0.00  0.00    +0.000 A 
ATOM      4  C   UNL     1       3.643   6.585  18.344  0.00  0.00    +0.000 A 
ATOM      5  C   UNL     1       3.031   6.409  19.592  0.00  0.00    +0.000 A 
ATOM      6  C   UNL     1       2.110   7.344  20.065  0.00  0.00    +0.000 A 
ENDROOT
BRANCH   1   7
ATOM      7  C   UNL     1       0.766   9.475  19.803  0.00  0.00    +0.000 C 
BRANCH   7   9
ATOM      8  C   UNL     1       0.248  11.574  18.696  0.00  0.00    +0.000 C 
ATOM      9  N   UNL     1       0.004  10.126  18.714  0.00  0.00    +0.000 NA
BRANCH   9  10
ATOM     10  C   UNL     1      -1.434   9.827  18.874  0.00  0.00    +0.000 C 
BRANCH  10  11
ATOM     11  C   UNL     1      -2.269  10.324  17.707  0.00  0.00    +0.000 A 
ATOM     12  C   UNL     1      -3.365  11.175  17.928  0.00  0.00    +0.000 A 
ATOM     13  C   UNL     1      -4.218  11.526  16.879  0.00  0.00    +0.000 A 
ATOM     14  C   UNL     1      -3.980  11.034  15.595  0.00  0.00    +0.000 A 
ATOM     15  C   UNL     1      -2.878  10.220  15.371  0.00  0.00    +0.000 A 
ATOM     16  F   UNL     1      -2.653   9.739  14.140  0.00  0.00    +0.000 F 
ATOM     17  C   UNL     1      -2.015   9.869  16.406  0.00  0.00    +0.000 A 
ENDBRANCH  10  11
ENDBRANCH   9  10
ENDBRANCH   7   9
ENDBRANCH   1   7
BRANCH   4  18
ATOM     18  C   UNL     1       4.644   5.576  17.825  0.00  0.00    +0.000 C 
BRANCH  18  19
ATOM     19  N   UNL     1       4.067   4.656  16.825  0.00  0.00    +0.000 NA
ATOM     20  C   UNL     1       4.872   4.641  15.597  0.00  0.00    +0.000 C 
BRANCH  19  21
ATOM     21  C   UNL     1       3.971   3.289  17.358  0.00  0.00    +0.000 C 
BRANCH  21  22
ATOM     22  C   UNL     1       2.968   3.136  18.481  0.00  0.00    +0.000 A 
ATOM     23  C   UNL     1       1.602   3.370  18.253  0.00  0.00    +0.000 A 
ATOM     24  C   UNL     1       0.680   3.280  19.299  0.00  0.00    +0.000 A 
ATOM     25  C   UNL     1       1.115   2.955  20.582  0.00  0.00    +0.000 A 
ATOM     26  C   UNL     1       2.463   2.698  20.805  0.00  0.00    +0.000 A 
ATOM     27  F   UNL     1       2.877   2.374  22.037  0.00  0.00    +0.000 F 
ATOM     28  C   UNL     1       3.389   2.781  19.770  0.00  0.00    +0.000 A 
ENDBRANCH  21  22
ENDBRANCH  19  21
ENDBRANCH  18  19
ENDBRANCH   4  18
TORSDOF 8
ENDMDL
MODEL 2
REMARK VINA RESULT:      -7.8      3.328      8.422
REMARK  Name = 
REMARK  10 active torsions:
REMARK  status: ('A' for Active; 'I' for Inactive)
REMARK    1  A    between atoms: C_1  and  N_2
REMARK    2  A    between atoms: N_2  and  C_3
REMARK    3  A    between atoms: N_2  and  C_21
REMARK    4  A    between atoms: C_3  and  C_4
REMARK    5  A    between atoms: C_7  and  C_8
REMARK    6  A    between atoms: C_8  and  N_9
REMARK    7  A    between atoms: N_9  and  C_10
REMARK    8  A    between atoms: N_9  and  C_11
REMARK    9  A    between atoms: C_11  and  C_12
REMARK   10  A    between atoms: C_21  and  C_22
REMARK                            x       y       z     vdW  Elec       q    Type
REMARK                         _______ _______ _______ _____ _____    ______ ____
ROOT
ATOM      1  C   UNL     1       2.393   5.716  19.325  0.00  0.00    +0.000 A 
ATOM      2  C   UNL     1       2.160   6.760  20.236  0.00  0.00    +0.000 A 
ATOM      3  C   UNL     1       1.941   8.061  19.784  0.00  0.00    +0.000 A 
ATOM      4  C   UNL     1       1.990   8.353  18.415  0.00  0.00    +0.000 A 
ATOM      5  C   UNL     1       2.234   7.315  17.504  0.00  0.00    +0.000 A 
ATOM      6  C   UNL     1       2.423   6.009  17.956  0.00  0.00    +0.000 A 
ENDROOT
BRANCH   1   7
ATOM      7  C   UNL     1       2.555   4.293  19.814  0.00  0.00    +0.000 C 
BRANCH   7   9
ATOM      8  C   UNL     1       2.913   2.060  18.927  0.00  0.00    +0.000 C 
ATOM      9  N   UNL     1       3.384   3.452  18.924  0.00  0.00    +0.000 NA
BRANCH   9  10
ATOM     10  C   UNL     1       4.799   3.537  19.343  0.00  0.00    +0.000 C 
BRANCH  10  11
ATOM     11  C   UNL     1       5.601   4.514  18.502  0.00  0.00    +0.000 A 
ATOM     12  C   UNL     1       5.497   4.501  17.101  0.00  0.00    +0.000 A 
ATOM     13  C   UNL     1       6.330   5.301  16.317  0.00  0.00    +0.000 A 
ATOM     14  C   UNL     1       7.275   6.129  16.926  0.00  0.00    +0.000 A 
ATOM     15  C   UNL     1       7.355   6.167  18.311  0.00  0.00    +0.000 A 
ATOM     16  F   UNL     1       8.267   6.954  18.898  0.00  0.00    +0.000 F 
ATOM     17  C   UNL     1       6.524   5.380  19.105  0.00  0.00    +0.000 A 
ENDBRANCH  10  11
ENDBRANCH   9  10
ENDBRANCH   7   9
ENDBRANCH   1   7
BRANCH   4  18
ATOM     18  C   UNL     1       1.785   9.772  17.933  0.00  0.00    +0.000 C 
BRANCH  18  19
ATOM     19  N   UNL     1       1.331  10.683  19.001  0.00  0.00    +0.000 NA
ATOM     20  C   UNL     1       1.805  12.051  18.765  0.00  0.00    +0.000 C 
BRANCH  19  21
ATOM     21  C   UNL     1      -0.136  10.689  19.102  0.00  0.00    +0.000 C 
BRANCH  21  22
ATOM     22  C   UNL     1      -0.656  10.923  20.504  0.00  0.00    +0.000 A 
ATOM     23  C   UNL     1      -1.545  11.977  20.769  0.00  0.00    +0.000 A 
ATOM     24  C   UNL     1      -1.986  12.227  22.071  0.00  0.00    +0.000 A 
ATOM     25  C   UNL     1      -1.542  11.425  23.120  0.00  0.00    +0.000 A 
ATOM     26  C   UNL     1      -0.683  10.365  22.857  0.00  0.00    +0.000 A 
ATOM     27  F   UNL     1      -0.267   9.588  23.866  0.00  0.00    +0.000 F 
ATOM     28  C   UNL     1      -0.240  10.104  21.564  0.00  0.00    +0.000 A 
ENDBRANCH  21  22
ENDBRANCH  19  21
ENDBRANCH  18  19
ENDBRANCH   4  18
TORSDOF 8
ENDMDL
MODEL 3
REMARK VINA RESULT:      -7.7      2.318      8.752
REMARK  Name = 
REMARK  10 active torsions:
REMARK  status: ('A' for Active; 'I' for Inactive)
REMARK    1  A    between atoms: C_1  and  N_2
REMARK    2  A    between atoms: N_2  and  C_3
REMARK    3  A    between atoms: N_2  and  C_21
REMARK    4  A    between atoms: C_3  and  C_4
REMARK    5  A    between atoms: C_7  and  C_8
REMARK    6  A    between atoms: C_8  and  N_9
REMARK    7  A    between atoms: N_9  and  C_10
REMARK    8  A    between atoms: N_9  and  C_11
REMARK    9  A    between atoms: C_11  and  C_12
REMARK   10  A    between atoms: C_21  and  C_22
REMARK                            x       y       z     vdW  Elec       q    Type
REMARK                         _______ _______ _______ _____ _____    ______ ____
ROOT
ATOM      1  C   UNL     1       2.159   5.041  19.299  0.00  0.00    +0.000 A 
ATOM      2  C   UNL     1       2.252   5.809  18.125  0.00  0.00    +0.000 A 
ATOM      3  C   UNL     1       2.127   7.196  18.174  0.00  0.00    +0.000 A 
ATOM      4  C   UNL     1       1.866   7.843  19.388  0.00  0.00    +0.000 A 
ATOM      5  C   UNL     1       1.761   7.079  20.559  0.00  0.00    +0.000 A 
ATOM      6  C   UNL     1       1.916   5.693  20.514  0.00  0.00    +0.000 A 
ENDROOT
BRANCH   1   7
ATOM      7  C   UNL     1       2.370   3.543  19.254  0.00  0.00    +0.000 C 
BRANCH   7   9
ATOM      8  C   UNL     1       3.563   1.687  18.239  0.00  0.00    +0.000 C 
ATOM      9  N   UNL     1       3.563   3.136  18.481  0.00  0.00    +0.000 NA
BRANCH   9  10
ATOM     10  C   UNL     1       4.783   3.557  19.202  0.00  0.00    +0.000 C 
BRANCH  10  11
ATOM     11  C   UNL     1       5.590   4.589  18.435  0.00  0.00    +0.000 A 
ATOM     12  C   UNL     1       5.440   4.721  17.045  0.00  0.00    +0.000 A 
ATOM     13  C   UNL     1       6.274   5.571  16.315  0.00  0.00    +0.000 A 
ATOM     14  C   UNL     1       7.266   6.303  16.970  0.00  0.00    +0.000 A 
ATOM     15  C   UNL     1       7.392   6.197  18.348  0.00  0.00    +0.000 A 
ATOM     16  F   UNL     1       8.350   6.893  18.978  0.00  0.00    +0.000 F 
ATOM     17  C   UNL     1       6.562   5.360  19.089  0.00  0.00    +0.000 A 
ENDBRANCH  10  11
ENDBRANCH   9  10
ENDBRANCH   7   9
ENDBRANCH   1   7
BRANCH   4  18
ATOM     18  C   UNL     1       1.698   9.345  19.429  0.00  0.00    +0.000 C 
BRANCH  18  19
ATOM     19  N   UNL     1       0.350   9.762  19.863  0.00  0.00    +0.000 NA
ATOM     20  C   UNL     1       0.315  10.008  21.309  0.00  0.00    +0.000 C 
BRANCH  19  21
ATOM     21  C   UNL     1      -0.081  10.977  19.154  0.00  0.00    +0.000 C 
BRANCH  21  22
ATOM     22  C   UNL     1      -1.381  10.817  18.395  0.00  0.00    +0.000 A 
ATOM     23  C   UNL     1      -1.483   9.890  17.344  0.00  0.00    +0.000 A 
ATOM     24  C   UNL     1      -2.665   9.776  16.608  0.00  0.00    +0.000 A 
ATOM     25  C   UNL     1      -3.756  10.588  16.915  0.00  0.00    +0.000 A 
ATOM     26  C   UNL     1      -3.665  11.487  17.971  0.00  0.00    +0.000 A 
ATOM     27  F   UNL     1      -4.718  12.257  18.272  0.00  0.00    +0.000 F 
ATOM     28  C   UNL     1      -2.495  11.606  18.713  0.00  0.00    +0.000 A 
ENDBRANCH  21  22
ENDBRANCH  19  21
ENDBRANCH  18  19
ENDBRANCH   4  18
TORSDOF 8
ENDMDL
MODEL 4
REMARK VINA RESULT:      -7.7      2.395      8.572
REMARK  Name = 
REMARK  10 active torsions:
REMARK  status: ('A' for Active; 'I' for Inactive)
REMARK    1  A    between atoms: C_1  and  N_2
REMARK    2  A    between atoms: N_2  and  C_3
REMARK    3  A    between atoms: N_2  and  C_21
REMARK    4  A    between atoms: C_3  and  C_4
REMARK    5  A    between atoms: C_7  and  C_8
REMARK    6  A    between atoms: C_8  and  N_9
REMARK    7  A    between atoms: N_9  and  C_10
REMARK    8  A    between atoms: N_9  and  C_11
REMARK    9  A    between atoms: C_11  and  C_12
REMARK   10  A    between atoms: C_21  and  C_22
REMARK                            x       y       z     vdW  Elec       q    Type
REMARK                         _______ _______ _______ _____ _____    ______ ____
ROOT
ATOM      1  C   UNL     1       2.270   4.861  18.584  0.00  0.00    +0.000 A 
ATOM      2  C   UNL     1       1.784   4.679  19.891  0.00  0.00    +0.000 A 
ATOM      3  C   UNL     1       1.559   5.774  20.723  0.00  0.00    +0.000 A 
ATOM      4  C   UNL     1       1.853   7.071  20.285  0.00  0.00    +0.000 A 
ATOM      5  C   UNL     1       2.348   7.256  18.986  0.00  0.00    +0.000 A 
ATOM      6  C   UNL     1       2.545   6.162  18.143  0.00  0.00    +0.000 A 
ENDROOT
BRANCH   1   7
ATOM      7  C   UNL     1       2.442   3.678  17.657  0.00  0.00    +0.000 C 
BRANCH   7   9
ATOM      8  C   UNL     1       3.470   1.559  18.249  0.00  0.00    +0.000 C 
ATOM      9  N   UNL     1       3.715   2.952  17.854  0.00  0.00    +0.000 NA
BRANCH   9  10
ATOM     10  C   UNL     1       4.532   3.657  18.864  0.00  0.00    +0.000 C 
BRANCH  10  11
ATOM     11  C   UNL     1       5.633   4.499  18.244  0.00  0.00    +0.000 A 
ATOM     12  C   UNL     1       6.345   5.425  19.024  0.00  0.00    +0.000 A 
ATOM     13  C   UNL     1       7.263   6.297  18.434  0.00  0.00    +0.000 A 
ATOM     14  C   UNL     1       7.482   6.248  17.057  0.00  0.00    +0.000 A 
ATOM     15  C   UNL     1       6.803   5.310  16.291  0.00  0.00    +0.000 A 
ATOM     16  F   UNL     1       7.006   5.268  14.967  0.00  0.00    +0.000 F 
ATOM     17  C   UNL     1       5.892   4.430  16.868  0.00  0.00    +0.000 A 
ENDBRANCH  10  11
ENDBRANCH   9  10
ENDBRANCH   7   9
ENDBRANCH   1   7
BRANCH   4  18
ATOM     18  C   UNL     1       1.638   8.252  21.205  0.00  0.00    +0.000 C 
BRANCH  18  19
ATOM     19  N   UNL     1       0.340   8.921  20.990  0.00  0.00    +0.000 NA
ATOM     20  C   UNL     1      -0.363   9.128  22.261  0.00  0.00    +0.000 C 
BRANCH  19  21
ATOM     21  C   UNL     1       0.519  10.216  20.318  0.00  0.00    +0.000 C 
BRANCH  21  22
ATOM     22  C   UNL     1      -0.622  10.594  19.396  0.00  0.00    +0.000 A 
ATOM     23  C   UNL     1      -1.524  11.608  19.757  0.00  0.00    +0.000 A 
ATOM     24  C   UNL     1      -2.608  11.923  18.933  0.00  0.00    +0.000 A 
ATOM     25  C   UNL     1      -2.798  11.228  17.740  0.00  0.00    +0.000 A 
ATOM     26  C   UNL     1      -1.892  10.242  17.369  0.00  0.00    +0.000 A 
ATOM     27  F   UNL     1      -2.070   9.584  16.216  0.00  0.00    +0.000 F 
ATOM     28  C   UNL     1      -0.807   9.922  18.179  0.00  0.00    +0.000 A 
ENDBRANCH  21  22
ENDBRANCH  19  21
ENDBRANCH  18  19
ENDBRANCH   4  18
TORSDOF 8
ENDMDL
MODEL 5
REMARK VINA RESULT:      -7.6      2.045      8.969
REMARK  Name = 
REMARK  10 active torsions:
REMARK  status: ('A' for Active; 'I' for Inactive)
REMARK    1  A    between atoms: C_1  and  N_2
REMARK    2  A    between atoms: N_2  and  C_3
REMARK    3  A    between atoms: N_2  and  C_21
REMARK    4  A    between atoms: C_3  and  C_4
REMARK    5  A    between atoms: C_7  and  C_8
REMARK    6  A    between atoms: C_8  and  N_9
REMARK    7  A    between atoms: N_9  and  C_10
REMARK    8  A    between atoms: N_9  and  C_11
REMARK    9  A    between atoms: C_11  and  C_12
REMARK   10  A    between atoms: C_21  and  C_22
REMARK                            x       y       z     vdW  Elec       q    Type
REMARK                         _______ _______ _______ _____ _____    ______ ____
ROOT
ATOM      1  C   UNL     1       2.424   7.108  19.124  0.00  0.00    +0.000 A 
ATOM      2  C   UNL     1       1.811   7.576  20.300  0.00  0.00    +0.000 A 
ATOM      3  C   UNL     1       1.224   8.840  20.339  0.00  0.00    +0.000 A 
ATOM      4  C   UNL     1       1.272   9.679  19.219  0.00  0.00    +0.000 A 
ATOM      5  C   UNL     1       1.893   9.220  18.048  0.00  0.00    +0.000 A 
ATOM      6  C   UNL     1       2.453   7.944  18.001  0.00  0.00    +0.000 A 
ENDROOT
BRANCH   1   7
ATOM      7  C   UNL     1       2.993   5.707  19.061  0.00  0.00    +0.000 C 
BRANCH   7   9
ATOM      8  C   UNL     1       1.873   4.151  17.571  0.00  0.00    +0.000 C 
ATOM      9  N   UNL     1       2.970   5.119  17.704  0.00  0.00    +0.000 NA
BRANCH   9  10
ATOM     10  C   UNL     1       4.276   4.490  17.418  0.00  0.00    +0.000 C 
BRANCH  10  11
ATOM     11  C   UNL     1       5.448   5.400  17.738  0.00  0.00    +0.000 A 
ATOM     12  C   UNL     1       5.649   6.584  17.008  0.00  0.00    +0.000 A 
ATOM     13  C   UNL     1       6.797   7.355  17.204  0.00  0.00    +0.000 A 
ATOM     14  C   UNL     1       7.755   6.953  18.135  0.00  0.00    +0.000 A 
ATOM     15  C   UNL     1       7.540   5.801  18.879  0.00  0.00    +0.000 A 
ATOM     16  F   UNL     1       8.463   5.409  19.768  0.00  0.00    +0.000 F 
ATOM     17  C   UNL     1       6.396   5.028  18.701  0.00  0.00    +0.000 A 
ENDBRANCH  10  11
ENDBRANCH   9  10
ENDBRANCH   7   9
ENDBRANCH   1   7
BRANCH   4  18
ATOM     18  C   UNL     1       0.663  11.062  19.279  0.00  0.00    +0.000 C 
BRANCH  18  19
ATOM     19  N   UNL     1      -0.738  11.054  19.742  0.00  0.00    +0.000 NA
ATOM     20  C   UNL     1      -0.812  11.184  21.202  0.00  0.00    +0.000 C 
BRANCH  19  21
ATOM     21  C   UNL     1      -1.506  12.143  19.119  0.00  0.00    +0.000 C 
BRANCH  21  22
ATOM     22  C   UNL     1      -2.490  11.678  18.067  0.00  0.00    +0.000 A 
ATOM     23  C   UNL     1      -3.867  11.643  18.343  0.00  0.00    +0.000 A 
ATOM     24  C   UNL     1      -4.772  11.166  17.392  0.00  0.00    +0.000 A 
ATOM     25  C   UNL     1      -4.309  10.719  16.156  0.00  0.00    +0.000 A 
ATOM     26  C   UNL     1      -2.950  10.776  15.871  0.00  0.00    +0.000 A 
ATOM     27  F   UNL     1      -2.509  10.356  14.678  0.00  0.00    +0.000 F 
ATOM     28  C   UNL     1      -2.040  11.253  16.808  0.00  0.00    +0.000 A 
ENDBRANCH  21  22
ENDBRANCH  19  21
ENDBRANCH  18  19
ENDBRANCH   4  18
TORSDOF 8
ENDMDL
MODEL 6
REMARK VINA RESULT:      -7.6      0.787      1.309
REMARK  Name = 
REMARK  10 active torsions:
REMARK  status: ('A' for Active; 'I' for Inactive)
REMARK    1  A    between atoms: C_1  and  N_2
REMARK    2  A    between atoms: N_2  and  C_3
REMARK    3  A    between atoms: N_2  and  C_21
REMARK    4  A    between atoms: C_3  and  C_4
REMARK    5  A    between atoms: C_7  and  C_8
REMARK    6  A    between atoms: C_8  and  N_9
REMARK    7  A    between atoms: N_9  and  C_10
REMARK    8  A    between atoms: N_9  and  C_11
REMARK    9  A    between atoms: C_11  and  C_12
REMARK   10  A    between atoms: C_21  and  C_22
REMARK                            x       y       z     vdW  Elec       q    Type
REMARK                         _______ _______ _______ _____ _____    ______ ____
ROOT
ATOM      1  C   UNL     1       1.402   8.972  19.552  0.00  0.00    +0.000 A 
ATOM      2  C   UNL     1       1.579   7.921  20.470  0.00  0.00    +0.000 A 
ATOM      3  C   UNL     1       2.363   6.817  20.141  0.00  0.00    +0.000 A 
ATOM      4  C   UNL     1       2.955   6.719  18.875  0.00  0.00    +0.000 A 
ATOM      5  C   UNL     1       2.771   7.760  17.953  0.00  0.00    +0.000 A 
ATOM      6  C   UNL     1       2.010   8.878  18.294  0.00  0.00    +0.000 A 
ENDROOT
BRANCH   1   7
ATOM      7  C   UNL     1       0.612  10.203  19.940  0.00  0.00    +0.000 C 
BRANCH   7   9
ATOM      8  C   UNL     1       0.072  12.223  18.704  0.00  0.00    +0.000 C 
ATOM      9  N   UNL     1      -0.170  10.779  18.824  0.00  0.00    +0.000 NA
BRANCH   9  10
ATOM     10  C   UNL     1      -1.605  10.494  19.031  0.00  0.00    +0.000 C 
BRANCH  10  11
ATOM     11  C   UNL     1      -2.436  10.729  17.782  0.00  0.00    +0.000 A 
ATOM     12  C   UNL     1      -3.636  11.457  17.852  0.00  0.00    +0.000 A 
ATOM     13  C   UNL     1      -4.472  11.560  16.738  0.00  0.00    +0.000 A 
ATOM     14  C   UNL     1      -4.115  10.941  15.540  0.00  0.00    +0.000 A 
ATOM     15  C   UNL     1      -2.913  10.250  15.462  0.00  0.00    +0.000 A 
ATOM     16  F   UNL     1      -2.573   9.647  14.314  0.00  0.00    +0.000 F 
ATOM     17  C   UNL     1      -2.066  10.145  16.562  0.00  0.00    +0.000 A 
ENDBRANCH  10  11
ENDBRANCH   9  10
ENDBRANCH   7   9
ENDBRANCH   1   7
BRANCH   4  18
ATOM     18  C   UNL     1       3.777   5.503  18.512  0.00  0.00    +0.000 C 
BRANCH  18  19
ATOM     19  N   UNL     1       3.364   4.888  17.235  0.00  0.00    +0.000 NA
ATOM     20  C   UNL     1       4.528   4.417  16.476  0.00  0.00    +0.000 C 
BRANCH  19  21
ATOM     21  C   UNL     1       2.446   3.762  17.464  0.00  0.00    +0.000 C 
BRANCH  21  22
ATOM     22  C   UNL     1       2.388   3.299  18.904  0.00  0.00    +0.000 A 
ATOM     23  C   UNL     1       1.225   3.490  19.669  0.00  0.00    +0.000 A 
ATOM     24  C   UNL     1       1.186   3.110  21.013  0.00  0.00    +0.000 A 
ATOM     25  C   UNL     1       2.309   2.535  21.605  0.00  0.00    +0.000 A 
ATOM     26  C   UNL     1       3.452   2.322  20.843  0.00  0.00    +0.000 A 
ATOM     27  F   UNL     1       4.526   1.758  21.411  0.00  0.00    +0.000 F 
ATOM     28  C   UNL     1       3.501   2.692  19.503  0.00  0.00    +0.000 A 
ENDBRANCH  21  22
ENDBRANCH  19  21
ENDBRANCH  18  19
ENDBRANCH   4  18
TORSDOF 8
ENDMDL
MODEL 7
REMARK VINA RESULT:      -7.5      2.138      3.431
REMARK  Name = 
REMARK  10 active torsions:
REMARK  status: ('A' for Active; 'I' for Inactive)
REMARK    1  A    between atoms: C_1  and  N_2
REMARK    2  A    between atoms: N_2  and  C_3
REMARK    3  A    between atoms: N_2  and  C_21
REMARK    4  A    between atoms: C_3  and  C_4
REMARK    5  A    between atoms: C_7  and  C_8
REMARK    6  A    between atoms: C_8  and  N_9
REMARK    7  A    between atoms: N_9  and  C_10
REMARK    8  A    between atoms: N_9  and  C_11
REMARK    9  A    between atoms: C_11  and  C_12
REMARK   10  A    between atoms: C_21  and  C_22
REMARK                            x       y       z     vdW  Elec       q    Type
REMARK                         _______ _______ _______ _____ _____    ______ ____
ROOT
ATOM      1  C   UNL     1       1.199   9.325  19.824  0.00  0.00    +0.000 A 
ATOM      2  C   UNL     1       1.512   8.179  20.576  0.00  0.00    +0.000 A 
ATOM      3  C   UNL     1       2.144   7.090  19.979  0.00  0.00    +0.000 A 
ATOM      4  C   UNL     1       2.441   7.105  18.610  0.00  0.00    +0.000 A 
ATOM      5  C   UNL     1       2.120   8.242  17.855  0.00  0.00    +0.000 A 
ATOM      6  C   UNL     1       1.514   9.343  18.460  0.00  0.00    +0.000 A 
ENDROOT
BRANCH   1   7
ATOM      7  C   UNL     1       0.581  10.535  20.491  0.00  0.00    +0.000 C 
BRANCH   7   9
ATOM      8  C   UNL     1       0.640  12.789  19.590  0.00  0.00    +0.000 C 
ATOM      9  N   UNL     1      -0.034  11.485  19.539  0.00  0.00    +0.000 NA
BRANCH   9  10
ATOM     10  C   UNL     1      -1.476  11.617  19.839  0.00  0.00    +0.000 C 
BRANCH  10  11
ATOM     11  C   UNL     1      -2.351  11.383  18.621  0.00  0.00    +0.000 A 
ATOM     12  C   UNL     1      -3.675  11.852  18.595  0.00  0.00    +0.000 A 
ATOM     13  C   UNL     1      -4.527  11.524  17.539  0.00  0.00    +0.000 A 
ATOM     14  C   UNL     1      -4.063  10.726  16.492  0.00  0.00    +0.000 A 
ATOM     15  C   UNL     1      -2.745  10.290  16.502  0.00  0.00    +0.000 A 
ATOM     16  F   UNL     1      -2.300   9.516  15.502  0.00  0.00    +0.000 F 
ATOM     17  C   UNL     1      -1.882  10.616  17.544  0.00  0.00    +0.000 A 
ENDBRANCH  10  11
ENDBRANCH   9  10
ENDBRANCH   7   9
ENDBRANCH   1   7
BRANCH   4  18
ATOM     18  C   UNL     1       3.097   5.906  17.961  0.00  0.00    +0.000 C 
BRANCH  18  19
ATOM     19  N   UNL     1       2.654   4.624  18.541  0.00  0.00    +0.000 NA
ATOM     20  C   UNL     1       1.695   3.949  17.658  0.00  0.00    +0.000 C 
BRANCH  19  21
ATOM     21  C   UNL     1       3.797   3.732  18.787  0.00  0.00    +0.000 C 
BRANCH  21  22
ATOM     22  C   UNL     1       5.135   4.329  18.408  0.00  0.00    +0.000 A 
ATOM     23  C   UNL     1       5.852   5.113  19.328  0.00  0.00    +0.000 A 
ATOM     24  C   UNL     1       7.063   5.708  18.964  0.00  0.00    +0.000 A 
ATOM     25  C   UNL     1       7.568   5.525  17.679  0.00  0.00    +0.000 A 
ATOM     26  C   UNL     1       6.873   4.730  16.776  0.00  0.00    +0.000 A 
ATOM     27  F   UNL     1       7.367   4.546  15.544  0.00  0.00    +0.000 F 
ATOM     28  C   UNL     1       5.669   4.129  17.127  0.00  0.00    +0.000 A 
ENDBRANCH  21  22
ENDBRANCH  19  21
ENDBRANCH  18  19
ENDBRANCH   4  18
TORSDOF 8
ENDMDL
MODEL 8
REMARK VINA RESULT:      -7.4      1.935      8.488
REMARK  Name = 
REMARK  10 active torsions:
REMARK  status: ('A' for Active; 'I' for Inactive)
REMARK    1  A    between atoms: C_1  and  N_2
REMARK    2  A    between atoms: N_2  and  C_3
REMARK    3  A    between atoms: N_2  and  C_21
REMARK    4  A    between atoms: C_3  and  C_4
REMARK    5  A    between atoms: C_7  and  C_8
REMARK    6  A    between atoms: C_8  and  N_9
REMARK    7  A    between atoms: N_9  and  C_10
REMARK    8  A    between atoms: N_9  and  C_11
REMARK    9  A    between atoms: C_11  and  C_12
REMARK   10  A    between atoms: C_21  and  C_22
REMARK                            x       y       z     vdW  Elec       q    Type
REMARK                         _______ _______ _______ _____ _____    ______ ____
ROOT
ATOM      1  C   UNL     1       2.168   8.220  18.353  0.00  0.00    +0.000 A 
ATOM      2  C   UNL     1       1.804   7.970  19.688  0.00  0.00    +0.000 A 
ATOM      3  C   UNL     1       1.213   8.969  20.460  0.00  0.00    +0.000 A 
ATOM      4  C   UNL     1       1.009  10.249  19.929  0.00  0.00    +0.000 A 
ATOM      5  C   UNL     1       1.381  10.504  18.602  0.00  0.00    +0.000 A 
ATOM      6  C   UNL     1       1.946   9.496  17.821  0.00  0.00    +0.000 A 
ENDROOT
BRANCH   1   7
ATOM      7  C   UNL     1       2.740   7.113  17.494  0.00  0.00    +0.000 C 
BRANCH   7   9
ATOM      8  C   UNL     1       5.164   7.032  17.374  0.00  0.00    +0.000 C 
ATOM      9  N   UNL     1       3.970   6.508  18.050  0.00  0.00    +0.000 NA
BRANCH   9  10
ATOM     10  C   UNL     1       3.892   5.037  17.933  0.00  0.00    +0.000 C 
BRANCH  10  11
ATOM     11  C   UNL     1       2.827   4.433  18.830  0.00  0.00    +0.000 A 
ATOM     12  C   UNL     1       2.844   4.672  20.215  0.00  0.00    +0.000 A 
ATOM     13  C   UNL     1       1.952   4.012  21.063  0.00  0.00    +0.000 A 
ATOM     14  C   UNL     1       1.028   3.109  20.534  0.00  0.00    +0.000 A 
ATOM     15  C   UNL     1       0.990   2.898  19.163  0.00  0.00    +0.000 A 
ATOM     16  F   UNL     1       0.109   2.024  18.654  0.00  0.00    +0.000 F 
ATOM     17  C   UNL     1       1.868   3.555  18.305  0.00  0.00    +0.000 A 
ENDBRANCH  10  11
ENDBRANCH   9  10
ENDBRANCH   7   9
ENDBRANCH   1   7
BRANCH   4  18
ATOM     18  C   UNL     1       0.398  11.338  20.783  0.00  0.00    +0.000 C 
BRANCH  18  19
ATOM     19  N   UNL     1      -1.070  11.415  20.653  0.00  0.00    +0.000 NA
ATOM     20  C   UNL     1      -1.693  11.786  21.929  0.00  0.00    +0.000 C 
BRANCH  19  21
ATOM     21  C   UNL     1      -1.458  12.389  19.622  0.00  0.00    +0.000 C 
BRANCH  21  22
ATOM     22  C   UNL     1      -2.363  11.820  18.549  0.00  0.00    +0.000 A 
ATOM     23  C   UNL     1      -1.826  11.356  17.337  0.00  0.00    +0.000 A 
ATOM     24  C   UNL     1      -2.663  10.879  16.325  0.00  0.00    +0.000 A 
ATOM     25  C   UNL     1      -4.043  10.861  16.515  0.00  0.00    +0.000 A 
ATOM     26  C   UNL     1      -4.574  11.297  17.723  0.00  0.00    +0.000 A 
ATOM     27  F   UNL     1      -5.900  11.268  17.909  0.00  0.00    +0.000 F 
ATOM     28  C   UNL     1      -3.751  11.770  18.740  0.00  0.00    +0.000 A 
ENDBRANCH  21  22
ENDBRANCH  19  21
ENDBRANCH  18  19
ENDBRANCH   4  18
TORSDOF 8
ENDMDL
MODEL 9
REMARK VINA RESULT:      -7.4      2.463      8.723
REMARK  Name = 
REMARK  10 active torsions:
REMARK  status: ('A' for Active; 'I' for Inactive)
REMARK    1  A    between atoms: C_1  and  N_2
REMARK    2  A    between atoms: N_2  and  C_3
REMARK    3  A    between atoms: N_2  and  C_21
REMARK    4  A    between atoms: C_3  and  C_4
REMARK    5  A    between atoms: C_7  and  C_8
REMARK    6  A    between atoms: C_8  and  N_9
REMARK    7  A    between atoms: N_9  and  C_10
REMARK    8  A    between atoms: N_9  and  C_11
REMARK    9  A    between atoms: C_11  and  C_12
REMARK   10  A    between atoms: C_21  and  C_22
REMARK                            x       y       z     vdW  Elec       q    Type
REMARK                         _______ _______ _______ _____ _____    ______ ____
ROOT
ATOM      1  C   UNL     1       3.184   6.958  18.273  0.00  0.00    +0.000 A 
ATOM      2  C   UNL     1       2.888   8.100  17.508  0.00  0.00    +0.000 A 
ATOM      3  C   UNL     1       2.031   9.082  18.003  0.00  0.00    +0.000 A 
ATOM      4  C   UNL     1       1.419   8.926  19.253  0.00  0.00    +0.000 A 
ATOM      5  C   UNL     1       1.704   7.782  20.013  0.00  0.00    +0.000 A 
ATOM      6  C   UNL     1       2.584   6.815  19.530  0.00  0.00    +0.000 A 
ENDROOT
BRANCH   1   7
ATOM      7  C   UNL     1       4.173   5.931  17.765  0.00  0.00    +0.000 C 
BRANCH   7   9
ATOM      8  C   UNL     1       6.264   5.464  18.907  0.00  0.00    +0.000 C 
ATOM      9  N   UNL     1       4.829   5.159  18.843  0.00  0.00    +0.000 NA
BRANCH   9  10
ATOM     10  C   UNL     1       4.600   3.716  18.623  0.00  0.00    +0.000 C 
BRANCH  10  11
ATOM     11  C   UNL     1       3.223   3.265  19.077  0.00  0.00    +0.000 A 
ATOM     12  C   UNL     1       2.187   3.094  18.144  0.00  0.00    +0.000 A 
ATOM     13  C   UNL     1       0.886   2.813  18.567  0.00  0.00    +0.000 A 
ATOM     14  C   UNL     1       0.608   2.694  19.929  0.00  0.00    +0.000 A 
ATOM     15  C   UNL     1       1.638   2.830  20.849  0.00  0.00    +0.000 A 
ATOM     16  F   UNL     1       1.371   2.724  22.158  0.00  0.00    +0.000 F 
ATOM     17  C   UNL     1       2.941   3.102  20.441  0.00  0.00    +0.000 A 
ENDBRANCH  10  11
ENDBRANCH   9  10
ENDBRANCH   7   9
ENDBRANCH   1   7
BRANCH   4  18
ATOM     18  C   UNL     1       0.465   9.979  19.770  0.00  0.00    +0.000 C 
BRANCH  18  19
ATOM     19  N   UNL     1       0.004  10.905  18.716  0.00  0.00    +0.000 NA
ATOM     20  C   UNL     1      -1.286  10.475  18.164  0.00  0.00    +0.000 C 
BRANCH  19  21
ATOM     21  C   UNL     1      -0.122  12.275  19.235  0.00  0.00    +0.000 C 
BRANCH  21  22
ATOM     22  C   UNL     1       1.202  12.982  19.432  0.00  0.00    +0.000 A 
ATOM     23  C   UNL     1       1.721  13.178  20.723  0.00  0.00    +0.000 A 
ATOM     24  C   UNL     1       2.917  13.876  20.911  0.00  0.00    +0.000 A 
ATOM     25  C   UNL     1       3.606  14.383  19.811  0.00  0.00    +0.000 A 
ATOM     26  C   UNL     1       3.108  14.167  18.531  0.00  0.00    +0.000 A 
ATOM     27  F   UNL     1       3.778  14.645  17.474  0.00  0.00    +0.000 F 
ATOM     28  C   UNL     1       1.920  13.471  18.331  0.00  0.00    +0.000 A 
ENDBRANCH  21  22
ENDBRANCH  19  21
ENDBRANCH  18  19
ENDBRANCH   4  18
TORSDOF 8
ENDMDL
