MODEL 1
REMARK VINA RESULT:      -7.7      0.000      0.000
REMARK  Name = 
REMARK  8 active torsions:
REMARK  status: ('A' for Active; 'I' for Inactive)
REMARK    1  A    between atoms: C_1  and  N_2
REMARK    2  A    between atoms: C_6  and  S_7
REMARK    3  A    between atoms: S_7  and  C_8
REMARK    4  A    between atoms: C_8  and  C_9
REMARK    5  A    between atoms: N_11  and  C_12
REMARK    6  A    between atoms: C_12  and  C_13
REMARK    7  A    between atoms: C_19  and  C_20
REMARK    8  A    between atoms: N_27  and  C_28
REMARK                            x       y       z     vdW  Elec       q    Type
REMARK                         _______ _______ _______ _____ _____    ______ ____
ROOT
ATOM      1  C   UNL     1       3.981   1.248  18.126  0.00  0.00    +0.000 C 
ATOM      2  N   UNL     1       3.439   2.499  18.632  0.00  0.00    +0.000 N 
ATOM      3  C   UNL     1       3.818   3.676  18.007  0.00  0.00    +0.000 A 
ATOM      4  O   UNL     1       4.602   3.663  17.063  0.00  0.00    +0.000 OA
ATOM      5  C   UNL     1       3.254   4.936  18.536  0.00  0.00    +0.000 A 
ATOM      6  C   UNL     1       3.506   6.212  18.017  0.00  0.00    +0.000 A 
ATOM      7  N   UNL     1       2.981   7.329  18.560  0.00  0.00    +0.000 NA
ATOM      8  C   UNL     1       2.183   7.161  19.633  0.00  0.00    +0.000 A 
ATOM      9  N   UNL     1       1.880   5.974  20.186  0.00  0.00    +0.000 NA
ATOM     10  C   UNL     1       2.417   4.870  19.630  0.00  0.00    +0.000 A 
ATOM     11  N   UNL     1       2.101   3.619  20.208  0.00  0.00    +0.000 N 
ATOM     12  C   UNL     1       1.213   3.543  21.356  0.00  0.00    +0.000 C 
ATOM     13  C   UNL     1       2.597   2.424  19.725  0.00  0.00    +0.000 A 
ATOM     14  O   UNL     1       2.309   1.344  20.246  0.00  0.00    +0.000 OA
ENDROOT
BRANCH   8  15
ATOM     15  C   UNL     1       1.583   8.330  20.295  0.00  0.00    +0.000 A 
ATOM     16  C   UNL     1       1.315   8.513  21.647  0.00  0.00    +0.000 A 
ATOM     17  C   UNL     1       0.728   9.781  21.941  0.00  0.00    +0.000 A 
ATOM     18  C   UNL     1       0.561  10.537  20.805  0.00  0.00    +0.000 A 
ATOM     19  S   UNL     1       1.108   9.721  19.403  0.00  0.00    +0.000 S 
ENDBRANCH   8  15
BRANCH   6  20
ATOM     20  S   UNL     1       4.555   6.417  16.577  0.00  0.00    +0.000 S 
BRANCH  20  21
ATOM     21  C   UNL     1       6.273   6.252  17.139  0.00  0.00    +0.000 C 
BRANCH  21  22
ATOM     22  C   UNL     1       7.011   5.408  16.092  0.00  0.00    +0.000 C 
ATOM     23  O   UNL     1       7.946   4.667  16.387  0.00  0.00    +0.000 OA
ATOM     24  N   UNL     1       6.531   5.528  14.801  0.00  0.00    +0.000 N 
ATOM     25  H   UNL     1       5.875   6.274  14.594  0.00  0.00    +0.000 HD
BRANCH  24  26
ATOM     26  C   UNL     1       7.145   4.877  13.650  0.00  0.00    +0.000 C 
BRANCH  26  27
ATOM     27  C   UNL     1       6.392   3.610  13.222  0.00  0.00    +0.000 C 
ATOM     28  C   UNL     1       6.804   3.041  11.873  0.00  0.00    +0.000 C 
ATOM     29  C   UNL     1       5.533   2.369  11.414  0.00  0.00    +0.000 C 
ATOM     30  C   UNL     1       4.473   3.321  11.922  0.00  0.00    +0.000 C 
ATOM     31  O   UNL     1       4.975   3.886  13.142  0.00  0.00    +0.000 OA
ENDBRANCH  26  27
ENDBRANCH  24  26
ENDBRANCH  21  22
ENDBRANCH  20  21
ENDBRANCH   6  20
TORSDOF 6
ENDMDL
MODEL 2
REMARK VINA RESULT:      -7.3      5.247      8.362
REMARK  Name = 
REMARK  8 active torsions:
REMARK  status: ('A' for Active; 'I' for Inactive)
REMARK    1  A    between atoms: C_1  and  N_2
REMARK    2  A    between atoms: C_6  and  S_7
REMARK    3  A    between atoms: S_7  and  C_8
REMARK    4  A    between atoms: C_8  and  C_9
REMARK    5  A    between atoms: N_11  and  C_12
REMARK    6  A    between atoms: C_12  and  C_13
REMARK    7  A    between atoms: C_19  and  C_20
REMARK    8  A    between atoms: N_27  and  C_28
REMARK                            x       y       z     vdW  Elec       q    Type
REMARK                         _______ _______ _______ _____ _____    ______ ____
ROOT
ATOM      1  C   UNL     1      -2.643   9.853  15.602  0.00  0.00    +0.000 C 
ATOM      2  N   UNL     1      -2.728  10.542  16.880  0.00  0.00    +0.000 N 
ATOM      3  C   UNL     1      -1.635  10.482  17.728  0.00  0.00    +0.000 A 
ATOM      4  O   UNL     1      -0.629   9.853  17.416  0.00  0.00    +0.000 OA
ATOM      5  C   UNL     1      -1.742  11.191  19.022  0.00  0.00    +0.000 A 
ATOM      6  C   UNL     1      -0.732  11.258  19.989  0.00  0.00    +0.000 A 
ATOM      7  N   UNL     1      -0.899  11.899  21.163  0.00  0.00    +0.000 NA
ATOM      8  C   UNL     1      -2.092  12.490  21.365  0.00  0.00    +0.000 A 
ATOM      9  N   UNL     1      -3.109  12.485  20.485  0.00  0.00    +0.000 NA
ATOM     10  C   UNL     1      -2.924  11.835  19.319  0.00  0.00    +0.000 A 
ATOM     11  N   UNL     1      -3.990  11.828  18.391  0.00  0.00    +0.000 N 
ATOM     12  C   UNL     1      -5.235  12.513  18.696  0.00  0.00    +0.000 C 
ATOM     13  C   UNL     1      -3.914  11.190  17.167  0.00  0.00    +0.000 A 
ATOM     14  O   UNL     1      -4.857  11.195  16.374  0.00  0.00    +0.000 OA
ENDROOT
BRANCH   8  15
ATOM     15  C   UNL     1      -2.362  13.198  22.626  0.00  0.00    +0.000 A 
ATOM     16  C   UNL     1      -1.696  14.296  23.159  0.00  0.00    +0.000 A 
ATOM     17  C   UNL     1      -2.231  14.730  24.409  0.00  0.00    +0.000 A 
ATOM     18  C   UNL     1      -3.293  13.950  24.804  0.00  0.00    +0.000 A 
ATOM     19  S   UNL     1      -3.636  12.712  23.673  0.00  0.00    +0.000 S 
ENDBRANCH   8  15
BRANCH   6  20
ATOM     20  S   UNL     1       0.859  10.482  19.698  0.00  0.00    +0.000 S 
BRANCH  20  21
ATOM     21  C   UNL     1       0.923   8.991  20.732  0.00  0.00    +0.000 C 
BRANCH  21  22
ATOM     22  C   UNL     1       1.778   7.961  19.983  0.00  0.00    +0.000 C 
ATOM     23  O   UNL     1       2.381   8.237  18.948  0.00  0.00    +0.000 OA
ATOM     24  N   UNL     1       1.837   6.711  20.571  0.00  0.00    +0.000 N 
ATOM     25  H   UNL     1       1.191   6.498  21.323  0.00  0.00    +0.000 HD
BRANCH  24  26
ATOM     26  C   UNL     1       2.525   5.572  19.975  0.00  0.00    +0.000 C 
BRANCH  26  27
ATOM     27  C   UNL     1       1.558   4.595  19.293  0.00  0.00    +0.000 C 
ATOM     28  C   UNL     1       1.085   3.442  20.165  0.00  0.00    +0.000 C 
ATOM     29  C   UNL     1       0.824   2.362  19.145  0.00  0.00    +0.000 C 
ATOM     30  C   UNL     1       1.939   2.594  18.150  0.00  0.00    +0.000 C 
ATOM     31  O   UNL     1       2.193   4.006  18.134  0.00  0.00    +0.000 OA
ENDBRANCH  26  27
ENDBRANCH  24  26
ENDBRANCH  21  22
ENDBRANCH  20  21
ENDBRANCH   6  20
TORSDOF 6
ENDMDL
MODEL 3
REMARK VINA RESULT:      -7.1      5.476      8.672
REMARK  Name = 
REMARK  8 active torsions:
REMARK  status: ('A' for Active; 'I' for Inactive)
REMARK    1  A    between atoms: C_1  and  N_2
REMARK    2  A    between atoms: C_6  and  S_7
REMARK    3  A    between atoms: S_7  and  C_8
REMARK    4  A    between atoms: C_8  and  C_9
REMARK    5  A    between atoms: N_11  and  C_12
REMARK    6  A    between atoms: C_12  and  C_13
REMARK    7  A    between atoms: C_19  and  C_20
REMARK    8  A    between atoms: N_27  and  C_28
REMARK                            x       y       z     vdW  Elec       q    Type
REMARK                         _______ _______ _______ _____ _____    ______ ____
ROOT
ATOM      1  C   UNL     1      -2.819  10.018  16.319  0.00  0.00    +0.000 C 
ATOM      2  N   UNL     1      -2.842  10.771  17.563  0.00  0.00    +0.000 N 
ATOM      3  C   UNL     1      -1.705  10.763  18.353  0.00  0.00    +0.000 A 
ATOM      4  O   UNL     1      -0.711  10.125  18.020  0.00  0.00    +0.000 OA
ATOM      5  C   UNL     1      -1.750  11.536  19.613  0.00  0.00    +0.000 A 
ATOM      6  C   UNL     1      -0.691  11.660  20.520  0.00  0.00    +0.000 A 
ATOM      7  N   UNL     1      -0.801  12.360  21.667  0.00  0.00    +0.000 NA
ATOM      8  C   UNL     1      -1.988  12.953  21.901  0.00  0.00    +0.000 A 
ATOM      9  N   UNL     1      -3.050  12.895  21.079  0.00  0.00    +0.000 NA
ATOM     10  C   UNL     1      -2.921  12.187  19.939  0.00  0.00    +0.000 A 
ATOM     11  N   UNL     1      -4.035  12.124  19.071  0.00  0.00    +0.000 N 
ATOM     12  C   UNL     1      -5.269  12.815  19.407  0.00  0.00    +0.000 C 
ATOM     13  C   UNL     1      -4.018  11.424  17.880  0.00  0.00    +0.000 A 
ATOM     14  O   UNL     1      -5.002  11.382  17.139  0.00  0.00    +0.000 OA
ENDROOT
BRANCH   8  15
ATOM     15  C   UNL     1      -2.197  13.723  23.138  0.00  0.00    +0.000 A 
ATOM     16  C   UNL     1      -1.299  14.550  23.802  0.00  0.00    +0.000 A 
ATOM     17  C   UNL     1      -1.842  15.148  24.978  0.00  0.00    +0.000 A 
ATOM     18  C   UNL     1      -3.145  14.760  25.187  0.00  0.00    +0.000 A 
ATOM     19  S   UNL     1      -3.700  13.689  23.973  0.00  0.00    +0.000 S 
ENDBRANCH   8  15
BRANCH   6  20
ATOM     20  S   UNL     1       0.890  10.882  20.185  0.00  0.00    +0.000 S 
BRANCH  20  21
ATOM     21  C   UNL     1       1.297   9.858  21.627  0.00  0.00    +0.000 C 
BRANCH  21  22
ATOM     22  C   UNL     1       0.877   8.421  21.292  0.00  0.00    +0.000 C 
ATOM     23  O   UNL     1      -0.287   8.038  21.392  0.00  0.00    +0.000 OA
ATOM     24  N   UNL     1       1.899   7.601  20.851  0.00  0.00    +0.000 N 
ATOM     25  H   UNL     1       2.855   7.921  20.950  0.00  0.00    +0.000 HD
BRANCH  24  26
ATOM     26  C   UNL     1       1.724   6.182  20.563  0.00  0.00    +0.000 C 
BRANCH  26  27
ATOM     27  C   UNL     1       2.772   5.651  19.576  0.00  0.00    +0.000 C 
ATOM     28  C   UNL     1       2.281   5.473  18.148  0.00  0.00    +0.000 C 
ATOM     29  C   UNL     1       3.156   4.349  17.652  0.00  0.00    +0.000 C 
ATOM     30  C   UNL     1       3.278   3.479  18.883  0.00  0.00    +0.000 C 
ATOM     31  O   UNL     1       3.249   4.358  20.016  0.00  0.00    +0.000 OA
ENDBRANCH  26  27
ENDBRANCH  24  26
ENDBRANCH  21  22
ENDBRANCH  20  21
ENDBRANCH   6  20
TORSDOF 6
ENDMDL
MODEL 4
REMARK VINA RESULT:      -7.0      3.002      8.121
REMARK  Name = 
REMARK  8 active torsions:
REMARK  status: ('A' for Active; 'I' for Inactive)
REMARK    1  A    between atoms: C_1  and  N_2
REMARK    2  A    between atoms: C_6  and  S_7
REMARK    3  A    between atoms: S_7  and  C_8
REMARK    4  A    between atoms: C_8  and  C_9
REMARK    5  A    between atoms: N_11  and  C_12
REMARK    6  A    between atoms: C_12  and  C_13
REMARK    7  A    between atoms: C_19  and  C_20
REMARK    8  A    between atoms: N_27  and  C_28
REMARK                            x       y       z     vdW  Elec       q    Type
REMARK                         _______ _______ _______ _____ _____    ______ ____
ROOT
ATOM      1  C   UNL     1       1.414   4.074  21.053  0.00  0.00    +0.000 C 
ATOM      2  N   UNL     1       2.263   4.030  19.872  0.00  0.00    +0.000 N 
ATOM      3  C   UNL     1       2.670   5.230  19.315  0.00  0.00    +0.000 A 
ATOM      4  O   UNL     1       2.312   6.301  19.795  0.00  0.00    +0.000 OA
ATOM      5  C   UNL     1       3.533   5.163  18.117  0.00  0.00    +0.000 A 
ATOM      6  C   UNL     1       4.057   6.269  17.437  0.00  0.00    +0.000 A 
ATOM      7  N   UNL     1       4.819   6.144  16.332  0.00  0.00    +0.000 NA
ATOM      8  C   UNL     1       5.067   4.889  15.909  0.00  0.00    +0.000 A 
ATOM      9  N   UNL     1       4.615   3.774  16.508  0.00  0.00    +0.000 NA
ATOM     10  C   UNL     1       3.852   3.920  17.609  0.00  0.00    +0.000 A 
ATOM     11  N   UNL     1       3.375   2.751  18.243  0.00  0.00    +0.000 N 
ATOM     12  C   UNL     1       3.716   1.439  17.717  0.00  0.00    +0.000 C 
ATOM     13  C   UNL     1       2.582   2.781  19.374  0.00  0.00    +0.000 A 
ATOM     14  O   UNL     1       2.176   1.748  19.909  0.00  0.00    +0.000 OA
ENDROOT
BRANCH   8  15
ATOM     15  C   UNL     1       5.878   4.665  14.701  0.00  0.00    +0.000 A 
ATOM     16  C   UNL     1       7.113   5.213  14.377  0.00  0.00    +0.000 A 
ATOM     17  C   UNL     1       7.617   4.769  13.117  0.00  0.00    +0.000 A 
ATOM     18  C   UNL     1       6.751   3.893  12.507  0.00  0.00    +0.000 A 
ATOM     19  S   UNL     1       5.350   3.612  13.449  0.00  0.00    +0.000 S 
ENDBRANCH   8  15
BRANCH   6  20
ATOM     20  S   UNL     1       3.733   7.933  18.025  0.00  0.00    +0.000 S 
BRANCH  20  21
ATOM     21  C   UNL     1       2.053   8.370  17.491  0.00  0.00    +0.000 C 
BRANCH  21  22
ATOM     22  C   UNL     1       1.738   9.750  18.083  0.00  0.00    +0.000 C 
ATOM     23  O   UNL     1       2.252  10.781  17.653  0.00  0.00    +0.000 OA
ATOM     24  N   UNL     1       0.821   9.747  19.117  0.00  0.00    +0.000 N 
ATOM     25  H   UNL     1       0.563   8.860  19.534  0.00  0.00    +0.000 HD
BRANCH  24  26
ATOM     26  C   UNL     1       0.451  10.941  19.867  0.00  0.00    +0.000 C 
BRANCH  26  27
ATOM     27  C   UNL     1       0.569  10.740  21.384  0.00  0.00    +0.000 C 
ATOM     28  C   UNL     1       0.386   9.307  21.860  0.00  0.00    +0.000 C 
ATOM     29  C   UNL     1      -0.165   9.504  23.251  0.00  0.00    +0.000 C 
ATOM     30  C   UNL     1      -1.049  10.718  23.068  0.00  0.00    +0.000 C 
ATOM     31  O   UNL     1      -0.430  11.534  22.064  0.00  0.00    +0.000 OA
ENDBRANCH  26  27
ENDBRANCH  24  26
ENDBRANCH  21  22
ENDBRANCH  20  21
ENDBRANCH   6  20
TORSDOF 6
ENDMDL
MODEL 5
REMARK VINA RESULT:      -7.0      5.142      8.672
REMARK  Name = 
REMARK  8 active torsions:
REMARK  status: ('A' for Active; 'I' for Inactive)
REMARK    1  A    between atoms: C_1  and  N_2
REMARK    2  A    between atoms: C_6  and  S_7
REMARK    3  A    between atoms: S_7  and  C_8
REMARK    4  A    between atoms: C_8  and  C_9
REMARK    5  A    between atoms: N_11  and  C_12
REMARK    6  A    between atoms: C_12  and  C_13
REMARK    7  A    between atoms: C_19  and  C_20
REMARK    8  A    between atoms: N_27  and  C_28
REMARK                            x       y       z     vdW  Elec       q    Type
REMARK                         _______ _______ _______ _____ _____    ______ ____
ROOT
ATOM      1  C   UNL     1       3.991  14.217  18.230  0.00  0.00    +0.000 C 
ATOM      2  N   UNL     1       2.597  14.026  18.596  0.00  0.00    +0.000 N 
ATOM      3  C   UNL     1       2.056  12.758  18.471  0.00  0.00    +0.000 A 
ATOM      4  O   UNL     1       2.731  11.824  18.049  0.00  0.00    +0.000 OA
ATOM      5  C   UNL     1       0.637  12.586  18.849  0.00  0.00    +0.000 A 
ATOM      6  C   UNL     1      -0.066  11.376  18.810  0.00  0.00    +0.000 A 
ATOM      7  N   UNL     1      -1.369  11.287  19.144  0.00  0.00    +0.000 NA
ATOM      8  C   UNL     1      -1.972  12.427  19.533  0.00  0.00    +0.000 A 
ATOM      9  N   UNL     1      -1.369  13.626  19.611  0.00  0.00    +0.000 NA
ATOM     10  C   UNL     1      -0.067  13.695  19.269  0.00  0.00    +0.000 A 
ATOM     11  N   UNL     1       0.571  14.953  19.350  0.00  0.00    +0.000 N 
ATOM     12  C   UNL     1      -0.164  16.123  19.800  0.00  0.00    +0.000 C 
ATOM     13  C   UNL     1       1.900  15.142  19.021  0.00  0.00    +0.000 A 
ATOM     14  O   UNL     1       2.436  16.249  19.098  0.00  0.00    +0.000 OA
ENDROOT
BRANCH   8  15
ATOM     15  C   UNL     1      -3.398  12.420  19.899  0.00  0.00    +0.000 A 
ATOM     16  C   UNL     1      -3.983  12.814  21.097  0.00  0.00    +0.000 A 
ATOM     17  C   UNL     1      -5.404  12.678  21.104  0.00  0.00    +0.000 A 
ATOM     18  C   UNL     1      -5.871  12.179  19.911  0.00  0.00    +0.000 A 
ATOM     19  S   UNL     1      -4.604  11.883  18.798  0.00  0.00    +0.000 S 
ENDBRANCH   8  15
BRANCH   6  20
ATOM     20  S   UNL     1       0.755   9.862  18.309  0.00  0.00    +0.000 S 
BRANCH  20  21
ATOM     21  C   UNL     1       1.312   9.030  19.824  0.00  0.00    +0.000 C 
BRANCH  21  22
ATOM     22  C   UNL     1       2.071   7.769  19.393  0.00  0.00    +0.000 C 
ATOM     23  O   UNL     1       2.650   7.690  18.311  0.00  0.00    +0.000 OA
ATOM     24  N   UNL     1       2.071   6.742  20.318  0.00  0.00    +0.000 N 
ATOM     25  H   UNL     1       1.442   6.802  21.110  0.00  0.00    +0.000 HD
BRANCH  24  26
ATOM     26  C   UNL     1       2.663   5.433  20.066  0.00  0.00    +0.000 C 
BRANCH  26  27
ATOM     27  C   UNL     1       1.730   4.513  19.267  0.00  0.00    +0.000 C 
ATOM     28  C   UNL     1       1.406   3.186  19.936  0.00  0.00    +0.000 C 
ATOM     29  C   UNL     1       1.160   2.286  18.749  0.00  0.00    +0.000 C 
ATOM     30  C   UNL     1       2.185   2.789  17.757  0.00  0.00    +0.000 C 
ATOM     31  O   UNL     1       2.328   4.198  17.988  0.00  0.00    +0.000 OA
ENDBRANCH  26  27
ENDBRANCH  24  26
ENDBRANCH  21  22
ENDBRANCH  20  21
ENDBRANCH   6  20
TORSDOF 6
ENDMDL
MODEL 6
REMARK VINA RESULT:      -6.9      2.734      8.084
REMARK  Name = 
REMARK  8 active torsions:
REMARK  status: ('A' for Active; 'I' for Inactive)
REMARK    1  A    between atoms: C_1  and  N_2
REMARK    2  A    between atoms: C_6  and  S_7
REMARK    3  A    between atoms: S_7  and  C_8
REMARK    4  A    between atoms: C_8  and  C_9
REMARK    5  A    between atoms: N_11  and  C_12
REMARK    6  A    between atoms: C_12  and  C_13
REMARK    7  A    between atoms: C_19  and  C_20
REMARK    8  A    between atoms: N_27  and  C_28
REMARK                            x       y       z     vdW  Elec       q    Type
REMARK                         _______ _______ _______ _____ _____    ______ ____
ROOT
ATOM      1  C   UNL     1       1.607   3.887  21.303  0.00  0.00    +0.000 C 
ATOM      2  N   UNL     1       2.394   3.844  20.081  0.00  0.00    +0.000 N 
ATOM      3  C   UNL     1       2.742   5.045  19.485  0.00  0.00    +0.000 A 
ATOM      4  O   UNL     1       2.384   6.114  19.967  0.00  0.00    +0.000 OA
ATOM      5  C   UNL     1       3.544   4.978  18.244  0.00  0.00    +0.000 A 
ATOM      6  C   UNL     1       4.004   6.085  17.522  0.00  0.00    +0.000 A 
ATOM      7  N   UNL     1       4.711   5.960  16.381  0.00  0.00    +0.000 NA
ATOM      8  C   UNL     1       4.967   4.705  15.964  0.00  0.00    +0.000 A 
ATOM      9  N   UNL     1       4.574   3.589  16.602  0.00  0.00    +0.000 NA
ATOM     10  C   UNL     1       3.866   3.735  17.740  0.00  0.00    +0.000 A 
ATOM     11  N   UNL     1       3.450   2.565  18.414  0.00  0.00    +0.000 N 
ATOM     12  C   UNL     1       3.794   1.253  17.891  0.00  0.00    +0.000 C 
ATOM     13  C   UNL     1       2.716   2.595  19.584  0.00  0.00    +0.000 A 
ATOM     14  O   UNL     1       2.363   1.561  20.155  0.00  0.00    +0.000 OA
ENDROOT
BRANCH   8  15
ATOM     15  C   UNL     1       5.719   4.480  14.719  0.00  0.00    +0.000 A 
ATOM     16  C   UNL     1       5.361   3.703  13.623  0.00  0.00    +0.000 A 
ATOM     17  C   UNL     1       6.334   3.715  12.579  0.00  0.00    +0.000 A 
ATOM     18  C   UNL     1       7.414   4.501  12.903  0.00  0.00    +0.000 A 
ATOM     19  S   UNL     1       7.250   5.214  14.450  0.00  0.00    +0.000 S 
ENDBRANCH   8  15
BRANCH   6  20
ATOM     20  S   UNL     1       3.672   7.750  18.101  0.00  0.00    +0.000 S 
BRANCH  20  21
ATOM     21  C   UNL     1       2.043   8.225  17.455  0.00  0.00    +0.000 C 
BRANCH  21  22
ATOM     22  C   UNL     1       1.732   9.624  18.002  0.00  0.00    +0.000 C 
ATOM     23  O   UNL     1       2.408  10.608  17.707  0.00  0.00    +0.000 OA
ATOM     24  N   UNL     1       0.628   9.696  18.830  0.00  0.00    +0.000 N 
ATOM     25  H   UNL     1       0.216   8.833  19.167  0.00  0.00    +0.000 HD
BRANCH  24  26
ATOM     26  C   UNL     1       0.216  10.914  19.517  0.00  0.00    +0.000 C 
BRANCH  26  27
ATOM     27  C   UNL     1      -0.669  10.627  20.738  0.00  0.00    +0.000 C 
ATOM     28  C   UNL     1      -0.465  11.567  21.916  0.00  0.00    +0.000 C 
ATOM     29  C   UNL     1      -0.832  10.688  23.087  0.00  0.00    +0.000 C 
ATOM     30  C   UNL     1      -0.289   9.345  22.653  0.00  0.00    +0.000 C 
ATOM     31  O   UNL     1      -0.415   9.289  21.225  0.00  0.00    +0.000 OA
ENDBRANCH  26  27
ENDBRANCH  24  26
ENDBRANCH  21  22
ENDBRANCH  20  21
ENDBRANCH   6  20
TORSDOF 6
ENDMDL
MODEL 7
REMARK VINA RESULT:      -6.9      5.600      8.950
REMARK  Name = 
REMARK  8 active torsions:
REMARK  status: ('A' for Active; 'I' for Inactive)
REMARK    1  A    between atoms: C_1  and  N_2
REMARK    2  A    between atoms: C_6  and  S_7
REMARK    3  A    between atoms: S_7  and  C_8
REMARK    4  A    between atoms: C_8  and  C_9
REMARK    5  A    between atoms: N_11  and  C_12
REMARK    6  A    between atoms: C_12  and  C_13
REMARK    7  A    between atoms: C_19  and  C_20
REMARK    8  A    between atoms: N_27  and  C_28
REMARK                            x       y       z     vdW  Elec       q    Type
REMARK                         _______ _______ _______ _____ _____    ______ ____
ROOT
ATOM      1  C   UNL     1      -2.993  10.229  16.210  0.00  0.00    +0.000 C 
ATOM      2  N   UNL     1      -3.025  10.977  17.456  0.00  0.00    +0.000 N 
ATOM      3  C   UNL     1      -1.873  11.021  18.223  0.00  0.00    +0.000 A 
ATOM      4  O   UNL     1      -0.858  10.431  17.867  0.00  0.00    +0.000 OA
ATOM      5  C   UNL     1      -1.928  11.788  19.485  0.00  0.00    +0.000 A 
ATOM      6  C   UNL     1      -0.857  11.960  20.371  0.00  0.00    +0.000 A 
ATOM      7  N   UNL     1      -0.976  12.651  21.522  0.00  0.00    +0.000 NA
ATOM      8  C   UNL     1      -2.185  13.187  21.783  0.00  0.00    +0.000 A 
ATOM      9  N   UNL     1      -3.259  13.080  20.983  0.00  0.00    +0.000 NA
ATOM     10  C   UNL     1      -3.121  12.382  19.838  0.00  0.00    +0.000 A 
ATOM     11  N   UNL     1      -4.248  12.269  18.994  0.00  0.00    +0.000 N 
ATOM     12  C   UNL     1      -5.506  12.900  19.357  0.00  0.00    +0.000 C 
ATOM     13  C   UNL     1      -4.223  11.574  17.800  0.00  0.00    +0.000 A 
ATOM     14  O   UNL     1      -5.220  11.487  17.079  0.00  0.00    +0.000 OA
ENDROOT
BRANCH   8  15
ATOM     15  C   UNL     1      -2.403  13.943  23.026  0.00  0.00    +0.000 A 
ATOM     16  C   UNL     1      -3.539  13.977  23.828  0.00  0.00    +0.000 A 
ATOM     17  C   UNL     1      -3.400  14.820  24.970  0.00  0.00    +0.000 A 
ATOM     18  C   UNL     1      -2.161  15.414  25.014  0.00  0.00    +0.000 A 
ATOM     19  S   UNL     1      -1.180  14.953  23.690  0.00  0.00    +0.000 S 
ENDBRANCH   8  15
BRANCH   6  20
ATOM     20  S   UNL     1       0.751  11.258  20.000  0.00  0.00    +0.000 S 
BRANCH  20  21
ATOM     21  C   UNL     1       0.898   9.723  20.959  0.00  0.00    +0.000 C 
BRANCH  21  22
ATOM     22  C   UNL     1       1.488   8.661  20.022  0.00  0.00    +0.000 C 
ATOM     23  O   UNL     1       1.696   8.881  18.830  0.00  0.00    +0.000 OA
ATOM     24  N   UNL     1       1.786   7.452  20.622  0.00  0.00    +0.000 N 
ATOM     25  H   UNL     1       1.439   7.277  21.558  0.00  0.00    +0.000 HD
BRANCH  24  26
ATOM     26  C   UNL     1       2.274   6.289  19.890  0.00  0.00    +0.000 C 
BRANCH  26  27
ATOM     27  C   UNL     1       2.117   4.987  20.687  0.00  0.00    +0.000 C 
ATOM     28  C   UNL     1       3.076   3.873  20.296  0.00  0.00    +0.000 C 
ATOM     29  C   UNL     1       2.279   2.638  20.636  0.00  0.00    +0.000 C 
ATOM     30  C   UNL     1       0.876   3.056  20.257  0.00  0.00    +0.000 C 
ATOM     31  O   UNL     1       0.780   4.464  20.513  0.00  0.00    +0.000 OA
ENDBRANCH  26  27
ENDBRANCH  24  26
ENDBRANCH  21  22
ENDBRANCH  20  21
ENDBRANCH   6  20
TORSDOF 6
ENDMDL
MODEL 8
REMARK VINA RESULT:      -6.9      5.103      8.893
REMARK  Name = 
REMARK  8 active torsions:
REMARK  status: ('A' for Active; 'I' for Inactive)
REMARK    1  A    between atoms: C_1  and  N_2
REMARK    2  A    between atoms: C_6  and  S_7
REMARK    3  A    between atoms: S_7  and  C_8
REMARK    4  A    between atoms: C_8  and  C_9
REMARK    5  A    between atoms: N_11  and  C_12
REMARK    6  A    between atoms: C_12  and  C_13
REMARK    7  A    between atoms: C_19  and  C_20
REMARK    8  A    between atoms: N_27  and  C_28
REMARK                            x       y       z     vdW  Elec       q    Type
REMARK                         _______ _______ _______ _____ _____    ______ ____
ROOT
ATOM      1  C   UNL     1       4.310  14.698  17.895  0.00  0.00    +0.000 C 
ATOM      2  N   UNL     1       3.127  14.453  18.703  0.00  0.00    +0.000 N 
ATOM      3  C   UNL     1       2.530  13.206  18.627  0.00  0.00    +0.000 A 
ATOM      4  O   UNL     1       2.979  12.337  17.887  0.00  0.00    +0.000 OA
ATOM      5  C   UNL     1       1.329  12.978  19.459  0.00  0.00    +0.000 A 
ATOM      6  C   UNL     1       0.612  11.777  19.527  0.00  0.00    +0.000 A 
ATOM      7  N   UNL     1      -0.493  11.638  20.287  0.00  0.00    +0.000 NA
ATOM      8  C   UNL     1      -0.879  12.717  20.996  0.00  0.00    +0.000 A 
ATOM      9  N   UNL     1      -0.243  13.901  20.997  0.00  0.00    +0.000 NA
ATOM     10  C   UNL     1       0.859  14.021  20.229  0.00  0.00    +0.000 A 
ATOM     11  N   UNL     1       1.531  15.264  20.228  0.00  0.00    +0.000 N 
ATOM     12  C   UNL     1       1.045  16.364  21.044  0.00  0.00    +0.000 C 
ATOM     13  C   UNL     1       2.666  15.502  19.476  0.00  0.00    +0.000 A 
ATOM     14  O   UNL     1       3.235  16.595  19.489  0.00  0.00    +0.000 OA
ENDROOT
BRANCH   8  15
ATOM     15  C   UNL     1      -2.084  12.654  21.837  0.00  0.00    +0.000 A 
ATOM     16  C   UNL     1      -2.187  12.273  23.170  0.00  0.00    +0.000 A 
ATOM     17  C   UNL     1      -3.520  12.336  23.676  0.00  0.00    +0.000 A 
ATOM     18  C   UNL     1      -4.406  12.762  22.715  0.00  0.00    +0.000 A 
ATOM     19  S   UNL     1      -3.631  13.082  21.222  0.00  0.00    +0.000 S 
ENDBRANCH   8  15
BRANCH   6  20
ATOM     20  S   UNL     1       1.149  10.343  18.593  0.00  0.00    +0.000 S 
BRANCH  20  21
ATOM     21  C   UNL     1       1.308   8.969  19.769  0.00  0.00    +0.000 C 
BRANCH  21  22
ATOM     22  C   UNL     1       2.217   7.920  19.115  0.00  0.00    +0.000 C 
ATOM     23  O   UNL     1       2.767   8.113  18.033  0.00  0.00    +0.000 OA
ATOM     24  N   UNL     1       2.384   6.756  19.842  0.00  0.00    +0.000 N 
ATOM     25  H   UNL     1       1.777   6.590  20.637  0.00  0.00    +0.000 HD
BRANCH  24  26
ATOM     26  C   UNL     1       3.138   5.606  19.358  0.00  0.00    +0.000 C 
BRANCH  26  27
ATOM     27  C   UNL     1       2.418   4.278  19.628  0.00  0.00    +0.000 C 
ATOM     28  C   UNL     1       1.209   4.375  20.546  0.00  0.00    +0.000 C 
ATOM     29  C   UNL     1       1.187   3.008  21.184  0.00  0.00    +0.000 C 
ATOM     30  C   UNL     1       2.662   2.713  21.345  0.00  0.00    +0.000 C 
ATOM     31  O   UNL     1       3.333   3.341  20.244  0.00  0.00    +0.000 OA
ENDBRANCH  26  27
ENDBRANCH  24  26
ENDBRANCH  21  22
ENDBRANCH  20  21
ENDBRANCH   6  20
TORSDOF 6
ENDMDL
MODEL 9
REMARK VINA RESULT:      -6.9      3.507      5.506
REMARK  Name = 
REMARK  8 active torsions:
REMARK  status: ('A' for Active; 'I' for Inactive)
REMARK    1  A    between atoms: C_1  and  N_2
REMARK    2  A    between atoms: C_6  and  S_7
REMARK    3  A    between atoms: S_7  and  C_8
REMARK    4  A    between atoms: C_8  and  C_9
REMARK    5  A    between atoms: N_11  and  C_12
REMARK    6  A    between atoms: C_12  and  C_13
REMARK    7  A    between atoms: C_19  and  C_20
REMARK    8  A    between atoms: N_27  and  C_28
REMARK                            x       y       z     vdW  Elec       q    Type
REMARK                         _______ _______ _______ _____ _____    ______ ____
ROOT
ATOM      1  C   UNL     1       4.243   1.360  18.569  0.00  0.00    +0.000 C 
ATOM      2  N   UNL     1       3.668   2.686  18.731  0.00  0.00    +0.000 N 
ATOM      3  C   UNL     1       4.329   3.760  18.159  0.00  0.00    +0.000 A 
ATOM      4  O   UNL     1       5.379   3.598  17.546  0.00  0.00    +0.000 OA
ATOM      5  C   UNL     1       3.726   5.098  18.334  0.00  0.00    +0.000 A 
ATOM      6  C   UNL     1       4.241   6.289  17.808  0.00  0.00    +0.000 A 
ATOM      7  N   UNL     1       3.658   7.486  18.024  0.00  0.00    +0.000 NA
ATOM      8  C   UNL     1       2.537   7.485  18.770  0.00  0.00    +0.000 A 
ATOM      9  N   UNL     1       1.970   6.389  19.302  0.00  0.00    +0.000 NA
ATOM     10  C   UNL     1       2.569   5.202  19.077  0.00  0.00    +0.000 A 
ATOM     11  N   UNL     1       1.976   4.047  19.634  0.00  0.00    +0.000 N 
ATOM     12  C   UNL     1       0.752   4.150  20.411  0.00  0.00    +0.000 C 
ATOM     13  C   UNL     1       2.505   2.781  19.473  0.00  0.00    +0.000 A 
ATOM     14  O   UNL     1       1.971   1.787  19.968  0.00  0.00    +0.000 OA
ENDROOT
BRANCH   8  15
ATOM     15  C   UNL     1       1.848   8.751  19.067  0.00  0.00    +0.000 A 
ATOM     16  C   UNL     1       1.123   9.094  20.202  0.00  0.00    +0.000 A 
ATOM     17  C   UNL     1       0.590  10.417  20.156  0.00  0.00    +0.000 A 
ATOM     18  C   UNL     1       0.919  11.054  18.983  0.00  0.00    +0.000 A 
ATOM     19  S   UNL     1       1.861  10.062  17.954  0.00  0.00    +0.000 S 
ENDBRANCH   8  15
BRANCH   6  20
ATOM     20  S   UNL     1       5.724   6.271  16.800  0.00  0.00    +0.000 S 
BRANCH  20  21
ATOM     21  C   UNL     1       7.118   6.671  17.893  0.00  0.00    +0.000 C 
BRANCH  21  22
ATOM     22  C   UNL     1       7.401   8.170  17.732  0.00  0.00    +0.000 C 
ATOM     23  O   UNL     1       6.686   8.902  17.051  0.00  0.00    +0.000 OA
ATOM     24  N   UNL     1       8.503   8.634  18.425  0.00  0.00    +0.000 N 
ATOM     25  H   UNL     1       9.143   7.959  18.828  0.00  0.00    +0.000 HD
BRANCH  24  26
ATOM     26  C   UNL     1       8.989  10.006  18.337  0.00  0.00    +0.000 C 
BRANCH  26  27
ATOM     27  C   UNL     1       9.726  10.450  19.608  0.00  0.00    +0.000 C 
ATOM     28  C   UNL     1       8.954  11.413  20.497  0.00  0.00    +0.000 C 
ATOM     29  C   UNL     1      10.066  12.190  21.159  0.00  0.00    +0.000 C 
ATOM     30  C   UNL     1      11.077  12.306  20.040  0.00  0.00    +0.000 C 
ATOM     31  O   UNL     1      10.962  11.112  19.253  0.00  0.00    +0.000 OA
ENDBRANCH  26  27
ENDBRANCH  24  26
ENDBRANCH  21  22
ENDBRANCH  20  21
ENDBRANCH   6  20
TORSDOF 6
ENDMDL
