MODEL 1
REMARK VINA RESULT:      -7.7      0.000      0.000
REMARK  Name = 
REMARK  5 active torsions:
REMARK  status: ('A' for Active; 'I' for Inactive)
REMARK    1  A    between atoms: C_2  and  C_3
REMARK    2  A    between atoms: C_6  and  C_7
REMARK    3  A    between atoms: C_12  and  O_13
REMARK    4  A    between atoms: C_14  and  C_15
REMARK    5  A    between atoms: C_15  and  O_17
REMARK                            x       y       z     vdW  Elec       q    Type
REMARK                         _______ _______ _______ _____ _____    ______ ____
ROOT
ATOM      1  C   UNL     1       4.969   5.038  15.719  0.00  0.00    +0.000 A 
ATOM      2  C   UNL     1       5.213   6.329  16.211  0.00  0.00    +0.000 A 
ATOM      3  C   UNL     1       4.611   6.774  17.386  0.00  0.00    +0.000 A 
ATOM      4  C   UNL     1       3.742   5.945  18.104  0.00  0.00    +0.000 A 
ATOM      5  C   UNL     1       3.148   6.385  19.297  0.00  0.00    +0.000 A 
ATOM      6  C   UNL     1       2.300   5.542  20.020  0.00  0.00    +0.000 A 
ATOM      7  C   UNL     1       2.035   4.244  19.571  0.00  0.00    +0.000 A 
ATOM      8  C   UNL     1       2.623   3.809  18.369  0.00  0.00    +0.000 A 
ATOM      9  C   UNL     1       3.472   4.642  17.618  0.00  0.00    +0.000 A 
ATOM     10  C   UNL     1       4.079   4.214  16.421  0.00  0.00    +0.000 A 
ENDROOT
BRANCH   1  14
ATOM     11  C   UNL     1       5.917   3.481  12.641  0.00  0.00    +0.000 A 
ATOM     12  C   UNL     1       7.128   4.092  12.889  0.00  0.00    +0.000 A 
ATOM     13  C   UNL     1       6.983   4.802  14.096  0.00  0.00    +0.000 A 
ATOM     14  C   UNL     1       5.691   4.586  14.534  0.00  0.00    +0.000 A 
ATOM     15  O   UNL     1       5.034   3.776  13.647  0.00  0.00    +0.000 OA
BRANCH  11  17
ATOM     16  O   UNL     1       5.904   1.509  11.337  0.00  0.00    +0.000 OA
ATOM     17  C   UNL     1       5.500   2.654  11.542  0.00  0.00    +0.000 C 
ENDBRANCH  11  17
ENDBRANCH   1  14
BRANCH   6  18
ATOM     18  O   UNL     1       1.730   6.001  21.181  0.00  0.00    +0.000 OA
ATOM     19  H   UNL     1       1.248   5.267  21.608  0.00  0.00    +0.000 HD
ENDBRANCH   6  18
BRANCH   7  20
ATOM     20  C   UNL     1       1.158   3.277  20.297  0.00  0.00    +0.000 C 
ATOM     21  O   UNL     1       1.326   3.003  21.475  0.00  0.00    +0.000 OA
BRANCH  20  22
ATOM     22  O   UNL     1       0.165   2.727  19.568  0.00  0.00    +0.000 OA
ATOM     23  H   UNL     1       0.493   2.311  18.740  0.00  0.00    +0.000 HD
ENDBRANCH  20  22
ENDBRANCH   7  20
TORSDOF 5
ENDMDL
MODEL 2
REMARK VINA RESULT:      -7.7      1.493      1.918
REMARK  Name = 
REMARK  5 active torsions:
REMARK  status: ('A' for Active; 'I' for Inactive)
REMARK    1  A    between atoms: C_2  and  C_3
REMARK    2  A    between atoms: C_6  and  C_7
REMARK    3  A    between atoms: C_12  and  O_13
REMARK    4  A    between atoms: C_14  and  C_15
REMARK    5  A    between atoms: C_15  and  O_17
REMARK                            x       y       z     vdW  Elec       q    Type
REMARK                         _______ _______ _______ _____ _____    ______ ____
ROOT
ATOM      1  C   UNL     1       4.843   5.306  15.990  0.00  0.00    +0.000 A 
ATOM      2  C   UNL     1       4.781   6.684  16.243  0.00  0.00    +0.000 A 
ATOM      3  C   UNL     1       4.108   7.179  17.359  0.00  0.00    +0.000 A 
ATOM      4  C   UNL     1       3.474   6.312  18.255  0.00  0.00    +0.000 A 
ATOM      5  C   UNL     1       2.811   6.806  19.389  0.00  0.00    +0.000 A 
ATOM      6  C   UNL     1       2.199   5.932  20.291  0.00  0.00    +0.000 A 
ATOM      7  C   UNL     1       2.244   4.549  20.082  0.00  0.00    +0.000 A 
ATOM      8  C   UNL     1       2.900   4.056  18.940  0.00  0.00    +0.000 A 
ATOM      9  C   UNL     1       3.514   4.917  18.012  0.00  0.00    +0.000 A 
ATOM     10  C   UNL     1       4.187   4.435  16.871  0.00  0.00    +0.000 A 
ENDROOT
BRANCH   1  14
ATOM     11  C   UNL     1       7.283   4.927  13.401  0.00  0.00    +0.000 A 
ATOM     12  C   UNL     1       6.551   3.799  13.095  0.00  0.00    +0.000 A 
ATOM     13  C   UNL     1       5.499   3.734  14.029  0.00  0.00    +0.000 A 
ATOM     14  C   UNL     1       5.633   4.830  14.859  0.00  0.00    +0.000 A 
ATOM     15  O   UNL     1       6.724   5.565  14.478  0.00  0.00    +0.000 OA
BRANCH  11  17
ATOM     16  O   UNL     1       9.273   6.201  13.355  0.00  0.00    +0.000 OA
ATOM     17  C   UNL     1       8.468   5.462  12.789  0.00  0.00    +0.000 C 
ENDBRANCH  11  17
ENDBRANCH   1  14
BRANCH   6  18
ATOM     18  O   UNL     1       1.555   6.445  21.388  0.00  0.00    +0.000 OA
ATOM     19  H   UNL     1       0.639   6.106  21.405  0.00  0.00    +0.000 HD
ENDBRANCH   6  18
BRANCH   7  20
ATOM     20  C   UNL     1       1.635   3.550  21.010  0.00  0.00    +0.000 C 
ATOM     21  O   UNL     1       2.101   3.317  22.115  0.00  0.00    +0.000 OA
BRANCH  20  22
ATOM     22  O   UNL     1       0.532   2.922  20.551  0.00  0.00    +0.000 OA
ATOM     23  H   UNL     1       0.658   2.558  19.647  0.00  0.00    +0.000 HD
ENDBRANCH  20  22
ENDBRANCH   7  20
TORSDOF 5
ENDMDL
MODEL 3
REMARK VINA RESULT:      -7.7      3.245      7.668
REMARK  Name = 
REMARK  5 active torsions:
REMARK  status: ('A' for Active; 'I' for Inactive)
REMARK    1  A    between atoms: C_2  and  C_3
REMARK    2  A    between atoms: C_6  and  C_7
REMARK    3  A    between atoms: C_12  and  O_13
REMARK    4  A    between atoms: C_14  and  C_15
REMARK    5  A    between atoms: C_15  and  O_17
REMARK                            x       y       z     vdW  Elec       q    Type
REMARK                         _______ _______ _______ _____ _____    ______ ____
ROOT
ATOM      1  C   UNL     1       2.010   8.032  19.231  0.00  0.00    +0.000 A 
ATOM      2  C   UNL     1       2.626   8.417  18.032  0.00  0.00    +0.000 A 
ATOM      3  C   UNL     1       3.423   7.525  17.316  0.00  0.00    +0.000 A 
ATOM      4  C   UNL     1       3.633   6.222  17.779  0.00  0.00    +0.000 A 
ATOM      5  C   UNL     1       4.421   5.316  17.052  0.00  0.00    +0.000 A 
ATOM      6  C   UNL     1       4.607   4.010  17.510  0.00  0.00    +0.000 A 
ATOM      7  C   UNL     1       4.004   3.580  18.698  0.00  0.00    +0.000 A 
ATOM      8  C   UNL     1       3.223   4.492  19.431  0.00  0.00    +0.000 A 
ATOM      9  C   UNL     1       3.029   5.816  18.995  0.00  0.00    +0.000 A 
ATOM     10  C   UNL     1       2.238   6.735  19.712  0.00  0.00    +0.000 A 
ENDROOT
BRANCH   1  14
ATOM     11  C   UNL     1       0.048   9.818  21.630  0.00  0.00    +0.000 A 
ATOM     12  C   UNL     1      -0.336  10.556  20.531  0.00  0.00    +0.000 A 
ATOM     13  C   UNL     1       0.347  10.018  19.424  0.00  0.00    +0.000 A 
ATOM     14  C   UNL     1       1.113   8.970  19.898  0.00  0.00    +0.000 A 
ATOM     15  O   UNL     1       0.932   8.843  21.249  0.00  0.00    +0.000 OA
BRANCH  11  17
ATOM     16  O   UNL     1       0.386   9.609  23.961  0.00  0.00    +0.000 OA
ATOM     17  C   UNL     1      -0.324   9.945  23.013  0.00  0.00    +0.000 C 
ENDBRANCH  11  17
ENDBRANCH   1  14
BRANCH   6  18
ATOM     18  O   UNL     1       5.386   3.148  16.780  0.00  0.00    +0.000 OA
ATOM     19  H   UNL     1       4.814   2.648  16.166  0.00  0.00    +0.000 HD
ENDBRANCH   6  18
BRANCH   7  20
ATOM     20  C   UNL     1       4.136   2.195  19.242  0.00  0.00    +0.000 C 
ATOM     21  O   UNL     1       4.767   1.952  20.259  0.00  0.00    +0.000 OA
BRANCH  20  22
ATOM     22  O   UNL     1       3.510   1.228  18.539  0.00  0.00    +0.000 OA
ATOM     23  H   UNL     1       4.105   0.791  17.892  0.00  0.00    +0.000 HD
ENDBRANCH  20  22
ENDBRANCH   7  20
TORSDOF 5
ENDMDL
MODEL 4
REMARK VINA RESULT:      -7.7      3.694      5.410
REMARK  Name = 
REMARK  5 active torsions:
REMARK  status: ('A' for Active; 'I' for Inactive)
REMARK    1  A    between atoms: C_2  and  C_3
REMARK    2  A    between atoms: C_6  and  C_7
REMARK    3  A    between atoms: C_12  and  O_13
REMARK    4  A    between atoms: C_14  and  C_15
REMARK    5  A    between atoms: C_15  and  O_17
REMARK                            x       y       z     vdW  Elec       q    Type
REMARK                         _______ _______ _______ _____ _____    ______ ____
ROOT
ATOM      1  C   UNL     1       2.911   6.921  18.355  0.00  0.00    +0.000 A 
ATOM      2  C   UNL     1       2.686   7.956  17.436  0.00  0.00    +0.000 A 
ATOM      3  C   UNL     1       1.974   9.097  17.801  0.00  0.00    +0.000 A 
ATOM      4  C   UNL     1       1.462   9.239  19.095  0.00  0.00    +0.000 A 
ATOM      5  C   UNL     1       0.761  10.394  19.471  0.00  0.00    +0.000 A 
ATOM      6  C   UNL     1       0.273  10.538  20.772  0.00  0.00    +0.000 A 
ATOM      7  C   UNL     1       0.482   9.534  21.724  0.00  0.00    +0.000 A 
ATOM      8  C   UNL     1       1.177   8.371  21.343  0.00  0.00    +0.000 A 
ATOM      9  C   UNL     1       1.669   8.200  20.036  0.00  0.00    +0.000 A 
ATOM     10  C   UNL     1       2.378   7.047  19.645  0.00  0.00    +0.000 A 
ENDROOT
BRANCH   1  14
ATOM     11  C   UNL     1       5.640   4.761  17.529  0.00  0.00    +0.000 A 
ATOM     12  C   UNL     1       4.635   3.855  17.261  0.00  0.00    +0.000 A 
ATOM     13  C   UNL     1       3.419   4.509  17.537  0.00  0.00    +0.000 A 
ATOM     14  C   UNL     1       3.737   5.787  17.954  0.00  0.00    +0.000 A 
ATOM     15  O   UNL     1       5.097   5.947  17.950  0.00  0.00    +0.000 OA
BRANCH  11  17
ATOM     16  O   UNL     1       7.714   4.694  16.396  0.00  0.00    +0.000 OA
ATOM     17  C   UNL     1       7.068   4.619  17.441  0.00  0.00    +0.000 C 
ENDBRANCH  11  17
ENDBRANCH   1  14
BRANCH   6  18
ATOM     18  O   UNL     1      -0.413  11.677  21.108  0.00  0.00    +0.000 OA
ATOM     19  H   UNL     1      -0.301  12.336  20.396  0.00  0.00    +0.000 HD
ENDBRANCH   6  18
BRANCH   7  20
ATOM     20  C   UNL     1       0.012   9.621  23.139  0.00  0.00    +0.000 C 
ATOM     21  O   UNL     1       0.776   9.521  24.087  0.00  0.00    +0.000 OA
BRANCH  20  22
ATOM     22  O   UNL     1      -1.312   9.822  23.304  0.00  0.00    +0.000 OA
ATOM     23  H   UNL     1      -1.821   8.981  23.306  0.00  0.00    +0.000 HD
ENDBRANCH  20  22
ENDBRANCH   7  20
TORSDOF 5
ENDMDL
MODEL 5
REMARK VINA RESULT:      -7.7      1.576      7.445
REMARK  Name = 
REMARK  5 active torsions:
REMARK  status: ('A' for Active; 'I' for Inactive)
REMARK    1  A    between atoms: C_2  and  C_3
REMARK    2  A    between atoms: C_6  and  C_7
REMARK    3  A    between atoms: C_12  and  O_13
REMARK    4  A    between atoms: C_14  and  C_15
REMARK    5  A    between atoms: C_15  and  O_17
REMARK                            x       y       z     vdW  Elec       q    Type
REMARK                         _______ _______ _______ _____ _____    ______ ____
ROOT
ATOM      1  C   UNL     1       3.800   4.217  17.776  0.00  0.00    +0.000 A 
ATOM      2  C   UNL     1       4.629   5.214  18.309  0.00  0.00    +0.000 A 
ATOM      3  C   UNL     1       5.713   5.708  17.586  0.00  0.00    +0.000 A 
ATOM      4  C   UNL     1       6.005   5.218  16.309  0.00  0.00    +0.000 A 
ATOM      5  C   UNL     1       7.086   5.725  15.572  0.00  0.00    +0.000 A 
ATOM      6  C   UNL     1       7.357   5.247  14.288  0.00  0.00    +0.000 A 
ATOM      7  C   UNL     1       6.550   4.258  13.713  0.00  0.00    +0.000 A 
ATOM      8  C   UNL     1       5.474   3.742  14.458  0.00  0.00    +0.000 A 
ATOM      9  C   UNL     1       5.187   4.201  15.756  0.00  0.00    +0.000 A 
ATOM     10  C   UNL     1       4.104   3.704  16.507  0.00  0.00    +0.000 A 
ENDROOT
BRANCH   1  14
ATOM     11  C   UNL     1       1.560   3.095  20.330  0.00  0.00    +0.000 A 
ATOM     12  C   UNL     1       0.622   3.181  19.324  0.00  0.00    +0.000 A 
ATOM     13  C   UNL     1       1.301   3.633  18.176  0.00  0.00    +0.000 A 
ATOM     14  C   UNL     1       2.626   3.795  18.533  0.00  0.00    +0.000 A 
ATOM     15  O   UNL     1       2.790   3.466  19.852  0.00  0.00    +0.000 OA
BRANCH  11  17
ATOM     16  O   UNL     1       2.338   2.320  22.424  0.00  0.00    +0.000 OA
ATOM     17  C   UNL     1       1.416   2.710  21.707  0.00  0.00    +0.000 C 
ENDBRANCH  11  17
ENDBRANCH   1  14
BRANCH   6  18
ATOM     18  O   UNL     1       8.423   5.759  13.592  0.00  0.00    +0.000 OA
ATOM     19  H   UNL     1       8.188   5.809  12.645  0.00  0.00    +0.000 HD
ENDBRANCH   6  18
BRANCH   7  20
ATOM     20  C   UNL     1       6.760   3.710  12.339  0.00  0.00    +0.000 C 
ATOM     21  O   UNL     1       7.371   4.325  11.479  0.00  0.00    +0.000 OA
BRANCH  20  22
ATOM     22  O   UNL     1       6.235   2.488  12.110  0.00  0.00    +0.000 OA
ATOM     23  H   UNL     1       5.863   2.082  12.923  0.00  0.00    +0.000 HD
ENDBRANCH  20  22
ENDBRANCH   7  20
TORSDOF 5
ENDMDL
MODEL 6
REMARK VINA RESULT:      -7.6      4.044      6.190
REMARK  Name = 
REMARK  5 active torsions:
REMARK  status: ('A' for Active; 'I' for Inactive)
REMARK    1  A    between atoms: C_2  and  C_3
REMARK    2  A    between atoms: C_6  and  C_7
REMARK    3  A    between atoms: C_12  and  O_13
REMARK    4  A    between atoms: C_14  and  C_15
REMARK    5  A    between atoms: C_15  and  O_17
REMARK                            x       y       z     vdW  Elec       q    Type
REMARK                         _______ _______ _______ _____ _____    ______ ____
ROOT
ATOM      1  C   UNL     1       2.762   6.851  18.946  0.00  0.00    +0.000 A 
ATOM      2  C   UNL     1       2.601   7.723  17.860  0.00  0.00    +0.000 A 
ATOM      3  C   UNL     1       1.854   8.893  17.985  0.00  0.00    +0.000 A 
ATOM      4  C   UNL     1       1.240   9.226  19.197  0.00  0.00    +0.000 A 
ATOM      5  C   UNL     1       0.502  10.412  19.330  0.00  0.00    +0.000 A 
ATOM      6  C   UNL     1      -0.088  10.747  20.551  0.00  0.00    +0.000 A 
ATOM      7  C   UNL     1       0.053   9.910  21.663  0.00  0.00    +0.000 A 
ATOM      8  C   UNL     1       0.785   8.717  21.525  0.00  0.00    +0.000 A 
ATOM      9  C   UNL     1       1.380   8.352  20.304  0.00  0.00    +0.000 A 
ATOM     10  C   UNL     1       2.127   7.167  20.156  0.00  0.00    +0.000 A 
ENDROOT
BRANCH   1  14
ATOM     11  C   UNL     1       4.288   3.627  19.222  0.00  0.00    +0.000 A 
ATOM     12  C   UNL     1       5.179   4.146  18.307  0.00  0.00    +0.000 A 
ATOM     13  C   UNL     1       4.754   5.460  18.029  0.00  0.00    +0.000 A 
ATOM     14  C   UNL     1       3.626   5.685  18.794  0.00  0.00    +0.000 A 
ATOM     15  O   UNL     1       3.336   4.565  19.527  0.00  0.00    +0.000 OA
BRANCH  11  17
ATOM     16  O   UNL     1       5.145   1.822  20.484  0.00  0.00    +0.000 OA
ATOM     17  C   UNL     1       4.232   2.327  19.832  0.00  0.00    +0.000 C 
ENDBRANCH  11  17
ENDBRANCH   1  14
BRANCH   6  18
ATOM     18  O   UNL     1      -0.808  11.912  20.649  0.00  0.00    +0.000 OA
ATOM     19  H   UNL     1      -0.655  12.446  19.846  0.00  0.00    +0.000 HD
ENDBRANCH   6  18
BRANCH   7  20
ATOM     20  C   UNL     1      -0.528  10.209  23.006  0.00  0.00    +0.000 C 
ATOM     21  O   UNL     1      -1.514  10.916  23.147  0.00  0.00    +0.000 OA
BRANCH  20  22
ATOM     22  O   UNL     1       0.105   9.645  24.056  0.00  0.00    +0.000 OA
ATOM     23  H   UNL     1      -0.031   8.673  24.097  0.00  0.00    +0.000 HD
ENDBRANCH  20  22
ENDBRANCH   7  20
TORSDOF 5
ENDMDL
MODEL 7
REMARK VINA RESULT:      -7.6      1.422      7.382
REMARK  Name = 
REMARK  5 active torsions:
REMARK  status: ('A' for Active; 'I' for Inactive)
REMARK    1  A    between atoms: C_2  and  C_3
REMARK    2  A    between atoms: C_6  and  C_7
REMARK    3  A    between atoms: C_12  and  O_13
REMARK    4  A    between atoms: C_14  and  C_15
REMARK    5  A    between atoms: C_15  and  O_17
REMARK                            x       y       z     vdW  Elec       q    Type
REMARK                         _______ _______ _______ _____ _____    ______ ____
ROOT
ATOM      1  C   UNL     1       4.347   5.042  18.045  0.00  0.00    +0.000 A 
ATOM      2  C   UNL     1       5.453   5.887  18.217  0.00  0.00    +0.000 A 
ATOM      3  C   UNL     1       6.407   6.033  17.212  0.00  0.00    +0.000 A 
ATOM      4  C   UNL     1       6.288   5.337  16.005  0.00  0.00    +0.000 A 
ATOM      5  C   UNL     1       7.238   5.495  14.984  0.00  0.00    +0.000 A 
ATOM      6  C   UNL     1       7.099   4.813  13.773  0.00  0.00    +0.000 A 
ATOM      7  C   UNL     1       6.006   3.967  13.554  0.00  0.00    +0.000 A 
ATOM      8  C   UNL     1       5.060   3.801  14.582  0.00  0.00    +0.000 A 
ATOM      9  C   UNL     1       5.184   4.469  15.815  0.00  0.00    +0.000 A 
ATOM     10  C   UNL     1       4.237   4.323  16.847  0.00  0.00    +0.000 A 
ENDROOT
BRANCH   1  14
ATOM     11  C   UNL     1       1.955   3.977  20.483  0.00  0.00    +0.000 A 
ATOM     12  C   UNL     1       1.761   5.332  20.652  0.00  0.00    +0.000 A 
ATOM     13  C   UNL     1       2.642   5.980  19.766  0.00  0.00    +0.000 A 
ATOM     14  C   UNL     1       3.329   4.991  19.089  0.00  0.00    +0.000 A 
ATOM     15  O   UNL     1       2.911   3.762  19.524  0.00  0.00    +0.000 OA
BRANCH  11  17
ATOM     16  O   UNL     1       1.664   2.439  22.254  0.00  0.00    +0.000 OA
ATOM     17  C   UNL     1       1.340   2.859  21.143  0.00  0.00    +0.000 C 
ENDBRANCH  11  17
ENDBRANCH   1  14
BRANCH   6  18
ATOM     18  O   UNL     1       8.046   4.985  12.794  0.00  0.00    +0.000 OA
ATOM     19  H   UNL     1       8.761   5.551  13.143  0.00  0.00    +0.000 HD
ENDBRANCH   6  18
BRANCH   7  20
ATOM     20  C   UNL     1       5.774   3.222  12.281  0.00  0.00    +0.000 C 
ATOM     21  O   UNL     1       4.721   3.292  11.667  0.00  0.00    +0.000 OA
BRANCH  20  22
ATOM     22  O   UNL     1       6.806   2.467  11.849  0.00  0.00    +0.000 OA
ATOM     23  H   UNL     1       6.515   1.588  11.520  0.00  0.00    +0.000 HD
ENDBRANCH  20  22
ENDBRANCH   7  20
TORSDOF 5
ENDMDL
MODEL 8
REMARK VINA RESULT:      -7.4      1.416      2.013
REMARK  Name = 
REMARK  5 active torsions:
REMARK  status: ('A' for Active; 'I' for Inactive)
REMARK    1  A    between atoms: C_2  and  C_3
REMARK    2  A    between atoms: C_6  and  C_7
REMARK    3  A    between atoms: C_12  and  O_13
REMARK    4  A    between atoms: C_14  and  C_15
REMARK    5  A    between atoms: C_15  and  O_17
REMARK                            x       y       z     vdW  Elec       q    Type
REMARK                         _______ _______ _______ _____ _____    ______ ____
ROOT
ATOM      1  C   UNL     1       5.067   5.100  15.824  0.00  0.00    +0.000 A 
ATOM      2  C   UNL     1       5.342   6.306  16.486  0.00  0.00    +0.000 A 
ATOM      3  C   UNL     1       4.692   6.636  17.674  0.00  0.00    +0.000 A 
ATOM      4  C   UNL     1       3.744   5.774  18.235  0.00  0.00    +0.000 A 
ATOM      5  C   UNL     1       3.101   6.095  19.441  0.00  0.00    +0.000 A 
ATOM      6  C   UNL     1       2.173   5.219  20.006  0.00  0.00    +0.000 A 
ATOM      7  C   UNL     1       1.874   4.001  19.384  0.00  0.00    +0.000 A 
ATOM      8  C   UNL     1       2.512   3.685  18.170  0.00  0.00    +0.000 A 
ATOM      9  C   UNL     1       3.443   4.556  17.576  0.00  0.00    +0.000 A 
ATOM     10  C   UNL     1       4.099   4.246  16.369  0.00  0.00    +0.000 A 
ENDROOT
BRANCH   1  14
ATOM     11  C   UNL     1       7.450   5.030  13.157  0.00  0.00    +0.000 A 
ATOM     12  C   UNL     1       6.723   3.931  12.749  0.00  0.00    +0.000 A 
ATOM     13  C   UNL     1       5.694   3.754  13.693  0.00  0.00    +0.000 A 
ATOM     14  C   UNL     1       5.836   4.758  14.632  0.00  0.00    +0.000 A 
ATOM     15  O   UNL     1       6.910   5.542  14.308  0.00  0.00    +0.000 OA
BRANCH  11  17
ATOM     16  O   UNL     1       9.494   6.216  13.224  0.00  0.00    +0.000 OA
ATOM     17  C   UNL     1       8.615   5.642  12.580  0.00  0.00    +0.000 C 
ENDBRANCH  11  17
ENDBRANCH   1  14
BRANCH   6  18
ATOM     18  O   UNL     1       1.557   5.562  21.183  0.00  0.00    +0.000 OA
ATOM     19  H   UNL     1       1.335   6.513  21.158  0.00  0.00    +0.000 HD
ENDBRANCH   6  18
BRANCH   7  20
ATOM     20  C   UNL     1       0.911   3.001  19.935  0.00  0.00    +0.000 C 
ATOM     21  O   UNL     1       0.197   2.320  19.217  0.00  0.00    +0.000 OA
BRANCH  20  22
ATOM     22  O   UNL     1       0.883   2.896  21.280  0.00  0.00    +0.000 OA
ATOM     23  H   UNL     1      -0.020   2.711  21.623  0.00  0.00    +0.000 HD
ENDBRANCH  20  22
ENDBRANCH   7  20
TORSDOF 5
ENDMDL
MODEL 9
REMARK VINA RESULT:      -7.4      3.796      5.828
REMARK  Name = 
REMARK  5 active torsions:
REMARK  status: ('A' for Active; 'I' for Inactive)
REMARK    1  A    between atoms: C_2  and  C_3
REMARK    2  A    between atoms: C_6  and  C_7
REMARK    3  A    between atoms: C_12  and  O_13
REMARK    4  A    between atoms: C_14  and  C_15
REMARK    5  A    between atoms: C_15  and  O_17
REMARK                            x       y       z     vdW  Elec       q    Type
REMARK                         _______ _______ _______ _____ _____    ______ ____
ROOT
ATOM      1  C   UNL     1       2.724   6.997  18.568  0.00  0.00    +0.000 A 
ATOM      2  C   UNL     1       2.556   7.982  17.584  0.00  0.00    +0.000 A 
ATOM      3  C   UNL     1       1.862   9.159  17.859  0.00  0.00    +0.000 A 
ATOM      4  C   UNL     1       1.310   9.387  19.124  0.00  0.00    +0.000 A 
ATOM      5  C   UNL     1       0.626  10.578  19.408  0.00  0.00    +0.000 A 
ATOM      6  C   UNL     1       0.098  10.807  20.681  0.00  0.00    +0.000 A 
ATOM      7  C   UNL     1       0.250   9.855  21.696  0.00  0.00    +0.000 A 
ATOM      8  C   UNL     1       0.927   8.656  21.406  0.00  0.00    +0.000 A 
ATOM      9  C   UNL     1       1.458   8.399  20.129  0.00  0.00    +0.000 A 
ATOM     10  C   UNL     1       2.151   7.209  19.829  0.00  0.00    +0.000 A 
ENDROOT
BRANCH   1  14
ATOM     11  C   UNL     1       4.110   3.702  18.425  0.00  0.00    +0.000 A 
ATOM     12  C   UNL     1       5.012   4.290  17.563  0.00  0.00    +0.000 A 
ATOM     13  C   UNL     1       4.641   5.644  17.454  0.00  0.00    +0.000 A 
ATOM     14  C   UNL     1       3.534   5.823  18.260  0.00  0.00    +0.000 A 
ATOM     15  O   UNL     1       3.205   4.636  18.859  0.00  0.00    +0.000 OA
BRANCH  11  17
ATOM     16  O   UNL     1       3.263   1.496  18.376  0.00  0.00    +0.000 OA
ATOM     17  C   UNL     1       4.005   2.342  18.876  0.00  0.00    +0.000 C 
ENDBRANCH  11  17
ENDBRANCH   1  14
BRANCH   6  18
ATOM     18  O   UNL     1      -0.570  11.980  20.929  0.00  0.00    +0.000 OA
ATOM     19  H   UNL     1      -0.339  12.292  21.825  0.00  0.00    +0.000 HD
ENDBRANCH   6  18
BRANCH   7  20
ATOM     20  C   UNL     1      -0.266  10.034  23.086  0.00  0.00    +0.000 C 
ATOM     21  O   UNL     1       0.322   9.592  24.061  0.00  0.00    +0.000 OA
BRANCH  20  22
ATOM     22  O   UNL     1      -1.422  10.721  23.198  0.00  0.00    +0.000 OA
ATOM     23  H   UNL     1      -1.369  11.613  22.790  0.00  0.00    +0.000 HD
ENDBRANCH  20  22
ENDBRANCH   7  20
TORSDOF 5
ENDMDL
