MODEL 1
REMARK VINA RESULT:      -7.7      0.000      0.000
REMARK  Name = 
REMARK  7 active torsions:
REMARK  status: ('A' for Active; 'I' for Inactive)
REMARK    1  A    between atoms: C_1  and  N_2
REMARK    2  A    between atoms: C_3  and  C_4
REMARK    3  A    between atoms: C_4  and  N_5
REMARK    4  A    between atoms: C_6  and  C_8
REMARK    5  A    between atoms: C_17  and  S_18
REMARK    6  A    between atoms: S_18  and  C_19
REMARK    7  A    between atoms: C_19  and  C_20
REMARK                            x       y       z     vdW  Elec       q    Type
REMARK                         _______ _______ _______ _____ _____    ______ ____
ROOT
ATOM      1  C   UNL     1       1.509   8.134  20.513  0.00  0.00    +0.000 C 
ATOM      2  N   UNL     1       2.123   7.895  19.232  0.00  0.00    +0.000 N 
ATOM      3  C   UNL     1       2.274   8.782  18.188  0.00  0.00    +0.000 A 
ATOM      4  N   UNL     1       2.931   8.171  17.215  0.00  0.00    +0.000 NA
ATOM      5  N   UNL     1       3.205   6.880  17.614  0.00  0.00    +0.000 NA
ATOM      6  C   UNL     1       2.701   6.725  18.816  0.00  0.00    +0.000 A 
ENDROOT
BRANCH   3   7
ATOM      7  C   UNL     1       1.833  10.207  18.178  0.00  0.00    +0.000 C 
BRANCH   7   8
ATOM      8  N   UNL     1       0.391  10.301  18.076  0.00  0.00    +0.000 N 
ATOM      9  C   UNL     1      -0.364  11.150  18.856  0.00  0.00    +0.000 C 
ATOM     10  O   UNL     1       0.115  11.907  19.687  0.00  0.00    +0.000 OA
ATOM     11  H   UNL     1      -0.041   9.820  17.300  0.00  0.00    +0.000 HD
BRANCH   9  12
ATOM     12  C   UNL     1      -1.836  11.128  18.612  0.00  0.00    +0.000 A 
ATOM     13  C   UNL     1      -2.420  10.181  17.757  0.00  0.00    +0.000 A 
ATOM     14  C   UNL     1      -3.803  10.177  17.552  0.00  0.00    +0.000 A 
ATOM     15  C   UNL     1      -4.607  11.111  18.207  0.00  0.00    +0.000 A 
ATOM     16 CL   UNL     1      -6.308  11.100  17.954  0.00  0.00    +0.000 Cl
ATOM     17  C   UNL     1      -4.036  12.048  19.072  0.00  0.00    +0.000 A 
ATOM     18  C   UNL     1      -2.651  12.054  19.281  0.00  0.00    +0.000 A 
ENDBRANCH   9  12
ENDBRANCH   7   8
ENDBRANCH   3   7
BRANCH   6  19
ATOM     19  S   UNL     1       2.642   5.253  19.723  0.00  0.00    +0.000 S 
BRANCH  19  20
ATOM     20  C   UNL     1       4.320   4.592  19.506  0.00  0.00    +0.000 C 
BRANCH  20  21
ATOM     21  C   UNL     1       4.564   4.007  18.115  0.00  0.00    +0.000 C 
ATOM     22  O   UNL     1       3.763   3.243  17.570  0.00  0.00    +0.000 OA
ATOM     23  N   UNL     1       5.726   4.406  17.460  0.00  0.00    +0.000 N 
ATOM     24  C   UNL     1       6.805   5.242  18.003  0.00  0.00    +0.000 C 
ATOM     25  C   UNL     1       7.182   6.350  17.008  0.00  0.00    +0.000 C 
ATOM     26  O   UNL     1       7.483   5.814  15.709  0.00  0.00    +0.000 OA
ATOM     27  C   UNL     1       6.364   5.081  15.185  0.00  0.00    +0.000 C 
ATOM     28  C   UNL     1       6.000   3.913  16.106  0.00  0.00    +0.000 C 
ENDBRANCH  20  21
ENDBRANCH  19  20
ENDBRANCH   6  19
TORSDOF 6
ENDMDL
MODEL 2
REMARK VINA RESULT:      -7.5      1.248      1.368
REMARK  Name = 
REMARK  7 active torsions:
REMARK  status: ('A' for Active; 'I' for Inactive)
REMARK    1  A    between atoms: C_1  and  N_2
REMARK    2  A    between atoms: C_3  and  C_4
REMARK    3  A    between atoms: C_4  and  N_5
REMARK    4  A    between atoms: C_6  and  C_8
REMARK    5  A    between atoms: C_17  and  S_18
REMARK    6  A    between atoms: S_18  and  C_19
REMARK    7  A    between atoms: C_19  and  C_20
REMARK                            x       y       z     vdW  Elec       q    Type
REMARK                         _______ _______ _______ _____ _____    ______ ____
ROOT
ATOM      1  C   UNL     1       1.484   7.703  20.729  0.00  0.00    +0.000 C 
ATOM      2  N   UNL     1       1.769   8.181  19.401  0.00  0.00    +0.000 N 
ATOM      3  C   UNL     1       1.544   9.441  18.888  0.00  0.00    +0.000 A 
ATOM      4  N   UNL     1       1.993   9.470  17.644  0.00  0.00    +0.000 NA
ATOM      5  N   UNL     1       2.505   8.228  17.333  0.00  0.00    +0.000 NA
ATOM      6  C   UNL     1       2.350   7.463  18.388  0.00  0.00    +0.000 A 
ENDROOT
BRANCH   3   7
ATOM      7  C   UNL     1       0.957  10.596  19.628  0.00  0.00    +0.000 C 
BRANCH   7   8
ATOM      8  N   UNL     1      -0.464  10.707  19.366  0.00  0.00    +0.000 N 
ATOM      9  C   UNL     1      -1.029  11.797  18.738  0.00  0.00    +0.000 C 
ATOM     10  O   UNL     1      -0.384  12.752  18.335  0.00  0.00    +0.000 OA
ATOM     11  H   UNL     1      -1.022   9.882  19.532  0.00  0.00    +0.000 HD
BRANCH   9  12
ATOM     12  C   UNL     1      -2.507  11.743  18.538  0.00  0.00    +0.000 A 
ATOM     13  C   UNL     1      -3.069  11.121  17.411  0.00  0.00    +0.000 A 
ATOM     14  C   UNL     1      -4.457  11.077  17.252  0.00  0.00    +0.000 A 
ATOM     15  C   UNL     1      -5.288  11.644  18.218  0.00  0.00    +0.000 A 
ATOM     16 CL   UNL     1      -6.994  11.584  18.019  0.00  0.00    +0.000 Cl
ATOM     17  C   UNL     1      -4.738  12.252  19.351  0.00  0.00    +0.000 A 
ATOM     18  C   UNL     1      -3.347  12.296  19.515  0.00  0.00    +0.000 A 
ENDBRANCH   9  12
ENDBRANCH   7   8
ENDBRANCH   3   7
BRANCH   6  19
ATOM     19  S   UNL     1       2.693   5.771  18.491  0.00  0.00    +0.000 S 
BRANCH  19  20
ATOM     20  C   UNL     1       4.249   5.745  19.431  0.00  0.00    +0.000 C 
BRANCH  20  21
ATOM     21  C   UNL     1       5.325   4.867  18.794  0.00  0.00    +0.000 C 
ATOM     22  O   UNL     1       5.667   3.784  19.278  0.00  0.00    +0.000 OA
ATOM     23  N   UNL     1       5.889   5.326  17.607  0.00  0.00    +0.000 N 
ATOM     24  C   UNL     1       5.645   6.619  16.953  0.00  0.00    +0.000 C 
ATOM     25  C   UNL     1       5.366   6.421  15.455  0.00  0.00    +0.000 C 
ATOM     26  O   UNL     1       6.403   5.656  14.820  0.00  0.00    +0.000 OA
ATOM     27  C   UNL     1       6.541   4.367  15.440  0.00  0.00    +0.000 C 
ATOM     28  C   UNL     1       6.898   4.511  16.922  0.00  0.00    +0.000 C 
ENDBRANCH  20  21
ENDBRANCH  19  20
ENDBRANCH   6  19
TORSDOF 6
ENDMDL
MODEL 3
REMARK VINA RESULT:      -7.5      6.414      9.050
REMARK  Name = 
REMARK  7 active torsions:
REMARK  status: ('A' for Active; 'I' for Inactive)
REMARK    1  A    between atoms: C_1  and  N_2
REMARK    2  A    between atoms: C_3  and  C_4
REMARK    3  A    between atoms: C_4  and  N_5
REMARK    4  A    between atoms: C_6  and  C_8
REMARK    5  A    between atoms: C_17  and  S_18
REMARK    6  A    between atoms: S_18  and  C_19
REMARK    7  A    between atoms: C_19  and  C_20
REMARK                            x       y       z     vdW  Elec       q    Type
REMARK                         _______ _______ _______ _____ _____    ______ ____
ROOT
ATOM      1  C   UNL     1       7.744   5.500  19.520  0.00  0.00    +0.000 C 
ATOM      2  N   UNL     1       7.656   6.310  18.333  0.00  0.00    +0.000 N 
ATOM      3  C   UNL     1       8.040   7.624  18.174  0.00  0.00    +0.000 A 
ATOM      4  N   UNL     1       7.828   7.971  16.914  0.00  0.00    +0.000 NA
ATOM      5  N   UNL     1       7.296   6.889  16.246  0.00  0.00    +0.000 NA
ATOM      6  C   UNL     1       7.184   5.907  17.111  0.00  0.00    +0.000 A 
ENDROOT
BRANCH   3   7
ATOM      7  C   UNL     1       8.653   8.491  19.222  0.00  0.00    +0.000 C 
BRANCH   7   8
ATOM      8  N   UNL     1       9.070   9.761  18.663  0.00  0.00    +0.000 N 
ATOM      9  C   UNL     1       9.483  10.824  19.438  0.00  0.00    +0.000 C 
ATOM     10  O   UNL     1       9.550  10.783  20.657  0.00  0.00    +0.000 OA
ATOM     11  H   UNL     1       9.188   9.798  17.661  0.00  0.00    +0.000 HD
BRANCH   9  12
ATOM     12  C   UNL     1       9.890  12.054  18.698  0.00  0.00    +0.000 A 
ATOM     13  C   UNL     1      10.983  12.048  17.817  0.00  0.00    +0.000 A 
ATOM     14  C   UNL     1      11.337  13.213  17.130  0.00  0.00    +0.000 A 
ATOM     15  C   UNL     1      10.599  14.382  17.312  0.00  0.00    +0.000 A 
ATOM     16 CL   UNL     1      11.038  15.810  16.462  0.00  0.00    +0.000 Cl
ATOM     17  C   UNL     1       9.501  14.393  18.177  0.00  0.00    +0.000 A 
ATOM     18  C   UNL     1       9.141  13.228  18.866  0.00  0.00    +0.000 A 
ENDBRANCH   9  12
ENDBRANCH   7   8
ENDBRANCH   3   7
BRANCH   6  19
ATOM     19  S   UNL     1       6.444   4.369  16.830  0.00  0.00    +0.000 S 
BRANCH  19  20
ATOM     20  C   UNL     1       4.692   4.808  16.635  0.00  0.00    +0.000 C 
BRANCH  20  21
ATOM     21  C   UNL     1       4.019   5.207  17.947  0.00  0.00    +0.000 C 
ATOM     22  O   UNL     1       4.009   6.372  18.358  0.00  0.00    +0.000 OA
ATOM     23  N   UNL     1       3.374   4.197  18.656  0.00  0.00    +0.000 N 
ATOM     24  C   UNL     1       3.364   2.763  18.340  0.00  0.00    +0.000 C 
ATOM     25  C   UNL     1       1.933   2.206  18.407  0.00  0.00    +0.000 C 
ATOM     26  O   UNL     1       1.305   2.511  19.662  0.00  0.00    +0.000 OA
ATOM     27  C   UNL     1       1.262   3.930  19.882  0.00  0.00    +0.000 C 
ATOM     28  C   UNL     1       2.674   4.521  19.904  0.00  0.00    +0.000 C 
ENDBRANCH  20  21
ENDBRANCH  19  20
ENDBRANCH   6  19
TORSDOF 6
ENDMDL
MODEL 4
REMARK VINA RESULT:      -7.4      0.889      1.285
REMARK  Name = 
REMARK  7 active torsions:
REMARK  status: ('A' for Active; 'I' for Inactive)
REMARK    1  A    between atoms: C_1  and  N_2
REMARK    2  A    between atoms: C_3  and  C_4
REMARK    3  A    between atoms: C_4  and  N_5
REMARK    4  A    between atoms: C_6  and  C_8
REMARK    5  A    between atoms: C_17  and  S_18
REMARK    6  A    between atoms: S_18  and  C_19
REMARK    7  A    between atoms: C_19  and  C_20
REMARK                            x       y       z     vdW  Elec       q    Type
REMARK                         _______ _______ _______ _____ _____    ______ ____
ROOT
ATOM      1  C   UNL     1       1.020   8.830  20.812  0.00  0.00    +0.000 C 
ATOM      2  N   UNL     1       1.605   8.679  19.505  0.00  0.00    +0.000 N 
ATOM      3  C   UNL     1       1.690   9.621  18.502  0.00  0.00    +0.000 A 
ATOM      4  N   UNL     1       2.343   9.085  17.483  0.00  0.00    +0.000 NA
ATOM      5  N   UNL     1       2.680   7.789  17.810  0.00  0.00    +0.000 NA
ATOM      6  C   UNL     1       2.218   7.555  19.016  0.00  0.00    +0.000 A 
ENDROOT
BRANCH   3   7
ATOM      7  C   UNL     1       1.193  11.025  18.574  0.00  0.00    +0.000 C 
BRANCH   7   8
ATOM      8  N   UNL     1      -0.249  11.069  18.437  0.00  0.00    +0.000 N 
ATOM      9  C   UNL     1      -1.036  12.005  19.075  0.00  0.00    +0.000 C 
ATOM     10  O   UNL     1      -0.589  12.884  19.795  0.00  0.00    +0.000 OA
ATOM     11  H   UNL     1      -0.657  10.472  17.733  0.00  0.00    +0.000 HD
BRANCH   9  12
ATOM     12  C   UNL     1      -2.503  11.914  18.814  0.00  0.00    +0.000 A 
ATOM     13  C   UNL     1      -3.441  12.387  19.745  0.00  0.00    +0.000 A 
ATOM     14  C   UNL     1      -4.809  12.297  19.471  0.00  0.00    +0.000 A 
ATOM     15  C   UNL     1      -5.244  11.745  18.267  0.00  0.00    +0.000 A 
ATOM     16 CL   UNL     1      -6.927  11.640  17.934  0.00  0.00    +0.000 Cl
ATOM     17  C   UNL     1      -4.317  11.285  17.327  0.00  0.00    +0.000 A 
ATOM     18  C   UNL     1      -2.945  11.375  17.597  0.00  0.00    +0.000 A 
ENDBRANCH   9  12
ENDBRANCH   7   8
ENDBRANCH   3   7
BRANCH   6  19
ATOM     19  S   UNL     1       2.243   6.040  19.851  0.00  0.00    +0.000 S 
BRANCH  19  20
ATOM     20  C   UNL     1       3.938   5.457  19.550  0.00  0.00    +0.000 C 
BRANCH  20  21
ATOM     21  C   UNL     1       4.103   4.746  18.207  0.00  0.00    +0.000 C 
ATOM     22  O   UNL     1       3.177   4.134  17.666  0.00  0.00    +0.000 OA
ATOM     23  N   UNL     1       5.346   4.847  17.590  0.00  0.00    +0.000 N 
ATOM     24  C   UNL     1       6.559   5.469  18.140  0.00  0.00    +0.000 C 
ATOM     25  C   UNL     1       7.201   6.406  17.105  0.00  0.00    +0.000 C 
ATOM     26  O   UNL     1       7.428   5.737  15.854  0.00  0.00    +0.000 OA
ATOM     27  C   UNL     1       6.198   5.224  15.316  0.00  0.00    +0.000 C 
ATOM     28  C   UNL     1       5.558   4.222  16.280  0.00  0.00    +0.000 C 
ENDBRANCH  20  21
ENDBRANCH  19  20
ENDBRANCH   6  19
TORSDOF 6
ENDMDL
MODEL 5
REMARK VINA RESULT:      -7.3      2.784      3.633
REMARK  Name = 
REMARK  7 active torsions:
REMARK  status: ('A' for Active; 'I' for Inactive)
REMARK    1  A    between atoms: C_1  and  N_2
REMARK    2  A    between atoms: C_3  and  C_4
REMARK    3  A    between atoms: C_4  and  N_5
REMARK    4  A    between atoms: C_6  and  C_8
REMARK    5  A    between atoms: C_17  and  S_18
REMARK    6  A    between atoms: S_18  and  C_19
REMARK    7  A    between atoms: C_19  and  C_20
REMARK                            x       y       z     vdW  Elec       q    Type
REMARK                         _______ _______ _______ _____ _____    ______ ____
ROOT
ATOM      1  C   UNL     1       1.671   4.928  17.645  0.00  0.00    +0.000 C 
ATOM      2  N   UNL     1       1.961   4.910  19.055  0.00  0.00    +0.000 N 
ATOM      3  C   UNL     1       2.238   5.981  19.877  0.00  0.00    +0.000 A 
ATOM      4  N   UNL     1       2.400   5.528  21.110  0.00  0.00    +0.000 NA
ATOM      5  N   UNL     1       2.240   4.159  21.100  0.00  0.00    +0.000 NA
ATOM      6  C   UNL     1       1.993   3.801  19.861  0.00  0.00    +0.000 A 
ENDROOT
BRANCH   3   7
ATOM      7  C   UNL     1       2.281   7.413  19.464  0.00  0.00    +0.000 C 
BRANCH   7   8
ATOM      8  N   UNL     1       1.434   8.223  20.318  0.00  0.00    +0.000 N 
ATOM      9  C   UNL     1       0.816   9.377  19.886  0.00  0.00    +0.000 C 
ATOM     10  O   UNL     1       0.914   9.809  18.747  0.00  0.00    +0.000 OA
ATOM     11  H   UNL     1       1.189   7.831  21.216  0.00  0.00    +0.000 HD
BRANCH   9  12
ATOM     12  C   UNL     1      -0.031  10.082  20.892  0.00  0.00    +0.000 A 
ATOM     13  C   UNL     1      -0.133   9.618  22.214  0.00  0.00    +0.000 A 
ATOM     14  C   UNL     1      -0.927  10.302  23.138  0.00  0.00    +0.000 A 
ATOM     15  C   UNL     1      -1.613  11.453  22.752  0.00  0.00    +0.000 A 
ATOM     16 CL   UNL     1      -2.586  12.292  23.895  0.00  0.00    +0.000 Cl
ATOM     17  C   UNL     1      -1.506  11.930  21.443  0.00  0.00    +0.000 A 
ATOM     18  C   UNL     1      -0.709  11.249  20.513  0.00  0.00    +0.000 A 
ENDBRANCH   9  12
ENDBRANCH   7   8
ENDBRANCH   3   7
BRANCH   6  19
ATOM     19  S   UNL     1       1.850   2.183  19.267  0.00  0.00    +0.000 S 
BRANCH  19  20
ATOM     20  C   UNL     1       3.405   1.963  18.353  0.00  0.00    +0.000 C 
BRANCH  20  21
ATOM     21  C   UNL     1       4.542   2.841  18.875  0.00  0.00    +0.000 C 
ATOM     22  O   UNL     1       4.972   2.749  20.029  0.00  0.00    +0.000 OA
ATOM     23  N   UNL     1       5.108   3.738  17.974  0.00  0.00    +0.000 N 
ATOM     24  C   UNL     1       4.660   4.017  16.603  0.00  0.00    +0.000 C 
ATOM     25  C   UNL     1       5.850   3.997  15.631  0.00  0.00    +0.000 C 
ATOM     26  O   UNL     1       6.904   4.870  16.068  0.00  0.00    +0.000 OA
ATOM     27  C   UNL     1       7.367   4.500  17.377  0.00  0.00    +0.000 C 
ATOM     28  C   UNL     1       6.230   4.582  18.399  0.00  0.00    +0.000 C 
ENDBRANCH  20  21
ENDBRANCH  19  20
ENDBRANCH   6  19
TORSDOF 6
ENDMDL
MODEL 6
REMARK VINA RESULT:      -7.2      6.453      8.999
REMARK  Name = 
REMARK  7 active torsions:
REMARK  status: ('A' for Active; 'I' for Inactive)
REMARK    1  A    between atoms: C_1  and  N_2
REMARK    2  A    between atoms: C_3  and  C_4
REMARK    3  A    between atoms: C_4  and  N_5
REMARK    4  A    between atoms: C_6  and  C_8
REMARK    5  A    between atoms: C_17  and  S_18
REMARK    6  A    between atoms: S_18  and  C_19
REMARK    7  A    between atoms: C_19  and  C_20
REMARK                            x       y       z     vdW  Elec       q    Type
REMARK                         _______ _______ _______ _____ _____    ______ ____
ROOT
ATOM      1  C   UNL     1       6.246   5.402  19.431  0.00  0.00    +0.000 C 
ATOM      2  N   UNL     1       6.661   5.943  18.163  0.00  0.00    +0.000 N 
ATOM      3  C   UNL     1       7.577   6.946  17.929  0.00  0.00    +0.000 A 
ATOM      4  N   UNL     1       7.697   7.104  16.620  0.00  0.00    +0.000 NA
ATOM      5  N   UNL     1       6.854   6.212  15.992  0.00  0.00    +0.000 NA
ATOM      6  C   UNL     1       6.230   5.535  16.928  0.00  0.00    +0.000 A 
ENDROOT
BRANCH   3   7
ATOM      7  C   UNL     1       8.351   7.685  18.968  0.00  0.00    +0.000 C 
BRANCH   7   8
ATOM      8  N   UNL     1       8.854   8.939  18.443  0.00  0.00    +0.000 N 
ATOM      9  C   UNL     1       9.165  10.018  19.243  0.00  0.00    +0.000 C 
ATOM     10  O   UNL     1       9.060  10.007  20.460  0.00  0.00    +0.000 OA
ATOM     11  H   UNL     1       9.112   8.951  17.467  0.00  0.00    +0.000 HD
BRANCH   9  12
ATOM     12  C   UNL     1       9.683  11.227  18.539  0.00  0.00    +0.000 A 
ATOM     13  C   UNL     1       8.816  12.226  18.069  0.00  0.00    +0.000 A 
ATOM     14  C   UNL     1       9.329  13.353  17.420  0.00  0.00    +0.000 A 
ATOM     15  C   UNL     1      10.705  13.491  17.245  0.00  0.00    +0.000 A 
ATOM     16 CL   UNL     1      11.330  14.880  16.449  0.00  0.00    +0.000 Cl
ATOM     17  C   UNL     1      11.578  12.509  17.723  0.00  0.00    +0.000 A 
ATOM     18  C   UNL     1      11.068  11.379  18.376  0.00  0.00    +0.000 A 
ENDBRANCH   9  12
ENDBRANCH   7   8
ENDBRANCH   3   7
BRANCH   6  19
ATOM     19  S   UNL     1       4.960   4.385  16.690  0.00  0.00    +0.000 S 
BRANCH  19  20
ATOM     20  C   UNL     1       3.540   5.204  17.475  0.00  0.00    +0.000 C 
BRANCH  20  21
ATOM     21  C   UNL     1       2.406   4.242  17.827  0.00  0.00    +0.000 C 
ATOM     22  O   UNL     1       1.880   3.505  16.988  0.00  0.00    +0.000 OA
ATOM     23  N   UNL     1       2.007   4.201  19.160  0.00  0.00    +0.000 N 
ATOM     24  C   UNL     1       2.479   5.064  20.252  0.00  0.00    +0.000 C 
ATOM     25  C   UNL     1       2.845   4.223  21.484  0.00  0.00    +0.000 C 
ATOM     26  O   UNL     1       1.766   3.360  21.875  0.00  0.00    +0.000 OA
ATOM     27  C   UNL     1       1.402   2.476  20.802  0.00  0.00    +0.000 C 
ATOM     28  C   UNL     1       0.952   3.270  19.572  0.00  0.00    +0.000 C 
ENDBRANCH  20  21
ENDBRANCH  19  20
ENDBRANCH   6  19
TORSDOF 6
ENDMDL
MODEL 7
REMARK VINA RESULT:      -7.2      6.469      9.111
REMARK  Name = 
REMARK  7 active torsions:
REMARK  status: ('A' for Active; 'I' for Inactive)
REMARK    1  A    between atoms: C_1  and  N_2
REMARK    2  A    between atoms: C_3  and  C_4
REMARK    3  A    between atoms: C_4  and  N_5
REMARK    4  A    between atoms: C_6  and  C_8
REMARK    5  A    between atoms: C_17  and  S_18
REMARK    6  A    between atoms: S_18  and  C_19
REMARK    7  A    between atoms: C_19  and  C_20
REMARK                            x       y       z     vdW  Elec       q    Type
REMARK                         _______ _______ _______ _____ _____    ______ ____
ROOT
ATOM      1  C   UNL     1       8.050   5.666  19.508  0.00  0.00    +0.000 C 
ATOM      2  N   UNL     1       7.755   6.528  18.392  0.00  0.00    +0.000 N 
ATOM      3  C   UNL     1       8.051   7.867  18.255  0.00  0.00    +0.000 A 
ATOM      4  N   UNL     1       7.645   8.263  17.059  0.00  0.00    +0.000 NA
ATOM      5  N   UNL     1       7.073   7.188  16.412  0.00  0.00    +0.000 NA
ATOM      6  C   UNL     1       7.131   6.161  17.228  0.00  0.00    +0.000 A 
ENDROOT
BRANCH   3   7
ATOM      7  C   UNL     1       8.767   8.712  19.254  0.00  0.00    +0.000 C 
BRANCH   7   8
ATOM      8  N   UNL     1       9.105  10.004  18.689  0.00  0.00    +0.000 N 
ATOM      9  C   UNL     1       9.613  11.043  19.441  0.00  0.00    +0.000 C 
ATOM     10  O   UNL     1       9.837  10.961  20.639  0.00  0.00    +0.000 OA
ATOM     11  H   UNL     1       9.092  10.076  17.683  0.00  0.00    +0.000 HD
BRANCH   9  12
ATOM     12  C   UNL     1       9.917  12.300  18.697  0.00  0.00    +0.000 A 
ATOM     13  C   UNL     1       9.106  13.439  18.827  0.00  0.00    +0.000 A 
ATOM     14  C   UNL     1       9.418  14.607  18.125  0.00  0.00    +0.000 A 
ATOM     15  C   UNL     1      10.543  14.646  17.302  0.00  0.00    +0.000 A 
ATOM     16 CL   UNL     1      10.924  16.086  16.444  0.00  0.00    +0.000 Cl
ATOM     17  C   UNL     1      11.365  13.522  17.178  0.00  0.00    +0.000 A 
ATOM     18  C   UNL     1      11.056  12.350  17.881  0.00  0.00    +0.000 A 
ENDBRANCH   9  12
ENDBRANCH   7   8
ENDBRANCH   3   7
BRANCH   6  19
ATOM     19  S   UNL     1       6.432   4.601  16.968  0.00  0.00    +0.000 S 
BRANCH  19  20
ATOM     20  C   UNL     1       5.240   4.475  18.334  0.00  0.00    +0.000 C 
BRANCH  20  21
ATOM     21  C   UNL     1       3.834   4.090  17.876  0.00  0.00    +0.000 C 
ATOM     22  O   UNL     1       3.608   3.632  16.752  0.00  0.00    +0.000 OA
ATOM     23  N   UNL     1       2.806   4.242  18.802  0.00  0.00    +0.000 N 
ATOM     24  C   UNL     1       2.903   4.840  20.141  0.00  0.00    +0.000 C 
ATOM     25  C   UNL     1       2.220   3.942  21.184  0.00  0.00    +0.000 C 
ATOM     26  O   UNL     1       0.871   3.623  20.805  0.00  0.00    +0.000 OA
ATOM     27  C   UNL     1       0.840   2.961  19.530  0.00  0.00    +0.000 C 
ATOM     28  C   UNL     1       1.440   3.852  18.439  0.00  0.00    +0.000 C 
ENDBRANCH  20  21
ENDBRANCH  19  20
ENDBRANCH   6  19
TORSDOF 6
ENDMDL
MODEL 8
REMARK VINA RESULT:      -7.1      6.156      8.917
REMARK  Name = 
REMARK  7 active torsions:
REMARK  status: ('A' for Active; 'I' for Inactive)
REMARK    1  A    between atoms: C_1  and  N_2
REMARK    2  A    between atoms: C_3  and  C_4
REMARK    3  A    between atoms: C_4  and  N_5
REMARK    4  A    between atoms: C_6  and  C_8
REMARK    5  A    between atoms: C_17  and  S_18
REMARK    6  A    between atoms: S_18  and  C_19
REMARK    7  A    between atoms: C_19  and  C_20
REMARK                            x       y       z     vdW  Elec       q    Type
REMARK                         _______ _______ _______ _____ _____    ______ ____
ROOT
ATOM      1  C   UNL     1       7.794   4.786  18.140  0.00  0.00    +0.000 C 
ATOM      2  N   UNL     1       7.161   5.902  17.485  0.00  0.00    +0.000 N 
ATOM      3  C   UNL     1       7.376   7.245  17.705  0.00  0.00    +0.000 A 
ATOM      4  N   UNL     1       6.623   7.931  16.860  0.00  0.00    +0.000 NA
ATOM      5  N   UNL     1       5.906   7.041  16.090  0.00  0.00    +0.000 NA
ATOM      6  C   UNL     1       6.226   5.831  16.486  0.00  0.00    +0.000 A 
ENDROOT
BRANCH   3   7
ATOM      7  C   UNL     1       8.340   7.830  18.682  0.00  0.00    +0.000 C 
BRANCH   7   8
ATOM      8  N   UNL     1       8.797   9.132  18.239  0.00  0.00    +0.000 N 
ATOM      9  C   UNL     1       9.210  10.119  19.109  0.00  0.00    +0.000 C 
ATOM     10  O   UNL     1       9.242   9.979  20.321  0.00  0.00    +0.000 OA
ATOM     11  H   UNL     1       8.944   9.248  17.247  0.00  0.00    +0.000 HD
BRANCH   9  12
ATOM     12  C   UNL     1       9.662  11.396  18.482  0.00  0.00    +0.000 A 
ATOM     13  C   UNL     1      10.933  11.513  17.898  0.00  0.00    +0.000 A 
ATOM     14  C   UNL     1      11.328  12.719  17.310  0.00  0.00    +0.000 A 
ATOM     15  C   UNL     1      10.454  13.806  17.295  0.00  0.00    +0.000 A 
ATOM     16 CL   UNL     1      10.944  15.285  16.568  0.00  0.00    +0.000 Cl
ATOM     17  C   UNL     1       9.181  13.694  17.861  0.00  0.00    +0.000 A 
ATOM     18  C   UNL     1       8.781  12.487  18.449  0.00  0.00    +0.000 A 
ENDBRANCH   9  12
ENDBRANCH   7   8
ENDBRANCH   3   7
BRANCH   6  19
ATOM     19  S   UNL     1       5.513   4.350  15.947  0.00  0.00    +0.000 S 
BRANCH  19  20
ATOM     20  C   UNL     1       4.734   3.718  17.462  0.00  0.00    +0.000 C 
BRANCH  20  21
ATOM     21  C   UNL     1       3.709   4.681  18.061  0.00  0.00    +0.000 C 
ATOM     22  O   UNL     1       3.296   5.670  17.449  0.00  0.00    +0.000 OA
ATOM     23  N   UNL     1       3.224   4.374  19.329  0.00  0.00    +0.000 N 
ATOM     24  C   UNL     1       3.672   3.285  20.208  0.00  0.00    +0.000 C 
ATOM     25  C   UNL     1       2.466   2.514  20.769  0.00  0.00    +0.000 C 
ATOM     26  O   UNL     1       1.522   3.395  21.399  0.00  0.00    +0.000 OA
ATOM     27  C   UNL     1       1.049   4.386  20.472  0.00  0.00    +0.000 C 
ATOM     28  C   UNL     1       2.209   5.235  19.945  0.00  0.00    +0.000 C 
ENDBRANCH  20  21
ENDBRANCH  19  20
ENDBRANCH   6  19
TORSDOF 6
ENDMDL
MODEL 9
REMARK VINA RESULT:      -7.0      3.999      9.934
REMARK  Name = 
REMARK  7 active torsions:
REMARK  status: ('A' for Active; 'I' for Inactive)
REMARK    1  A    between atoms: C_1  and  N_2
REMARK    2  A    between atoms: C_3  and  C_4
REMARK    3  A    between atoms: C_4  and  N_5
REMARK    4  A    between atoms: C_6  and  C_8
REMARK    5  A    between atoms: C_17  and  S_18
REMARK    6  A    between atoms: S_18  and  C_19
REMARK    7  A    between atoms: C_19  and  C_20
REMARK                            x       y       z     vdW  Elec       q    Type
REMARK                         _______ _______ _______ _____ _____    ______ ____
ROOT
ATOM      1  C   UNL     1      -0.538   8.871  21.903  0.00  0.00    +0.000 C 
ATOM      2  N   UNL     1       0.079   9.391  20.711  0.00  0.00    +0.000 N 
ATOM      3  C   UNL     1       1.150   8.872  20.016  0.00  0.00    +0.000 A 
ATOM      4  N   UNL     1       1.367   9.633  18.955  0.00  0.00    +0.000 NA
ATOM      5  N   UNL     1       0.446  10.659  18.956  0.00  0.00    +0.000 NA
ATOM      6  C   UNL     1      -0.308  10.510  20.021  0.00  0.00    +0.000 A 
ENDROOT
BRANCH   3   7
ATOM      7  C   UNL     1       1.897   7.628  20.359  0.00  0.00    +0.000 C 
BRANCH   7   8
ATOM      8  N   UNL     1       2.663   7.154  19.223  0.00  0.00    +0.000 N 
ATOM      9  C   UNL     1       3.272   5.918  19.191  0.00  0.00    +0.000 C 
ATOM     10  O   UNL     1       3.208   5.110  20.104  0.00  0.00    +0.000 OA
ATOM     11  H   UNL     1       2.616   7.710  18.382  0.00  0.00    +0.000 HD
BRANCH   9  12
ATOM     12  C   UNL     1       4.011   5.586  17.937  0.00  0.00    +0.000 A 
ATOM     13  C   UNL     1       4.495   6.592  17.086  0.00  0.00    +0.000 A 
ATOM     14  C   UNL     1       5.191   6.253  15.922  0.00  0.00    +0.000 A 
ATOM     15  C   UNL     1       5.414   4.913  15.609  0.00  0.00    +0.000 A 
ATOM     16 CL   UNL     1       6.273   4.502  14.178  0.00  0.00    +0.000 Cl
ATOM     17  C   UNL     1       4.949   3.904  16.457  0.00  0.00    +0.000 A 
ATOM     18  C   UNL     1       4.252   4.239  17.626  0.00  0.00    +0.000 A 
ENDBRANCH   9  12
ENDBRANCH   7   8
ENDBRANCH   3   7
BRANCH   6  19
ATOM     19  S   UNL     1      -1.530  11.601  20.576  0.00  0.00    +0.000 S 
BRANCH  19  20
ATOM     20  C   UNL     1      -2.121  12.347  19.027  0.00  0.00    +0.000 C 
BRANCH  20  21
ATOM     21  C   UNL     1      -3.180  11.505  18.317  0.00  0.00    +0.000 C 
ATOM     22  O   UNL     1      -2.888  10.635  17.490  0.00  0.00    +0.000 OA
ATOM     23  N   UNL     1      -4.507  11.734  18.671  0.00  0.00    +0.000 N 
ATOM     24  C   UNL     1      -5.014  12.777  19.573  0.00  0.00    +0.000 C 
ATOM     25  C   UNL     1      -6.002  12.179  20.587  0.00  0.00    +0.000 C 
ATOM     26  O   UNL     1      -7.047  11.440  19.935  0.00  0.00    +0.000 OA
ATOM     27  C   UNL     1      -6.502  10.377  19.137  0.00  0.00    +0.000 C 
ATOM     28  C   UNL     1      -5.570  10.932  18.056  0.00  0.00    +0.000 C 
ENDBRANCH  20  21
ENDBRANCH  19  20
ENDBRANCH   6  19
TORSDOF 6
ENDMDL
