MODEL 1
REMARK VINA RESULT:      -6.9      0.000      0.000
REMARK  Name = 
REMARK  18 active torsions:
REMARK  status: ('A' for Active; 'I' for Inactive)
REMARK    1  A    between atoms: C_1  and  C_2
REMARK    2  A    between atoms: C_2  and  C_3
REMARK    3  A    between atoms: C_3  and  C_4
REMARK    4  A    between atoms: C_4  and  N_5
REMARK    5  A    between atoms: N_5  and  C_6
REMARK    6  A    between atoms: N_5  and  C_10
REMARK    7  A    between atoms: C_6  and  C_7
REMARK    8  A    between atoms: C_7  and  C_8
REMARK    9  A    between atoms: C_8  and  C_9
REMARK   10  A    between atoms: C_10  and  C_11
REMARK   11  A    between atoms: C_11  and  C_12
REMARK   12  A    between atoms: C_12  and  O_13
REMARK   13  A    between atoms: O_13  and  C_14
REMARK   14  A    between atoms: C_17  and  S_18
REMARK   15  A    between atoms: S_18  and  C_21
REMARK   16  A    between atoms: C_25  and  C_26
REMARK   17  A    between atoms: C_26  and  C_27
REMARK   18  A    between atoms: C_26  and  C_28
REMARK                            x       y       z     vdW  Elec       q    Type
REMARK                         _______ _______ _______ _____ _____    ______ ____
ROOT
ATOM      1  C   UNL     1       2.216   7.692  19.242  0.00  0.00    +0.000 A 
ATOM      2  C   UNL     1       2.857   7.639  17.999  0.00  0.00    +0.000 A 
ATOM      3  C   UNL     1       3.595   6.519  17.628  0.00  0.00    +0.000 A 
ATOM      4  C   UNL     1       3.692   5.442  18.507  0.00  0.00    +0.000 A 
ATOM      5  C   UNL     1       3.098   5.498  19.772  0.00  0.00    +0.000 A 
ATOM      6  C   UNL     1       2.353   6.624  20.132  0.00  0.00    +0.000 A 
ENDROOT
BRANCH   4   7
ATOM      7  S   UNL     1       4.643   4.036  18.022  0.00  0.00    +0.000 S 
ATOM      8  O   UNL     1       5.407   3.590  19.173  0.00  0.00    +0.000 OA
ATOM      9  O   UNL     1       3.813   3.134  17.256  0.00  0.00    +0.000 OA
BRANCH   7  10
ATOM     10  C   UNL     1       5.813   4.606  16.900  0.00  0.00    +0.000 A 
ATOM     11  C   UNL     1       5.975   4.107  15.579  0.00  0.00    +0.000 A 
ATOM     12  C   UNL     1       6.985   4.844  15.013  0.00  0.00    +0.000 A 
ATOM     13  O   UNL     1       7.458   5.753  15.898  0.00  0.00    +0.000 OA
ATOM     14  C   UNL     1       6.742   5.618  17.059  0.00  0.00    +0.000 A 
BRANCH  14  15
ATOM     15  C   UNL     1       7.131   6.569  18.150  0.00  0.00    +0.000 C 
ATOM     16  C   UNL     1       8.047   5.877  19.166  0.00  0.00    +0.000 C 
ATOM     17  C   UNL     1       7.834   7.802  17.578  0.00  0.00    +0.000 C 
ENDBRANCH  14  15
ENDBRANCH   7  10
ENDBRANCH   4   7
BRANCH   1  18
ATOM     18  O   UNL     1       1.443   8.739  19.685  0.00  0.00    +0.000 OA
BRANCH  18  19
ATOM     19  C   UNL     1       0.909   9.555  18.640  0.00  0.00    +0.000 C 
BRANCH  19  20
ATOM     20  C   UNL     1      -0.544   9.901  18.925  0.00  0.00    +0.000 C 
BRANCH  20  21
ATOM     21  C   UNL     1      -1.310  10.116  17.609  0.00  0.00    +0.000 C 
BRANCH  21  22
ATOM     22  N   UNL     1      -1.832  11.492  17.396  0.00  0.00    +0.000 NA
BRANCH  22  23
ATOM     23  C   UNL     1      -3.281  11.422  17.084  0.00  0.00    +0.000 C 
BRANCH  23  24
ATOM     24  C   UNL     1      -4.220  10.734  18.087  0.00  0.00    +0.000 C 
BRANCH  24  26
ATOM     25  C   UNL     1      -5.795  12.454  17.178  0.00  0.00    +0.000 C 
ATOM     26  C   UNL     1      -5.681  11.177  18.002  0.00  0.00    +0.000 C 
ENDBRANCH  24  26
ENDBRANCH  23  24
ENDBRANCH  22  23
BRANCH  22  27
ATOM     27  C   UNL     1      -1.579  12.336  18.586  0.00  0.00    +0.000 C 
BRANCH  27  28
ATOM     28  C   UNL     1      -0.650  13.552  18.389  0.00  0.00    +0.000 C 
BRANCH  28  29
ATOM     29  C   UNL     1       0.843  13.241  18.524  0.00  0.00    +0.000 C 
ATOM     30  C   UNL     1       1.238  13.135  19.992  0.00  0.00    +0.000 C 
ENDBRANCH  28  29
ENDBRANCH  27  28
ENDBRANCH  22  27
ENDBRANCH  21  22
ENDBRANCH  20  21
ENDBRANCH  19  20
ENDBRANCH  18  19
ENDBRANCH   1  18
TORSDOF 14
ENDMDL
MODEL 2
REMARK VINA RESULT:      -6.9      1.802      2.569
REMARK  Name = 
REMARK  18 active torsions:
REMARK  status: ('A' for Active; 'I' for Inactive)
REMARK    1  A    between atoms: C_1  and  C_2
REMARK    2  A    between atoms: C_2  and  C_3
REMARK    3  A    between atoms: C_3  and  C_4
REMARK    4  A    between atoms: C_4  and  N_5
REMARK    5  A    between atoms: N_5  and  C_6
REMARK    6  A    between atoms: N_5  and  C_10
REMARK    7  A    between atoms: C_6  and  C_7
REMARK    8  A    between atoms: C_7  and  C_8
REMARK    9  A    between atoms: C_8  and  C_9
REMARK   10  A    between atoms: C_10  and  C_11
REMARK   11  A    between atoms: C_11  and  C_12
REMARK   12  A    between atoms: C_12  and  O_13
REMARK   13  A    between atoms: O_13  and  C_14
REMARK   14  A    between atoms: C_17  and  S_18
REMARK   15  A    between atoms: S_18  and  C_21
REMARK   16  A    between atoms: C_25  and  C_26
REMARK   17  A    between atoms: C_26  and  C_27
REMARK   18  A    between atoms: C_26  and  C_28
REMARK                            x       y       z     vdW  Elec       q    Type
REMARK                         _______ _______ _______ _____ _____    ______ ____
ROOT
ATOM      1  C   UNL     1       2.144   7.721  19.188  0.00  0.00    +0.000 A 
ATOM      2  C   UNL     1       2.263   6.636  20.065  0.00  0.00    +0.000 A 
ATOM      3  C   UNL     1       3.024   5.524  19.718  0.00  0.00    +0.000 A 
ATOM      4  C   UNL     1       3.672   5.495  18.484  0.00  0.00    +0.000 A 
ATOM      5  C   UNL     1       3.524   6.549  17.576  0.00  0.00    +0.000 A 
ATOM      6  C   UNL     1       2.764   7.665  17.937  0.00  0.00    +0.000 A 
ENDROOT
BRANCH   4   7
ATOM      7  S   UNL     1       4.622   4.070  18.059  0.00  0.00    +0.000 S 
ATOM      8  O   UNL     1       5.375   3.664  19.232  0.00  0.00    +0.000 OA
ATOM      9  O   UNL     1       3.796   3.143  17.319  0.00  0.00    +0.000 OA
BRANCH   7  10
ATOM     10  C   UNL     1       5.804   4.594  16.927  0.00  0.00    +0.000 A 
ATOM     11  C   UNL     1       5.974   4.048  15.626  0.00  0.00    +0.000 A 
ATOM     12  C   UNL     1       6.993   4.760  15.043  0.00  0.00    +0.000 A 
ATOM     13  O   UNL     1       7.463   5.699  15.899  0.00  0.00    +0.000 OA
ATOM     14  C   UNL     1       6.737   5.608  17.058  0.00  0.00    +0.000 A 
BRANCH  14  15
ATOM     15  C   UNL     1       7.120   6.595  18.118  0.00  0.00    +0.000 C 
ATOM     16  C   UNL     1       8.043   5.942  19.153  0.00  0.00    +0.000 C 
ATOM     17  C   UNL     1       7.813   7.815  17.505  0.00  0.00    +0.000 C 
ENDBRANCH  14  15
ENDBRANCH   7  10
ENDBRANCH   4   7
BRANCH   1  18
ATOM     18  O   UNL     1       1.442   8.872  19.452  0.00  0.00    +0.000 OA
BRANCH  18  19
ATOM     19  C   UNL     1       1.254   9.717  18.315  0.00  0.00    +0.000 C 
BRANCH  19  20
ATOM     20  C   UNL     1       0.978  11.147  18.755  0.00  0.00    +0.000 C 
BRANCH  20  21
ATOM     21  C   UNL     1      -0.528  11.449  18.674  0.00  0.00    +0.000 C 
BRANCH  21  22
ATOM     22  N   UNL     1      -0.899  12.878  18.853  0.00  0.00    +0.000 NA
BRANCH  22  23
ATOM     23  C   UNL     1      -1.450  13.073  20.217  0.00  0.00    +0.000 C 
BRANCH  23  24
ATOM     24  C   UNL     1      -1.649  11.843  21.115  0.00  0.00    +0.000 C 
BRANCH  24  26
ATOM     25  C   UNL     1      -0.894  10.540  23.114  0.00  0.00    +0.000 C 
ATOM     26  C   UNL     1      -0.940  11.919  22.468  0.00  0.00    +0.000 C 
ENDBRANCH  24  26
ENDBRANCH  23  24
ENDBRANCH  22  23
BRANCH  22  27
ATOM     27  C   UNL     1       0.271  13.754  18.615  0.00  0.00    +0.000 C 
BRANCH  27  28
ATOM     28  C   UNL     1       0.372  15.026  19.482  0.00  0.00    +0.000 C 
BRANCH  28  29
ATOM     29  C   UNL     1       1.671  15.149  20.283  0.00  0.00    +0.000 C 
ATOM     30  C   UNL     1       1.446  14.743  21.735  0.00  0.00    +0.000 C 
ENDBRANCH  28  29
ENDBRANCH  27  28
ENDBRANCH  22  27
ENDBRANCH  21  22
ENDBRANCH  20  21
ENDBRANCH  19  20
ENDBRANCH  18  19
ENDBRANCH   1  18
TORSDOF 14
ENDMDL
MODEL 3
REMARK VINA RESULT:      -6.8      3.630     10.010
REMARK  Name = 
REMARK  18 active torsions:
REMARK  status: ('A' for Active; 'I' for Inactive)
REMARK    1  A    between atoms: C_1  and  C_2
REMARK    2  A    between atoms: C_2  and  C_3
REMARK    3  A    between atoms: C_3  and  C_4
REMARK    4  A    between atoms: C_4  and  N_5
REMARK    5  A    between atoms: N_5  and  C_6
REMARK    6  A    between atoms: N_5  and  C_10
REMARK    7  A    between atoms: C_6  and  C_7
REMARK    8  A    between atoms: C_7  and  C_8
REMARK    9  A    between atoms: C_8  and  C_9
REMARK   10  A    between atoms: C_10  and  C_11
REMARK   11  A    between atoms: C_11  and  C_12
REMARK   12  A    between atoms: C_12  and  O_13
REMARK   13  A    between atoms: O_13  and  C_14
REMARK   14  A    between atoms: C_17  and  S_18
REMARK   15  A    between atoms: S_18  and  C_21
REMARK   16  A    between atoms: C_25  and  C_26
REMARK   17  A    between atoms: C_26  and  C_27
REMARK   18  A    between atoms: C_26  and  C_28
REMARK                            x       y       z     vdW  Elec       q    Type
REMARK                         _______ _______ _______ _____ _____    ______ ____
ROOT
ATOM      1  C   UNL     1       1.402   8.866  19.525  0.00  0.00    +0.000 A 
ATOM      2  C   UNL     1       0.658   9.272  20.639  0.00  0.00    +0.000 A 
ATOM      3  C   UNL     1       0.022  10.511  20.654  0.00  0.00    +0.000 A 
ATOM      4  C   UNL     1       0.131  11.350  19.546  0.00  0.00    +0.000 A 
ATOM      5  C   UNL     1       0.910  10.980  18.446  0.00  0.00    +0.000 A 
ATOM      6  C   UNL     1       1.538   9.731  18.437  0.00  0.00    +0.000 A 
ENDROOT
BRANCH   4   7
ATOM      7  S   UNL     1      -0.672  12.920  19.592  0.00  0.00    +0.000 S 
ATOM      8  O   UNL     1      -0.326  13.568  20.844  0.00  0.00    +0.000 OA
ATOM      9  O   UNL     1      -0.512  13.581  18.316  0.00  0.00    +0.000 OA
BRANCH   7  10
ATOM     10  C   UNL     1      -2.358  12.600  19.704  0.00  0.00    +0.000 A 
ATOM     11  C   UNL     1      -3.190  13.023  20.776  0.00  0.00    +0.000 A 
ATOM     12  C   UNL     1      -4.456  12.593  20.468  0.00  0.00    +0.000 A 
ATOM     13  O   UNL     1      -4.456  11.931  19.286  0.00  0.00    +0.000 OA
ATOM     14  C   UNL     1      -3.172  11.933  18.807  0.00  0.00    +0.000 A 
BRANCH  14  15
ATOM     15  C   UNL     1      -2.994  11.248  17.486  0.00  0.00    +0.000 C 
ATOM     16  C   UNL     1      -2.633   9.772  17.689  0.00  0.00    +0.000 C 
ATOM     17  C   UNL     1      -4.264  11.356  16.637  0.00  0.00    +0.000 C 
ENDBRANCH  14  15
ENDBRANCH   7  10
ENDBRANCH   4   7
BRANCH   1  18
ATOM     18  O   UNL     1       2.038   7.654  19.405  0.00  0.00    +0.000 OA
BRANCH  18  19
ATOM     19  C   UNL     1       2.831   7.524  18.222  0.00  0.00    +0.000 C 
BRANCH  19  20
ATOM     20  C   UNL     1       3.240   6.074  18.013  0.00  0.00    +0.000 C 
BRANCH  20  21
ATOM     21  C   UNL     1       3.780   5.477  19.323  0.00  0.00    +0.000 C 
BRANCH  21  22
ATOM     22  N   UNL     1       4.848   4.456  19.162  0.00  0.00    +0.000 NA
BRANCH  22  23
ATOM     23  C   UNL     1       4.264   3.104  19.340  0.00  0.00    +0.000 C 
BRANCH  23  24
ATOM     24  C   UNL     1       3.766   2.346  18.100  0.00  0.00    +0.000 C 
BRANCH  24  26
ATOM     25  C   UNL     1       1.555   2.448  19.268  0.00  0.00    +0.000 C 
ATOM     26  C   UNL     1       2.249   2.351  17.914  0.00  0.00    +0.000 C 
ENDBRANCH  24  26
ENDBRANCH  23  24
ENDBRANCH  22  23
BRANCH  22  27
ATOM     27  C   UNL     1       5.502   4.590  17.841  0.00  0.00    +0.000 C 
BRANCH  27  28
ATOM     28  C   UNL     1       7.040   4.718  17.837  0.00  0.00    +0.000 C 
BRANCH  28  29
ATOM     29  C   UNL     1       7.582   5.890  18.659  0.00  0.00    +0.000 C 
ATOM     30  C   UNL     1       7.619   7.162  17.820  0.00  0.00    +0.000 C 
ENDBRANCH  28  29
ENDBRANCH  27  28
ENDBRANCH  22  27
ENDBRANCH  21  22
ENDBRANCH  20  21
ENDBRANCH  19  20
ENDBRANCH  18  19
ENDBRANCH   1  18
TORSDOF 14
ENDMDL
MODEL 4
REMARK VINA RESULT:      -6.8      2.181      2.834
REMARK  Name = 
REMARK  18 active torsions:
REMARK  status: ('A' for Active; 'I' for Inactive)
REMARK    1  A    between atoms: C_1  and  C_2
REMARK    2  A    between atoms: C_2  and  C_3
REMARK    3  A    between atoms: C_3  and  C_4
REMARK    4  A    between atoms: C_4  and  N_5
REMARK    5  A    between atoms: N_5  and  C_6
REMARK    6  A    between atoms: N_5  and  C_10
REMARK    7  A    between atoms: C_6  and  C_7
REMARK    8  A    between atoms: C_7  and  C_8
REMARK    9  A    between atoms: C_8  and  C_9
REMARK   10  A    between atoms: C_10  and  C_11
REMARK   11  A    between atoms: C_11  and  C_12
REMARK   12  A    between atoms: C_12  and  O_13
REMARK   13  A    between atoms: O_13  and  C_14
REMARK   14  A    between atoms: C_17  and  S_18
REMARK   15  A    between atoms: S_18  and  C_21
REMARK   16  A    between atoms: C_25  and  C_26
REMARK   17  A    between atoms: C_26  and  C_27
REMARK   18  A    between atoms: C_26  and  C_28
REMARK                            x       y       z     vdW  Elec       q    Type
REMARK                         _______ _______ _______ _____ _____    ______ ____
ROOT
ATOM      1  C   UNL     1       2.142   7.745  19.204  0.00  0.00    +0.000 A 
ATOM      2  C   UNL     1       2.282   6.660  20.078  0.00  0.00    +0.000 A 
ATOM      3  C   UNL     1       3.045   5.553  19.718  0.00  0.00    +0.000 A 
ATOM      4  C   UNL     1       3.675   5.531  18.474  0.00  0.00    +0.000 A 
ATOM      5  C   UNL     1       3.506   6.584  17.570  0.00  0.00    +0.000 A 
ATOM      6  C   UNL     1       2.744   7.694  17.944  0.00  0.00    +0.000 A 
ENDROOT
BRANCH   4   7
ATOM      7  S   UNL     1       4.628   4.112  18.034  0.00  0.00    +0.000 S 
ATOM      8  O   UNL     1       5.388   3.699  19.200  0.00  0.00    +0.000 OA
ATOM      9  O   UNL     1       3.802   3.189  17.290  0.00  0.00    +0.000 OA
BRANCH   7  10
ATOM     10  C   UNL     1       5.804   4.650  16.901  0.00  0.00    +0.000 A 
ATOM     11  C   UNL     1       5.969   4.118  15.594  0.00  0.00    +0.000 A 
ATOM     12  C   UNL     1       6.983   4.837  15.013  0.00  0.00    +0.000 A 
ATOM     13  O   UNL     1       7.454   5.769  15.875  0.00  0.00    +0.000 OA
ATOM     14  C   UNL     1       6.734   5.665  17.037  0.00  0.00    +0.000 A 
BRANCH  14  15
ATOM     15  C   UNL     1       7.120   6.643  18.104  0.00  0.00    +0.000 C 
ATOM     16  C   UNL     1       8.067   5.989  19.117  0.00  0.00    +0.000 C 
ATOM     17  C   UNL     1       7.788   7.880  17.498  0.00  0.00    +0.000 C 
ENDBRANCH  14  15
ENDBRANCH   7  10
ENDBRANCH   4   7
BRANCH   1  18
ATOM     18  O   UNL     1       1.436   8.891  19.480  0.00  0.00    +0.000 OA
BRANCH  18  19
ATOM     19  C   UNL     1       1.087   9.656  18.325  0.00  0.00    +0.000 C 
BRANCH  19  20
ATOM     20  C   UNL     1       0.232  10.851  18.717  0.00  0.00    +0.000 C 
BRANCH  20  21
ATOM     21  C   UNL     1       0.652  11.378  20.100  0.00  0.00    +0.000 C 
BRANCH  21  22
ATOM     22  N   UNL     1       0.251  12.779  20.394  0.00  0.00    +0.000 NA
BRANCH  22  23
ATOM     23  C   UNL     1      -0.388  12.833  21.732  0.00  0.00    +0.000 C 
BRANCH  23  24
ATOM     24  C   UNL     1      -0.684  11.515  22.463  0.00  0.00    +0.000 C 
BRANCH  24  26
ATOM     25  C   UNL     1      -2.893  12.642  22.797  0.00  0.00    +0.000 C 
ATOM     26  C   UNL     1      -1.990  11.503  23.257  0.00  0.00    +0.000 C 
ENDBRANCH  24  26
ENDBRANCH  23  24
ENDBRANCH  22  23
BRANCH  22  27
ATOM     27  C   UNL     1       1.421  13.683  20.320  0.00  0.00    +0.000 C 
BRANCH  27  28
ATOM     28  C   UNL     1       1.156  15.124  19.836  0.00  0.00    +0.000 C 
BRANCH  28  29
ATOM     29  C   UNL     1       0.020  15.253  18.819  0.00  0.00    +0.000 C 
ATOM     30  C   UNL     1      -0.594  16.647  18.874  0.00  0.00    +0.000 C 
ENDBRANCH  28  29
ENDBRANCH  27  28
ENDBRANCH  22  27
ENDBRANCH  21  22
ENDBRANCH  20  21
ENDBRANCH  19  20
ENDBRANCH  18  19
ENDBRANCH   1  18
TORSDOF 14
ENDMDL
MODEL 5
REMARK VINA RESULT:      -6.8      5.146      8.818
REMARK  Name = 
REMARK  18 active torsions:
REMARK  status: ('A' for Active; 'I' for Inactive)
REMARK    1  A    between atoms: C_1  and  C_2
REMARK    2  A    between atoms: C_2  and  C_3
REMARK    3  A    between atoms: C_3  and  C_4
REMARK    4  A    between atoms: C_4  and  N_5
REMARK    5  A    between atoms: N_5  and  C_6
REMARK    6  A    between atoms: N_5  and  C_10
REMARK    7  A    between atoms: C_6  and  C_7
REMARK    8  A    between atoms: C_7  and  C_8
REMARK    9  A    between atoms: C_8  and  C_9
REMARK   10  A    between atoms: C_10  and  C_11
REMARK   11  A    between atoms: C_11  and  C_12
REMARK   12  A    between atoms: C_12  and  O_13
REMARK   13  A    between atoms: O_13  and  C_14
REMARK   14  A    between atoms: C_17  and  S_18
REMARK   15  A    between atoms: S_18  and  C_21
REMARK   16  A    between atoms: C_25  and  C_26
REMARK   17  A    between atoms: C_26  and  C_27
REMARK   18  A    between atoms: C_26  and  C_28
REMARK                            x       y       z     vdW  Elec       q    Type
REMARK                         _______ _______ _______ _____ _____    ______ ____
ROOT
ATOM      1  C   UNL     1       7.739   7.346  17.894  0.00  0.00    +0.000 A 
ATOM      2  C   UNL     1       7.936   6.388  18.895  0.00  0.00    +0.000 A 
ATOM      3  C   UNL     1       7.002   5.376  19.102  0.00  0.00    +0.000 A 
ATOM      4  C   UNL     1       5.862   5.323  18.301  0.00  0.00    +0.000 A 
ATOM      5  C   UNL     1       5.627   6.300  17.329  0.00  0.00    +0.000 A 
ATOM      6  C   UNL     1       6.574   7.307  17.124  0.00  0.00    +0.000 A 
ENDROOT
BRANCH   4   7
ATOM      7  S   UNL     1       4.685   4.039  18.588  0.00  0.00    +0.000 S 
ATOM      8  O   UNL     1       4.160   3.613  17.304  0.00  0.00    +0.000 OA
ATOM      9  O   UNL     1       5.220   3.101  19.548  0.00  0.00    +0.000 OA
BRANCH   7  10
ATOM     10  C   UNL     1       3.356   4.772  19.395  0.00  0.00    +0.000 A 
ATOM     11  C   UNL     1       3.163   6.174  19.524  0.00  0.00    +0.000 A 
ATOM     12  C   UNL     1       1.981   6.337  20.202  0.00  0.00    +0.000 A 
ATOM     13  O   UNL     1       1.440   5.132  20.502  0.00  0.00    +0.000 OA
ATOM     14  C   UNL     1       2.275   4.164  20.008  0.00  0.00    +0.000 A 
BRANCH  14  15
ATOM     15  C   UNL     1       1.813   2.758  20.242  0.00  0.00    +0.000 C 
ATOM     16  C   UNL     1       1.225   2.612  21.650  0.00  0.00    +0.000 C 
ATOM     17  C   UNL     1       0.770   2.343  19.201  0.00  0.00    +0.000 C 
ENDBRANCH  14  15
ENDBRANCH   7  10
ENDBRANCH   4   7
BRANCH   1  18
ATOM     18  O   UNL     1       8.615   8.361  17.595  0.00  0.00    +0.000 OA
BRANCH  18  19
ATOM     19  C   UNL     1       8.253   9.630  18.145  0.00  0.00    +0.000 C 
BRANCH  19  20
ATOM     20  C   UNL     1       9.241  10.044  19.224  0.00  0.00    +0.000 C 
BRANCH  20  21
ATOM     21  C   UNL     1      10.095  11.228  18.741  0.00  0.00    +0.000 C 
BRANCH  21  22
ATOM     22  N   UNL     1       9.585  12.573  19.118  0.00  0.00    +0.000 NA
BRANCH  22  23
ATOM     23  C   UNL     1      10.467  13.155  20.161  0.00  0.00    +0.000 C 
BRANCH  23  24
ATOM     24  C   UNL     1       9.863  13.498  21.531  0.00  0.00    +0.000 C 
BRANCH  24  26
ATOM     25  C   UNL     1       7.588  12.872  22.365  0.00  0.00    +0.000 C 
ATOM     26  C   UNL     1       9.017  12.387  22.153  0.00  0.00    +0.000 C 
ENDBRANCH  24  26
ENDBRANCH  23  24
ENDBRANCH  22  23
BRANCH  22  27
ATOM     27  C   UNL     1       9.505  13.452  17.930  0.00  0.00    +0.000 C 
BRANCH  27  28
ATOM     28  C   UNL     1      10.292  14.778  17.993  0.00  0.00    +0.000 C 
BRANCH  28  29
ATOM     29  C   UNL     1      11.457  14.873  17.006  0.00  0.00    +0.000 C 
ATOM     30  C   UNL     1      11.978  13.485  16.654  0.00  0.00    +0.000 C 
ENDBRANCH  28  29
ENDBRANCH  27  28
ENDBRANCH  22  27
ENDBRANCH  21  22
ENDBRANCH  20  21
ENDBRANCH  19  20
ENDBRANCH  18  19
ENDBRANCH   1  18
TORSDOF 14
ENDMDL
MODEL 6
REMARK VINA RESULT:      -6.8      2.267      3.443
REMARK  Name = 
REMARK  18 active torsions:
REMARK  status: ('A' for Active; 'I' for Inactive)
REMARK    1  A    between atoms: C_1  and  C_2
REMARK    2  A    between atoms: C_2  and  C_3
REMARK    3  A    between atoms: C_3  and  C_4
REMARK    4  A    between atoms: C_4  and  N_5
REMARK    5  A    between atoms: N_5  and  C_6
REMARK    6  A    between atoms: N_5  and  C_10
REMARK    7  A    between atoms: C_6  and  C_7
REMARK    8  A    between atoms: C_7  and  C_8
REMARK    9  A    between atoms: C_8  and  C_9
REMARK   10  A    between atoms: C_10  and  C_11
REMARK   11  A    between atoms: C_11  and  C_12
REMARK   12  A    between atoms: C_12  and  O_13
REMARK   13  A    between atoms: O_13  and  C_14
REMARK   14  A    between atoms: C_17  and  S_18
REMARK   15  A    between atoms: S_18  and  C_21
REMARK   16  A    between atoms: C_25  and  C_26
REMARK   17  A    between atoms: C_26  and  C_27
REMARK   18  A    between atoms: C_26  and  C_28
REMARK                            x       y       z     vdW  Elec       q    Type
REMARK                         _______ _______ _______ _____ _____    ______ ____
ROOT
ATOM      1  C   UNL     1       2.146   7.607  19.344  0.00  0.00    +0.000 A 
ATOM      2  C   UNL     1       2.282   6.493  20.180  0.00  0.00    +0.000 A 
ATOM      3  C   UNL     1       3.053   5.403  19.789  0.00  0.00    +0.000 A 
ATOM      4  C   UNL     1       3.695   5.427  18.552  0.00  0.00    +0.000 A 
ATOM      5  C   UNL     1       3.530   6.511  17.684  0.00  0.00    +0.000 A 
ATOM      6  C   UNL     1       2.760   7.604  18.089  0.00  0.00    +0.000 A 
ENDROOT
BRANCH   4   7
ATOM      7  S   UNL     1       4.658   4.028  18.070  0.00  0.00    +0.000 S 
ATOM      8  O   UNL     1       5.440   3.603  19.217  0.00  0.00    +0.000 OA
ATOM      9  O   UNL     1       3.832   3.109  17.321  0.00  0.00    +0.000 OA
BRANCH   7  10
ATOM     10  C   UNL     1       5.810   4.602  16.930  0.00  0.00    +0.000 A 
ATOM     11  C   UNL     1       5.959   4.097  15.610  0.00  0.00    +0.000 A 
ATOM     12  C   UNL     1       6.957   4.839  15.028  0.00  0.00    +0.000 A 
ATOM     13  O   UNL     1       7.433   5.758  15.902  0.00  0.00    +0.000 OA
ATOM     14  C   UNL     1       6.732   5.623  17.072  0.00  0.00    +0.000 A 
BRANCH  14  15
ATOM     15  C   UNL     1       7.126   6.583  18.154  0.00  0.00    +0.000 C 
ATOM     16  C   UNL     1       8.070   5.909  19.155  0.00  0.00    +0.000 C 
ATOM     17  C   UNL     1       7.800   7.825  17.565  0.00  0.00    +0.000 C 
ENDBRANCH  14  15
ENDBRANCH   7  10
ENDBRANCH   4   7
BRANCH   1  18
ATOM     18  O   UNL     1       1.432   8.740  19.654  0.00  0.00    +0.000 OA
BRANCH  18  19
ATOM     19  C   UNL     1       1.052   8.836  21.028  0.00  0.00    +0.000 C 
BRANCH  19  20
ATOM     20  C   UNL     1       0.109  10.010  21.239  0.00  0.00    +0.000 C 
BRANCH  20  21
ATOM     21  C   UNL     1       0.694  11.285  20.607  0.00  0.00    +0.000 C 
BRANCH  21  22
ATOM     22  N   UNL     1       0.049  12.556  21.028  0.00  0.00    +0.000 NA
BRANCH  22  23
ATOM     23  C   UNL     1      -0.846  13.033  19.945  0.00  0.00    +0.000 C 
BRANCH  23  24
ATOM     24  C   UNL     1      -0.372  14.190  19.052  0.00  0.00    +0.000 C 
BRANCH  24  26
ATOM     25  C   UNL     1       1.700  15.554  18.720  0.00  0.00    +0.000 C 
ATOM     26  C   UNL     1       0.622  15.143  19.716  0.00  0.00    +0.000 C 
ENDBRANCH  24  26
ENDBRANCH  23  24
ENDBRANCH  22  23
BRANCH  22  27
ATOM     27  C   UNL     1      -0.693  12.369  22.295  0.00  0.00    +0.000 C 
BRANCH  27  28
ATOM     28  C   UNL     1      -2.198  12.710  22.275  0.00  0.00    +0.000 C 
BRANCH  28  29
ATOM     29  C   UNL     1      -2.994  12.146  23.454  0.00  0.00    +0.000 C 
ATOM     30  C   UNL     1      -4.244  12.982  23.706  0.00  0.00    +0.000 C 
ENDBRANCH  28  29
ENDBRANCH  27  28
ENDBRANCH  22  27
ENDBRANCH  21  22
ENDBRANCH  20  21
ENDBRANCH  19  20
ENDBRANCH  18  19
ENDBRANCH   1  18
TORSDOF 14
ENDMDL
MODEL 7
REMARK VINA RESULT:      -6.7      1.801      2.667
REMARK  Name = 
REMARK  18 active torsions:
REMARK  status: ('A' for Active; 'I' for Inactive)
REMARK    1  A    between atoms: C_1  and  C_2
REMARK    2  A    between atoms: C_2  and  C_3
REMARK    3  A    between atoms: C_3  and  C_4
REMARK    4  A    between atoms: C_4  and  N_5
REMARK    5  A    between atoms: N_5  and  C_6
REMARK    6  A    between atoms: N_5  and  C_10
REMARK    7  A    between atoms: C_6  and  C_7
REMARK    8  A    between atoms: C_7  and  C_8
REMARK    9  A    between atoms: C_8  and  C_9
REMARK   10  A    between atoms: C_10  and  C_11
REMARK   11  A    between atoms: C_11  and  C_12
REMARK   12  A    between atoms: C_12  and  O_13
REMARK   13  A    between atoms: O_13  and  C_14
REMARK   14  A    between atoms: C_17  and  S_18
REMARK   15  A    between atoms: S_18  and  C_21
REMARK   16  A    between atoms: C_25  and  C_26
REMARK   17  A    between atoms: C_26  and  C_27
REMARK   18  A    between atoms: C_26  and  C_28
REMARK                            x       y       z     vdW  Elec       q    Type
REMARK                         _______ _______ _______ _____ _____    ______ ____
ROOT
ATOM      1  C   UNL     1       2.170   7.589  19.345  0.00  0.00    +0.000 A 
ATOM      2  C   UNL     1       2.302   6.486  20.197  0.00  0.00    +0.000 A 
ATOM      3  C   UNL     1       3.070   5.388  19.822  0.00  0.00    +0.000 A 
ATOM      4  C   UNL     1       3.712   5.392  18.584  0.00  0.00    +0.000 A 
ATOM      5  C   UNL     1       3.551   6.463  17.701  0.00  0.00    +0.000 A 
ATOM      6  C   UNL     1       2.784   7.565  18.090  0.00  0.00    +0.000 A 
ENDROOT
BRANCH   4   7
ATOM      7  S   UNL     1       4.671   3.983  18.124  0.00  0.00    +0.000 S 
ATOM      8  O   UNL     1       5.438   3.562  19.282  0.00  0.00    +0.000 OA
ATOM      9  O   UNL     1       3.846   3.063  17.374  0.00  0.00    +0.000 OA
BRANCH   7  10
ATOM     10  C   UNL     1       5.837   4.540  16.991  0.00  0.00    +0.000 A 
ATOM     11  C   UNL     1       5.997   4.024  15.676  0.00  0.00    +0.000 A 
ATOM     12  C   UNL     1       7.005   4.754  15.099  0.00  0.00    +0.000 A 
ATOM     13  O   UNL     1       7.477   5.677  15.970  0.00  0.00    +0.000 OA
ATOM     14  C   UNL     1       6.765   5.556  17.134  0.00  0.00    +0.000 A 
BRANCH  14  15
ATOM     15  C   UNL     1       7.153   6.523  18.211  0.00  0.00    +0.000 C 
ATOM     16  C   UNL     1       8.076   5.849  19.232  0.00  0.00    +0.000 C 
ATOM     17  C   UNL     1       7.848   7.752  17.620  0.00  0.00    +0.000 C 
ENDBRANCH  14  15
ENDBRANCH   7  10
ENDBRANCH   4   7
BRANCH   1  18
ATOM     18  O   UNL     1       1.460   8.728  19.638  0.00  0.00    +0.000 OA
BRANCH  18  19
ATOM     19  C   UNL     1       1.407   9.676  18.569  0.00  0.00    +0.000 C 
BRANCH  19  20
ATOM     20  C   UNL     1       1.013  11.048  19.094  0.00  0.00    +0.000 C 
BRANCH  20  21
ATOM     21  C   UNL     1      -0.454  11.352  18.746  0.00  0.00    +0.000 C 
BRANCH  21  22
ATOM     22  N   UNL     1      -1.302  11.777  19.890  0.00  0.00    +0.000 NA
BRANCH  22  23
ATOM     23  C   UNL     1      -0.560  11.559  21.157  0.00  0.00    +0.000 C 
BRANCH  23  24
ATOM     24  C   UNL     1      -1.322  11.669  22.487  0.00  0.00    +0.000 C 
BRANCH  24  26
ATOM     25  C   UNL     1      -2.565  13.667  23.339  0.00  0.00    +0.000 C 
ATOM     26  C   UNL     1      -1.193  13.022  23.187  0.00  0.00    +0.000 C 
ENDBRANCH  24  26
ENDBRANCH  23  24
ENDBRANCH  22  23
BRANCH  22  27
ATOM     27  C   UNL     1      -1.708  13.193  19.741  0.00  0.00    +0.000 C 
BRANCH  27  28
ATOM     28  C   UNL     1      -0.596  14.198  19.374  0.00  0.00    +0.000 C 
BRANCH  28  29
ATOM     29  C   UNL     1      -0.729  15.568  20.043  0.00  0.00    +0.000 C 
ATOM     30  C   UNL     1       0.346  15.752  21.108  0.00  0.00    +0.000 C 
ENDBRANCH  28  29
ENDBRANCH  27  28
ENDBRANCH  22  27
ENDBRANCH  21  22
ENDBRANCH  20  21
ENDBRANCH  19  20
ENDBRANCH  18  19
ENDBRANCH   1  18
TORSDOF 14
ENDMDL
MODEL 8
REMARK VINA RESULT:      -6.6      3.088      9.857
REMARK  Name = 
REMARK  18 active torsions:
REMARK  status: ('A' for Active; 'I' for Inactive)
REMARK    1  A    between atoms: C_1  and  C_2
REMARK    2  A    between atoms: C_2  and  C_3
REMARK    3  A    between atoms: C_3  and  C_4
REMARK    4  A    between atoms: C_4  and  N_5
REMARK    5  A    between atoms: N_5  and  C_6
REMARK    6  A    between atoms: N_5  and  C_10
REMARK    7  A    between atoms: C_6  and  C_7
REMARK    8  A    between atoms: C_7  and  C_8
REMARK    9  A    between atoms: C_8  and  C_9
REMARK   10  A    between atoms: C_10  and  C_11
REMARK   11  A    between atoms: C_11  and  C_12
REMARK   12  A    between atoms: C_12  and  O_13
REMARK   13  A    between atoms: O_13  and  C_14
REMARK   14  A    between atoms: C_17  and  S_18
REMARK   15  A    between atoms: S_18  and  C_21
REMARK   16  A    between atoms: C_25  and  C_26
REMARK   17  A    between atoms: C_26  and  C_27
REMARK   18  A    between atoms: C_26  and  C_28
REMARK                            x       y       z     vdW  Elec       q    Type
REMARK                         _______ _______ _______ _____ _____    ______ ____
ROOT
ATOM      1  C   UNL     1       2.462   6.487  19.123  0.00  0.00    +0.000 A 
ATOM      2  C   UNL     1       2.544   7.371  18.041  0.00  0.00    +0.000 A 
ATOM      3  C   UNL     1       2.097   8.684  18.161  0.00  0.00    +0.000 A 
ATOM      4  C   UNL     1       1.562   9.116  19.373  0.00  0.00    +0.000 A 
ATOM      5  C   UNL     1       1.428   8.233  20.449  0.00  0.00    +0.000 A 
ATOM      6  C   UNL     1       1.887   6.920  20.321  0.00  0.00    +0.000 A 
ENDROOT
BRANCH   4   7
ATOM      7  S   UNL     1       0.989  10.781  19.500  0.00  0.00    +0.000 S 
ATOM      8  O   UNL     1       0.854  11.105  20.908  0.00  0.00    +0.000 OA
ATOM      9  O   UNL     1       1.735  11.618  18.588  0.00  0.00    +0.000 OA
BRANCH   7  10
ATOM     10  C   UNL     1      -0.615  10.790  18.882  0.00  0.00    +0.000 A 
ATOM     11  C   UNL     1      -1.070   9.982  17.805  0.00  0.00    +0.000 A 
ATOM     12  C   UNL     1      -2.403  10.269  17.649  0.00  0.00    +0.000 A 
ATOM     13  O   UNL     1      -2.793  11.202  18.550  0.00  0.00    +0.000 OA
ATOM     14  C   UNL     1      -1.703  11.526  19.314  0.00  0.00    +0.000 A 
BRANCH  14  15
ATOM     15  C   UNL     1      -1.966  12.544  20.382  0.00  0.00    +0.000 C 
ATOM     16  C   UNL     1      -1.257  13.863  20.054  0.00  0.00    +0.000 C 
ATOM     17  C   UNL     1      -3.468  12.792  20.545  0.00  0.00    +0.000 C 
ENDBRANCH  14  15
ENDBRANCH   7  10
ENDBRANCH   4   7
BRANCH   1  18
ATOM     18  O   UNL     1       2.903   5.186  19.111  0.00  0.00    +0.000 OA
BRANCH  18  19
ATOM     19  C   UNL     1       3.323   4.722  17.827  0.00  0.00    +0.000 C 
BRANCH  19  20
ATOM     20  C   UNL     1       4.712   4.107  17.911  0.00  0.00    +0.000 C 
BRANCH  20  21
ATOM     21  C   UNL     1       5.323   3.972  16.506  0.00  0.00    +0.000 C 
BRANCH  21  22
ATOM     22  N   UNL     1       5.931   5.213  15.957  0.00  0.00    +0.000 NA
BRANCH  22  23
ATOM     23  C   UNL     1       7.166   5.530  16.716  0.00  0.00    +0.000 C 
BRANCH  23  24
ATOM     24  C   UNL     1       7.375   6.967  17.217  0.00  0.00    +0.000 C 
BRANCH  24  26
ATOM     25  C   UNL     1       7.938   5.745  19.327  0.00  0.00    +0.000 C 
ATOM     26  C   UNL     1       8.042   7.074  18.589  0.00  0.00    +0.000 C 
ENDBRANCH  24  26
ENDBRANCH  23  24
ENDBRANCH  22  23
BRANCH  22  27
ATOM     27  C   UNL     1       6.212   5.059  14.511  0.00  0.00    +0.000 C 
BRANCH  27  28
ATOM     28  C   UNL     1       5.562   3.852  13.803  0.00  0.00    +0.000 C 
BRANCH  28  29
ATOM     29  C   UNL     1       6.257   3.426  12.507  0.00  0.00    +0.000 C 
ATOM     30  C   UNL     1       5.275   2.719  11.579  0.00  0.00    +0.000 C 
ENDBRANCH  28  29
ENDBRANCH  27  28
ENDBRANCH  22  27
ENDBRANCH  21  22
ENDBRANCH  20  21
ENDBRANCH  19  20
ENDBRANCH  18  19
ENDBRANCH   1  18
TORSDOF 14
ENDMDL
MODEL 9
REMARK VINA RESULT:      -6.6      2.044      2.570
REMARK  Name = 
REMARK  18 active torsions:
REMARK  status: ('A' for Active; 'I' for Inactive)
REMARK    1  A    between atoms: C_1  and  C_2
REMARK    2  A    between atoms: C_2  and  C_3
REMARK    3  A    between atoms: C_3  and  C_4
REMARK    4  A    between atoms: C_4  and  N_5
REMARK    5  A    between atoms: N_5  and  C_6
REMARK    6  A    between atoms: N_5  and  C_10
REMARK    7  A    between atoms: C_6  and  C_7
REMARK    8  A    between atoms: C_7  and  C_8
REMARK    9  A    between atoms: C_8  and  C_9
REMARK   10  A    between atoms: C_10  and  C_11
REMARK   11  A    between atoms: C_11  and  C_12
REMARK   12  A    between atoms: C_12  and  O_13
REMARK   13  A    between atoms: O_13  and  C_14
REMARK   14  A    between atoms: C_17  and  S_18
REMARK   15  A    between atoms: S_18  and  C_21
REMARK   16  A    between atoms: C_25  and  C_26
REMARK   17  A    between atoms: C_26  and  C_27
REMARK   18  A    between atoms: C_26  and  C_28
REMARK                            x       y       z     vdW  Elec       q    Type
REMARK                         _______ _______ _______ _____ _____    ______ ____
ROOT
ATOM      1  C   UNL     1       2.153   7.566  19.358  0.00  0.00    +0.000 A 
ATOM      2  C   UNL     1       2.282   6.437  20.176  0.00  0.00    +0.000 A 
ATOM      3  C   UNL     1       3.053   5.352  19.769  0.00  0.00    +0.000 A 
ATOM      4  C   UNL     1       3.701   5.396  18.536  0.00  0.00    +0.000 A 
ATOM      5  C   UNL     1       3.543   6.496  17.686  0.00  0.00    +0.000 A 
ATOM      6  C   UNL     1       2.773   7.583  18.106  0.00  0.00    +0.000 A 
ENDROOT
BRANCH   4   7
ATOM      7  S   UNL     1       4.664   4.004  18.035  0.00  0.00    +0.000 S 
ATOM      8  O   UNL     1       5.447   3.564  19.175  0.00  0.00    +0.000 OA
ATOM      9  O   UNL     1       3.837   3.095  17.275  0.00  0.00    +0.000 OA
BRANCH   7  10
ATOM     10  C   UNL     1       5.814   4.593  16.901  0.00  0.00    +0.000 A 
ATOM     11  C   UNL     1       5.968   4.100  15.578  0.00  0.00    +0.000 A 
ATOM     12  C   UNL     1       6.963   4.851  15.003  0.00  0.00    +0.000 A 
ATOM     13  O   UNL     1       7.433   5.765  15.886  0.00  0.00    +0.000 OA
ATOM     14  C   UNL     1       6.732   5.617  17.054  0.00  0.00    +0.000 A 
BRANCH  14  15
ATOM     15  C   UNL     1       7.119   6.570  18.143  0.00  0.00    +0.000 C 
ATOM     16  C   UNL     1       8.052   5.887  19.150  0.00  0.00    +0.000 C 
ATOM     17  C   UNL     1       7.803   7.813  17.567  0.00  0.00    +0.000 C 
ENDBRANCH  14  15
ENDBRANCH   7  10
ENDBRANCH   4   7
BRANCH   1  18
ATOM     18  O   UNL     1       1.441   8.695  19.684  0.00  0.00    +0.000 OA
BRANCH  18  19
ATOM     19  C   UNL     1       1.212   8.860  21.085  0.00  0.00    +0.000 C 
BRANCH  19  20
ATOM     20  C   UNL     1       0.298  10.048  21.339  0.00  0.00    +0.000 C 
BRANCH  20  21
ATOM     21  C   UNL     1       0.789  11.277  20.556  0.00  0.00    +0.000 C 
BRANCH  21  22
ATOM     22  N   UNL     1      -0.270  12.049  19.854  0.00  0.00    +0.000 NA
BRANCH  22  23
ATOM     23  C   UNL     1      -0.950  12.941  20.826  0.00  0.00    +0.000 C 
BRANCH  23  24
ATOM     24  C   UNL     1      -2.398  12.624  21.232  0.00  0.00    +0.000 C 
BRANCH  24  26
ATOM     25  C   UNL     1      -3.592  12.616  23.431  0.00  0.00    +0.000 C 
ATOM     26  C   UNL     1      -2.949  13.493  22.363  0.00  0.00    +0.000 C 
ENDBRANCH  24  26
ENDBRANCH  23  24
ENDBRANCH  22  23
BRANCH  22  27
ATOM     27  C   UNL     1       0.305  12.819  18.728  0.00  0.00    +0.000 C 
BRANCH  27  28
ATOM     28  C   UNL     1       1.290  13.949  19.092  0.00  0.00    +0.000 C 
BRANCH  28  29
ATOM     29  C   UNL     1       2.713  13.747  18.566  0.00  0.00    +0.000 C 
ATOM     30  C   UNL     1       3.202  14.998  17.846  0.00  0.00    +0.000 C 
ENDBRANCH  28  29
ENDBRANCH  27  28
ENDBRANCH  22  27
ENDBRANCH  21  22
ENDBRANCH  20  21
ENDBRANCH  19  20
ENDBRANCH  18  19
ENDBRANCH   1  18
TORSDOF 14
ENDMDL
