MODEL 1
REMARK VINA RESULT:      -6.0      0.000      0.000
REMARK  Name = 
REMARK  18 active torsions:
REMARK  status: ('A' for Active; 'I' for Inactive)
REMARK    1  A    between atoms: C_1  and  C_2
REMARK    2  A    between atoms: C_2  and  C_3
REMARK    3  A    between atoms: C_3  and  C_4
REMARK    4  A    between atoms: C_4  and  C_5
REMARK    5  A    between atoms: C_5  and  C_6
REMARK    6  A    between atoms: C_6  and  C_7
REMARK    7  A    between atoms: C_7  and  C_8
REMARK    8  A    between atoms: C_8  and  C_9
REMARK    9  A    between atoms: C_9  and  C_10
REMARK   10  A    between atoms: C_10  and  C_11
REMARK   11  A    between atoms: C_11  and  C_12
REMARK   12  A    between atoms: C_12  and  N_13
REMARK   13  A    between atoms: N_13  and  C_14
REMARK   14  A    between atoms: N_13  and  C_15
REMARK   15  A    between atoms: N_13  and  C_16
REMARK   16  A    between atoms: C_16  and  C_17
REMARK   17  A    between atoms: C_17  and  O_18
REMARK   18  A    between atoms: O_18  and  C_19
REMARK                            x       y       z     vdW  Elec       q    Type
REMARK                         _______ _______ _______ _____ _____    ______ ____
ROOT
ATOM      1  C   UNL     1       2.876   2.422  18.273  0.00  0.00    +0.000 C 
ENDROOT
BRANCH   1   2
ATOM      2  N   UNL     1       1.901   2.963  19.323  0.00  0.00    +0.000 N 
ATOM      3  C   UNL     1       0.559   2.243  19.273  0.00  0.00    +0.000 C 
ATOM      4  C   UNL     1       2.496   2.800  20.725  0.00  0.00    +0.000 C 
BRANCH   2   5
ATOM      5  C   UNL     1       1.698   4.504  19.078  0.00  0.00    +0.000 C 
BRANCH   5   6
ATOM      6  C   UNL     1       2.087   5.344  20.302  0.00  0.00    +0.000 C 
BRANCH   6   7
ATOM      7  O   UNL     1       2.878   6.473  19.954  0.00  0.00    +0.000 OA
BRANCH   7   8
ATOM      8  C   UNL     1       2.112   7.597  19.731  0.00  0.00    +0.000 A 
ATOM      9  C   UNL     1       2.176   8.120  18.441  0.00  0.00    +0.000 A 
ATOM     10  C   UNL     1       1.477   9.281  18.123  0.00  0.00    +0.000 A 
ATOM     11  C   UNL     1       0.698   9.923  19.088  0.00  0.00    +0.000 A 
ATOM     12  C   UNL     1       0.601   9.393  20.368  0.00  0.00    +0.000 A 
ATOM     13  C   UNL     1       1.299   8.226  20.689  0.00  0.00    +0.000 A 
ENDBRANCH   7   8
ENDBRANCH   6   7
ENDBRANCH   5   6
ENDBRANCH   2   5
ENDBRANCH   1   2
BRANCH   1  14
ATOM     14  C   UNL     1       3.644   3.471  17.480  0.00  0.00    +0.000 C 
BRANCH  14  15
ATOM     15  C   UNL     1       4.901   3.883  18.262  0.00  0.00    +0.000 C 
BRANCH  15  16
ATOM     16  C   UNL     1       5.329   5.342  18.041  0.00  0.00    +0.000 C 
BRANCH  16  17
ATOM     17  C   UNL     1       4.526   6.057  16.955  0.00  0.00    +0.000 C 
BRANCH  17  18
ATOM     18  C   UNL     1       5.321   6.127  15.658  0.00  0.00    +0.000 C 
BRANCH  18  19
ATOM     19  C   UNL     1       6.745   5.648  15.853  0.00  0.00    +0.000 C 
BRANCH  19  20
ATOM     20  C   UNL     1       6.959   4.370  15.055  0.00  0.00    +0.000 C 
BRANCH  20  21
ATOM     21  C   UNL     1       5.858   4.211  14.023  0.00  0.00    +0.000 C 
BRANCH  21  22
ATOM     22  C   UNL     1       6.435   3.750  12.693  0.00  0.00    +0.000 C 
BRANCH  22  24
ATOM     23  C   UNL     1       5.779   1.698  11.420  0.00  0.00    +0.000 C 
ATOM     24  C   UNL     1       5.353   3.089  11.850  0.00  0.00    +0.000 C 
ENDBRANCH  22  24
ENDBRANCH  21  22
ENDBRANCH  20  21
ENDBRANCH  19  20
ENDBRANCH  18  19
ENDBRANCH  17  18
ENDBRANCH  16  17
ENDBRANCH  15  16
ENDBRANCH  14  15
ENDBRANCH   1  14
TORSDOF 15
ENDMDL
MODEL 2
REMARK VINA RESULT:      -6.0      0.805      1.394
REMARK  Name = 
REMARK  18 active torsions:
REMARK  status: ('A' for Active; 'I' for Inactive)
REMARK    1  A    between atoms: C_1  and  C_2
REMARK    2  A    between atoms: C_2  and  C_3
REMARK    3  A    between atoms: C_3  and  C_4
REMARK    4  A    between atoms: C_4  and  C_5
REMARK    5  A    between atoms: C_5  and  C_6
REMARK    6  A    between atoms: C_6  and  C_7
REMARK    7  A    between atoms: C_7  and  C_8
REMARK    8  A    between atoms: C_8  and  C_9
REMARK    9  A    between atoms: C_9  and  C_10
REMARK   10  A    between atoms: C_10  and  C_11
REMARK   11  A    between atoms: C_11  and  C_12
REMARK   12  A    between atoms: C_12  and  N_13
REMARK   13  A    between atoms: N_13  and  C_14
REMARK   14  A    between atoms: N_13  and  C_15
REMARK   15  A    between atoms: N_13  and  C_16
REMARK   16  A    between atoms: C_16  and  C_17
REMARK   17  A    between atoms: C_17  and  O_18
REMARK   18  A    between atoms: O_18  and  C_19
REMARK                            x       y       z     vdW  Elec       q    Type
REMARK                         _______ _______ _______ _____ _____    ______ ____
ROOT
ATOM      1  C   UNL     1       3.325   3.091  19.887  0.00  0.00    +0.000 C 
ENDROOT
BRANCH   1   2
ATOM      2  N   UNL     1       1.813   3.040  20.125  0.00  0.00    +0.000 N 
ATOM      3  C   UNL     1       1.128   2.040  19.203  0.00  0.00    +0.000 C 
ATOM      4  C   UNL     1       1.523   2.650  21.578  0.00  0.00    +0.000 C 
BRANCH   2   5
ATOM      5  C   UNL     1       1.217   4.480  19.900  0.00  0.00    +0.000 C 
BRANCH   5   6
ATOM      6  C   UNL     1       2.013   5.560  20.643  0.00  0.00    +0.000 C 
BRANCH   6   7
ATOM      7  O   UNL     1       2.792   6.361  19.763  0.00  0.00    +0.000 OA
BRANCH   7   8
ATOM      8  C   UNL     1       2.159   7.541  19.435  0.00  0.00    +0.000 A 
ATOM      9  C   UNL     1       1.528   8.196  20.490  0.00  0.00    +0.000 A 
ATOM     10  C   UNL     1       0.819   9.371  20.257  0.00  0.00    +0.000 A 
ATOM     11  C   UNL     1       0.744   9.908  18.971  0.00  0.00    +0.000 A 
ATOM     12  C   UNL     1       1.396   9.282  17.917  0.00  0.00    +0.000 A 
ATOM     13  C   UNL     1       2.111   8.103  18.148  0.00  0.00    +0.000 A 
ENDBRANCH   7   8
ENDBRANCH   6   7
ENDBRANCH   5   6
ENDBRANCH   2   5
ENDBRANCH   1   2
BRANCH   1  14
ATOM     14  C   UNL     1       3.810   2.476  18.582  0.00  0.00    +0.000 C 
BRANCH  14  15
ATOM     15  C   UNL     1       3.717   3.521  17.459  0.00  0.00    +0.000 C 
BRANCH  15  16
ATOM     16  C   UNL     1       4.916   4.480  17.392  0.00  0.00    +0.000 C 
BRANCH  16  17
ATOM     17  C   UNL     1       4.596   5.813  16.716  0.00  0.00    +0.000 C 
BRANCH  17  18
ATOM     18  C   UNL     1       5.678   6.177  15.708  0.00  0.00    +0.000 C 
BRANCH  18  19
ATOM     19  C   UNL     1       6.696   5.064  15.560  0.00  0.00    +0.000 C 
BRANCH  19  20
ATOM     20  C   UNL     1       6.901   4.764  14.083  0.00  0.00    +0.000 C 
BRANCH  20  21
ATOM     21  C   UNL     1       6.232   3.451  13.722  0.00  0.00    +0.000 C 
BRANCH  21  22
ATOM     22  C   UNL     1       5.884   3.418  12.240  0.00  0.00    +0.000 C 
BRANCH  22  24
ATOM     23  C   UNL     1       3.893   3.038  10.774  0.00  0.00    +0.000 C 
ATOM     24  C   UNL     1       4.401   3.698  12.041  0.00  0.00    +0.000 C 
ENDBRANCH  22  24
ENDBRANCH  21  22
ENDBRANCH  20  21
ENDBRANCH  19  20
ENDBRANCH  18  19
ENDBRANCH  17  18
ENDBRANCH  16  17
ENDBRANCH  15  16
ENDBRANCH  14  15
ENDBRANCH   1  14
TORSDOF 15
ENDMDL
MODEL 3
REMARK VINA RESULT:      -6.0      5.380      8.070
REMARK  Name = 
REMARK  18 active torsions:
REMARK  status: ('A' for Active; 'I' for Inactive)
REMARK    1  A    between atoms: C_1  and  C_2
REMARK    2  A    between atoms: C_2  and  C_3
REMARK    3  A    between atoms: C_3  and  C_4
REMARK    4  A    between atoms: C_4  and  C_5
REMARK    5  A    between atoms: C_5  and  C_6
REMARK    6  A    between atoms: C_6  and  C_7
REMARK    7  A    between atoms: C_7  and  C_8
REMARK    8  A    between atoms: C_8  and  C_9
REMARK    9  A    between atoms: C_9  and  C_10
REMARK   10  A    between atoms: C_10  and  C_11
REMARK   11  A    between atoms: C_11  and  C_12
REMARK   12  A    between atoms: C_12  and  N_13
REMARK   13  A    between atoms: N_13  and  C_14
REMARK   14  A    between atoms: N_13  and  C_15
REMARK   15  A    between atoms: N_13  and  C_16
REMARK   16  A    between atoms: C_16  and  C_17
REMARK   17  A    between atoms: C_17  and  O_18
REMARK   18  A    between atoms: O_18  and  C_19
REMARK                            x       y       z     vdW  Elec       q    Type
REMARK                         _______ _______ _______ _____ _____    ______ ____
ROOT
ATOM      1  C   UNL     1       6.696   6.899  17.379  0.00  0.00    +0.000 C 
ENDROOT
BRANCH   1   2
ATOM      2  N   UNL     1       6.396   5.440  17.739  0.00  0.00    +0.000 N 
ATOM      3  C   UNL     1       7.619   4.550  17.557  0.00  0.00    +0.000 C 
ATOM      4  C   UNL     1       5.927   5.344  19.193  0.00  0.00    +0.000 C 
BRANCH   2   5
ATOM      5  C   UNL     1       5.216   4.929  16.832  0.00  0.00    +0.000 C 
BRANCH   5   6
ATOM      6  C   UNL     1       3.847   5.120  17.498  0.00  0.00    +0.000 C 
BRANCH   6   7
ATOM      7  O   UNL     1       3.056   3.939  17.461  0.00  0.00    +0.000 OA
BRANCH   7   8
ATOM      8  C   UNL     1       2.612   3.570  18.712  0.00  0.00    +0.000 A 
ATOM      9  C   UNL     1       1.269   3.832  18.973  0.00  0.00    +0.000 A 
ATOM     10  C   UNL     1       0.731   3.542  20.223  0.00  0.00    +0.000 A 
ATOM     11  C   UNL     1       1.527   2.977  21.221  0.00  0.00    +0.000 A 
ATOM     12  C   UNL     1       2.859   2.680  20.962  0.00  0.00    +0.000 A 
ATOM     13  C   UNL     1       3.401   2.968  19.706  0.00  0.00    +0.000 A 
ENDBRANCH   7   8
ENDBRANCH   6   7
ENDBRANCH   5   6
ENDBRANCH   2   5
ENDBRANCH   1   2
BRANCH   1  14
ATOM     14  C   UNL     1       7.954   7.489  17.998  0.00  0.00    +0.000 C 
BRANCH  14  15
ATOM     15  C   UNL     1       8.040   8.984  17.655  0.00  0.00    +0.000 C 
BRANCH  15  16
ATOM     16  C   UNL     1       8.815   9.822  18.684  0.00  0.00    +0.000 C 
BRANCH  16  17
ATOM     17  C   UNL     1       9.704  10.895  18.055  0.00  0.00    +0.000 C 
BRANCH  17  18
ATOM     18  C   UNL     1       8.951  12.213  17.936  0.00  0.00    +0.000 C 
BRANCH  18  19
ATOM     19  C   UNL     1       9.895  13.398  17.990  0.00  0.00    +0.000 C 
BRANCH  19  20
ATOM     20  C   UNL     1      10.780  13.279  19.221  0.00  0.00    +0.000 C 
BRANCH  20  21
ATOM     21  C   UNL     1      10.006  13.690  20.460  0.00  0.00    +0.000 C 
BRANCH  21  22
ATOM     22  C   UNL     1       9.826  12.503  21.396  0.00  0.00    +0.000 C 
BRANCH  22  24
ATOM     23  C   UNL     1       8.118  11.597  22.984  0.00  0.00    +0.000 C 
ATOM     24  C   UNL     1       8.828  12.845  22.494  0.00  0.00    +0.000 C 
ENDBRANCH  22  24
ENDBRANCH  21  22
ENDBRANCH  20  21
ENDBRANCH  19  20
ENDBRANCH  18  19
ENDBRANCH  17  18
ENDBRANCH  16  17
ENDBRANCH  15  16
ENDBRANCH  14  15
ENDBRANCH   1  14
TORSDOF 15
ENDMDL
MODEL 4
REMARK VINA RESULT:      -5.9      4.388      7.544
REMARK  Name = 
REMARK  18 active torsions:
REMARK  status: ('A' for Active; 'I' for Inactive)
REMARK    1  A    between atoms: C_1  and  C_2
REMARK    2  A    between atoms: C_2  and  C_3
REMARK    3  A    between atoms: C_3  and  C_4
REMARK    4  A    between atoms: C_4  and  C_5
REMARK    5  A    between atoms: C_5  and  C_6
REMARK    6  A    between atoms: C_6  and  C_7
REMARK    7  A    between atoms: C_7  and  C_8
REMARK    8  A    between atoms: C_8  and  C_9
REMARK    9  A    between atoms: C_9  and  C_10
REMARK   10  A    between atoms: C_10  and  C_11
REMARK   11  A    between atoms: C_11  and  C_12
REMARK   12  A    between atoms: C_12  and  N_13
REMARK   13  A    between atoms: N_13  and  C_14
REMARK   14  A    between atoms: N_13  and  C_15
REMARK   15  A    between atoms: N_13  and  C_16
REMARK   16  A    between atoms: C_16  and  C_17
REMARK   17  A    between atoms: C_17  and  O_18
REMARK   18  A    between atoms: O_18  and  C_19
REMARK                            x       y       z     vdW  Elec       q    Type
REMARK                         _______ _______ _______ _____ _____    ______ ____
ROOT
ATOM      1  C   UNL     1       5.524   6.076  17.993  0.00  0.00    +0.000 C 
ENDROOT
BRANCH   1   2
ATOM      2  N   UNL     1       6.997   6.307  17.643  0.00  0.00    +0.000 N 
ATOM      3  C   UNL     1       7.916   5.970  18.810  0.00  0.00    +0.000 C 
ATOM      4  C   UNL     1       7.392   5.445  16.440  0.00  0.00    +0.000 C 
BRANCH   2   5
ATOM      5  C   UNL     1       7.186   7.812  17.222  0.00  0.00    +0.000 C 
BRANCH   5   6
ATOM      6  C   UNL     1       8.313   8.496  18.008  0.00  0.00    +0.000 C 
BRANCH   6   7
ATOM      7  O   UNL     1       8.029   9.863  18.282  0.00  0.00    +0.000 OA
BRANCH   7   8
ATOM      8  C   UNL     1       9.135  10.540  18.750  0.00  0.00    +0.000 A 
ATOM      9  C   UNL     1      10.047  10.943  17.778  0.00  0.00    +0.000 A 
ATOM     10  C   UNL     1      11.221  11.593  18.148  0.00  0.00    +0.000 A 
ATOM     11  C   UNL     1      11.488  11.856  19.494  0.00  0.00    +0.000 A 
ATOM     12  C   UNL     1      10.571  11.489  20.469  0.00  0.00    +0.000 A 
ATOM     13  C   UNL     1       9.390  10.839  20.099  0.00  0.00    +0.000 A 
ENDBRANCH   7   8
ENDBRANCH   6   7
ENDBRANCH   5   6
ENDBRANCH   2   5
ENDBRANCH   1   2
BRANCH   1  14
ATOM     14  C   UNL     1       5.263   5.248  19.243  0.00  0.00    +0.000 C 
BRANCH  14  15
ATOM     15  C   UNL     1       4.502   3.969  18.858  0.00  0.00    +0.000 C 
BRANCH  15  16
ATOM     16  C   UNL     1       4.375   3.745  17.344  0.00  0.00    +0.000 C 
BRANCH  16  17
ATOM     17  C   UNL     1       2.972   3.332  16.901  0.00  0.00    +0.000 C 
BRANCH  17  18
ATOM     18  C   UNL     1       1.949   3.661  17.980  0.00  0.00    +0.000 C 
BRANCH  18  19
ATOM     19  C   UNL     1       1.488   2.414  18.707  0.00  0.00    +0.000 C 
BRANCH  19  20
ATOM     20  C   UNL     1       1.306   2.731  20.183  0.00  0.00    +0.000 C 
BRANCH  20  21
ATOM     21  C   UNL     1       0.829   4.162  20.352  0.00  0.00    +0.000 C 
BRANCH  21  22
ATOM     22  C   UNL     1       1.910   5.012  21.003  0.00  0.00    +0.000 C 
BRANCH  22  24
ATOM     23  C   UNL     1       2.218   7.006  19.523  0.00  0.00    +0.000 C 
ATOM     24  C   UNL     1       1.603   6.491  20.811  0.00  0.00    +0.000 C 
ENDBRANCH  22  24
ENDBRANCH  21  22
ENDBRANCH  20  21
ENDBRANCH  19  20
ENDBRANCH  18  19
ENDBRANCH  17  18
ENDBRANCH  16  17
ENDBRANCH  15  16
ENDBRANCH  14  15
ENDBRANCH   1  14
TORSDOF 15
ENDMDL
MODEL 5
REMARK VINA RESULT:      -5.9      2.562      7.823
REMARK  Name = 
REMARK  18 active torsions:
REMARK  status: ('A' for Active; 'I' for Inactive)
REMARK    1  A    between atoms: C_1  and  C_2
REMARK    2  A    between atoms: C_2  and  C_3
REMARK    3  A    between atoms: C_3  and  C_4
REMARK    4  A    between atoms: C_4  and  C_5
REMARK    5  A    between atoms: C_5  and  C_6
REMARK    6  A    between atoms: C_6  and  C_7
REMARK    7  A    between atoms: C_7  and  C_8
REMARK    8  A    between atoms: C_8  and  C_9
REMARK    9  A    between atoms: C_9  and  C_10
REMARK   10  A    between atoms: C_10  and  C_11
REMARK   11  A    between atoms: C_11  and  C_12
REMARK   12  A    between atoms: C_12  and  N_13
REMARK   13  A    between atoms: N_13  and  C_14
REMARK   14  A    between atoms: N_13  and  C_15
REMARK   15  A    between atoms: N_13  and  C_16
REMARK   16  A    between atoms: C_16  and  C_17
REMARK   17  A    between atoms: C_17  and  O_18
REMARK   18  A    between atoms: O_18  and  C_19
REMARK                            x       y       z     vdW  Elec       q    Type
REMARK                         _______ _______ _______ _____ _____    ______ ____
ROOT
ATOM      1  C   UNL     1       5.081   5.992  16.702  0.00  0.00    +0.000 C 
ENDROOT
BRANCH   1   2
ATOM      2  N   UNL     1       6.538   5.638  17.012  0.00  0.00    +0.000 N 
ATOM      3  C   UNL     1       7.377   6.881  17.282  0.00  0.00    +0.000 C 
ATOM      4  C   UNL     1       6.607   4.721  18.237  0.00  0.00    +0.000 C 
BRANCH   2   5
ATOM      5  C   UNL     1       7.134   4.838  15.794  0.00  0.00    +0.000 C 
BRANCH   5   6
ATOM      6  C   UNL     1       6.041   4.303  14.860  0.00  0.00    +0.000 C 
BRANCH   6   7
ATOM      7  O   UNL     1       6.194   4.769  13.525  0.00  0.00    +0.000 OA
BRANCH   7   8
ATOM      8  C   UNL     1       6.275   3.733  12.619  0.00  0.00    +0.000 A 
ATOM      9  C   UNL     1       5.057   3.184  12.225  0.00  0.00    +0.000 A 
ATOM     10  C   UNL     1       5.029   2.102  11.350  0.00  0.00    +0.000 A 
ATOM     11  C   UNL     1       6.219   1.567  10.851  0.00  0.00    +0.000 A 
ATOM     12  C   UNL     1       7.437   2.127  11.210  0.00  0.00    +0.000 A 
ATOM     13  C   UNL     1       7.468   3.215  12.087  0.00  0.00    +0.000 A 
ENDBRANCH   7   8
ENDBRANCH   6   7
ENDBRANCH   5   6
ENDBRANCH   2   5
ENDBRANCH   1   2
BRANCH   1  14
ATOM     14  C   UNL     1       4.044   5.436  17.668  0.00  0.00    +0.000 C 
BRANCH  14  15
ATOM     15  C   UNL     1       3.089   6.562  18.095  0.00  0.00    +0.000 C 
BRANCH  15  16
ATOM     16  C   UNL     1       2.759   6.571  19.595  0.00  0.00    +0.000 C 
BRANCH  16  17
ATOM     17  C   UNL     1       1.691   5.552  19.994  0.00  0.00    +0.000 C 
BRANCH  17  18
ATOM     18  C   UNL     1       2.180   4.685  21.146  0.00  0.00    +0.000 C 
BRANCH  18  19
ATOM     19  C   UNL     1       1.476   3.343  21.167  0.00  0.00    +0.000 C 
BRANCH  19  20
ATOM     20  C   UNL     1       0.690   3.166  19.877  0.00  0.00    +0.000 C 
BRANCH  20  21
ATOM     21  C   UNL     1       1.209   1.962  19.113  0.00  0.00    +0.000 C 
BRANCH  21  22
ATOM     22  C   UNL     1       2.129   2.401  17.983  0.00  0.00    +0.000 C 
BRANCH  22  24
ATOM     23  C   UNL     1       4.209   2.145  19.350  0.00  0.00    +0.000 C 
ATOM     24  C   UNL     1       3.476   1.701  18.098  0.00  0.00    +0.000 C 
ENDBRANCH  22  24
ENDBRANCH  21  22
ENDBRANCH  20  21
ENDBRANCH  19  20
ENDBRANCH  18  19
ENDBRANCH  17  18
ENDBRANCH  16  17
ENDBRANCH  15  16
ENDBRANCH  14  15
ENDBRANCH   1  14
TORSDOF 15
ENDMDL
MODEL 6
REMARK VINA RESULT:      -5.8      2.054      6.929
REMARK  Name = 
REMARK  18 active torsions:
REMARK  status: ('A' for Active; 'I' for Inactive)
REMARK    1  A    between atoms: C_1  and  C_2
REMARK    2  A    between atoms: C_2  and  C_3
REMARK    3  A    between atoms: C_3  and  C_4
REMARK    4  A    between atoms: C_4  and  C_5
REMARK    5  A    between atoms: C_5  and  C_6
REMARK    6  A    between atoms: C_6  and  C_7
REMARK    7  A    between atoms: C_7  and  C_8
REMARK    8  A    between atoms: C_8  and  C_9
REMARK    9  A    between atoms: C_9  and  C_10
REMARK   10  A    between atoms: C_10  and  C_11
REMARK   11  A    between atoms: C_11  and  C_12
REMARK   12  A    between atoms: C_12  and  N_13
REMARK   13  A    between atoms: N_13  and  C_14
REMARK   14  A    between atoms: N_13  and  C_15
REMARK   15  A    between atoms: N_13  and  C_16
REMARK   16  A    between atoms: C_16  and  C_17
REMARK   17  A    between atoms: C_17  and  O_18
REMARK   18  A    between atoms: O_18  and  C_19
REMARK                            x       y       z     vdW  Elec       q    Type
REMARK                         _______ _______ _______ _____ _____    ______ ____
ROOT
ATOM      1  C   UNL     1       1.587   4.411  19.668  0.00  0.00    +0.000 C 
ENDROOT
BRANCH   1   2
ATOM      2  N   UNL     1       2.116   3.094  20.243  0.00  0.00    +0.000 N 
ATOM      3  C   UNL     1       1.346   2.670  21.487  0.00  0.00    +0.000 C 
ATOM      4  C   UNL     1       2.009   1.983  19.194  0.00  0.00    +0.000 C 
BRANCH   2   5
ATOM      5  C   UNL     1       3.642   3.268  20.586  0.00  0.00    +0.000 C 
BRANCH   5   6
ATOM      6  C   UNL     1       4.540   3.063  19.358  0.00  0.00    +0.000 C 
BRANCH   6   7
ATOM      7  O   UNL     1       5.520   4.086  19.226  0.00  0.00    +0.000 OA
BRANCH   7   8
ATOM      8  C   UNL     1       5.895   4.282  17.915  0.00  0.00    +0.000 A 
ATOM      9  C   UNL     1       4.943   3.931  16.960  0.00  0.00    +0.000 A 
ATOM     10  C   UNL     1       5.239   4.046  15.605  0.00  0.00    +0.000 A 
ATOM     11  C   UNL     1       6.485   4.523  15.191  0.00  0.00    +0.000 A 
ATOM     12  C   UNL     1       7.429   4.906  16.134  0.00  0.00    +0.000 A 
ATOM     13  C   UNL     1       7.133   4.795  17.496  0.00  0.00    +0.000 A 
ENDBRANCH   7   8
ENDBRANCH   6   7
ENDBRANCH   5   6
ENDBRANCH   2   5
ENDBRANCH   1   2
BRANCH   1  14
ATOM     14  C   UNL     1       1.665   4.552  18.155  0.00  0.00    +0.000 C 
BRANCH  14  15
ATOM     15  C   UNL     1       2.386   5.862  17.800  0.00  0.00    +0.000 C 
BRANCH  15  16
ATOM     16  C   UNL     1       2.932   6.628  19.015  0.00  0.00    +0.000 C 
BRANCH  16  17
ATOM     17  C   UNL     1       2.158   7.908  19.331  0.00  0.00    +0.000 C 
BRANCH  17  18
ATOM     18  C   UNL     1       1.789   8.642  18.049  0.00  0.00    +0.000 C 
BRANCH  18  19
ATOM     19  C   UNL     1       1.529  10.113  18.306  0.00  0.00    +0.000 C 
BRANCH  19  20
ATOM     20  C   UNL     1       0.107  10.289  18.819  0.00  0.00    +0.000 C 
BRANCH  20  21
ATOM     21  C   UNL     1      -0.880  10.124  17.679  0.00  0.00    +0.000 C 
BRANCH  21  22
ATOM     22  C   UNL     1      -2.259  10.620  18.091  0.00  0.00    +0.000 C 
BRANCH  22  24
ATOM     23  C   UNL     1      -3.263   9.924  15.908  0.00  0.00    +0.000 C 
ATOM     24  C   UNL     1      -3.341   9.788  17.416  0.00  0.00    +0.000 C 
ENDBRANCH  22  24
ENDBRANCH  21  22
ENDBRANCH  20  21
ENDBRANCH  19  20
ENDBRANCH  18  19
ENDBRANCH  17  18
ENDBRANCH  16  17
ENDBRANCH  15  16
ENDBRANCH  14  15
ENDBRANCH   1  14
TORSDOF 15
ENDMDL
MODEL 7
REMARK VINA RESULT:      -5.8      5.859      8.463
REMARK  Name = 
REMARK  18 active torsions:
REMARK  status: ('A' for Active; 'I' for Inactive)
REMARK    1  A    between atoms: C_1  and  C_2
REMARK    2  A    between atoms: C_2  and  C_3
REMARK    3  A    between atoms: C_3  and  C_4
REMARK    4  A    between atoms: C_4  and  C_5
REMARK    5  A    between atoms: C_5  and  C_6
REMARK    6  A    between atoms: C_6  and  C_7
REMARK    7  A    between atoms: C_7  and  C_8
REMARK    8  A    between atoms: C_8  and  C_9
REMARK    9  A    between atoms: C_9  and  C_10
REMARK   10  A    between atoms: C_10  and  C_11
REMARK   11  A    between atoms: C_11  and  C_12
REMARK   12  A    between atoms: C_12  and  N_13
REMARK   13  A    between atoms: N_13  and  C_14
REMARK   14  A    between atoms: N_13  and  C_15
REMARK   15  A    between atoms: N_13  and  C_16
REMARK   16  A    between atoms: C_16  and  C_17
REMARK   17  A    between atoms: C_17  and  O_18
REMARK   18  A    between atoms: O_18  and  C_19
REMARK                            x       y       z     vdW  Elec       q    Type
REMARK                         _______ _______ _______ _____ _____    ______ ____
ROOT
ATOM      1  C   UNL     1       7.272   7.070  17.647  0.00  0.00    +0.000 C 
ENDROOT
BRANCH   1   2
ATOM      2  N   UNL     1       7.155   5.714  18.351  0.00  0.00    +0.000 N 
ATOM      3  C   UNL     1       7.578   4.566  17.442  0.00  0.00    +0.000 C 
ATOM      4  C   UNL     1       8.031   5.697  19.607  0.00  0.00    +0.000 C 
BRANCH   2   5
ATOM      5  C   UNL     1       5.665   5.513  18.817  0.00  0.00    +0.000 C 
BRANCH   5   6
ATOM      6  C   UNL     1       4.661   6.097  17.814  0.00  0.00    +0.000 C 
BRANCH   6   7
ATOM      7  O   UNL     1       4.245   5.142  16.845  0.00  0.00    +0.000 OA
BRANCH   7   8
ATOM      8  C   UNL     1       3.436   4.167  17.388  0.00  0.00    +0.000 A 
ATOM      9  C   UNL     1       2.174   4.593  17.794  0.00  0.00    +0.000 A 
ATOM     10  C   UNL     1       1.296   3.698  18.399  0.00  0.00    +0.000 A 
ATOM     11  C   UNL     1       1.668   2.366  18.593  0.00  0.00    +0.000 A 
ATOM     12  C   UNL     1       2.912   1.922  18.163  0.00  0.00    +0.000 A 
ATOM     13  C   UNL     1       3.794   2.819  17.553  0.00  0.00    +0.000 A 
ENDBRANCH   7   8
ENDBRANCH   6   7
ENDBRANCH   5   6
ENDBRANCH   2   5
ENDBRANCH   1   2
BRANCH   1  14
ATOM     14  C   UNL     1       8.248   8.057  18.271  0.00  0.00    +0.000 C 
BRANCH  14  15
ATOM     15  C   UNL     1       8.016   9.453  17.670  0.00  0.00    +0.000 C 
BRANCH  15  16
ATOM     16  C   UNL     1       8.962  10.536  18.212  0.00  0.00    +0.000 C 
BRANCH  16  17
ATOM     17  C   UNL     1       9.448  10.268  19.636  0.00  0.00    +0.000 C 
BRANCH  17  18
ATOM     18  C   UNL     1      10.251  11.450  20.161  0.00  0.00    +0.000 C 
BRANCH  18  19
ATOM     19  C   UNL     1      11.626  11.513  19.527  0.00  0.00    +0.000 C 
BRANCH  19  20
ATOM     20  C   UNL     1      12.166  12.931  19.638  0.00  0.00    +0.000 C 
BRANCH  20  21
ATOM     21  C   UNL     1      11.160  13.916  19.073  0.00  0.00    +0.000 C 
BRANCH  21  22
ATOM     22  C   UNL     1      10.795  14.965  20.115  0.00  0.00    +0.000 C 
BRANCH  22  24
ATOM     23  C   UNL     1       8.334  14.554  19.932  0.00  0.00    +0.000 C 
ATOM     24  C   UNL     1       9.441  15.581  19.790  0.00  0.00    +0.000 C 
ENDBRANCH  22  24
ENDBRANCH  21  22
ENDBRANCH  20  21
ENDBRANCH  19  20
ENDBRANCH  18  19
ENDBRANCH  17  18
ENDBRANCH  16  17
ENDBRANCH  15  16
ENDBRANCH  14  15
ENDBRANCH   1  14
TORSDOF 15
ENDMDL
MODEL 8
REMARK VINA RESULT:      -5.8      2.296      7.411
REMARK  Name = 
REMARK  18 active torsions:
REMARK  status: ('A' for Active; 'I' for Inactive)
REMARK    1  A    between atoms: C_1  and  C_2
REMARK    2  A    between atoms: C_2  and  C_3
REMARK    3  A    between atoms: C_3  and  C_4
REMARK    4  A    between atoms: C_4  and  C_5
REMARK    5  A    between atoms: C_5  and  C_6
REMARK    6  A    between atoms: C_6  and  C_7
REMARK    7  A    between atoms: C_7  and  C_8
REMARK    8  A    between atoms: C_8  and  C_9
REMARK    9  A    between atoms: C_9  and  C_10
REMARK   10  A    between atoms: C_10  and  C_11
REMARK   11  A    between atoms: C_11  and  C_12
REMARK   12  A    between atoms: C_12  and  N_13
REMARK   13  A    between atoms: N_13  and  C_14
REMARK   14  A    between atoms: N_13  and  C_15
REMARK   15  A    between atoms: N_13  and  C_16
REMARK   16  A    between atoms: C_16  and  C_17
REMARK   17  A    between atoms: C_17  and  O_18
REMARK   18  A    between atoms: O_18  and  C_19
REMARK                            x       y       z     vdW  Elec       q    Type
REMARK                         _______ _______ _______ _____ _____    ______ ____
ROOT
ATOM      1  C   UNL     1       5.001   5.872  16.263  0.00  0.00    +0.000 C 
ENDROOT
BRANCH   1   2
ATOM      2  N   UNL     1       5.804   4.623  16.642  0.00  0.00    +0.000 N 
ATOM      3  C   UNL     1       6.004   3.696  15.450  0.00  0.00    +0.000 C 
ATOM      4  C   UNL     1       7.176   5.027  17.189  0.00  0.00    +0.000 C 
BRANCH   2   5
ATOM      5  C   UNL     1       5.045   3.866  17.795  0.00  0.00    +0.000 C 
BRANCH   5   6
ATOM      6  C   UNL     1       3.998   2.884  17.253  0.00  0.00    +0.000 C 
BRANCH   6   7
ATOM      7  O   UNL     1       3.711   1.837  18.172  0.00  0.00    +0.000 OA
BRANCH   7   8
ATOM      8  C   UNL     1       2.924   2.265  19.219  0.00  0.00    +0.000 A 
ATOM      9  C   UNL     1       1.606   2.574  18.892  0.00  0.00    +0.000 A 
ATOM     10  C   UNL     1       0.740   3.061  19.867  0.00  0.00    +0.000 A 
ATOM     11  C   UNL     1       1.180   3.232  21.181  0.00  0.00    +0.000 A 
ATOM     12  C   UNL     1       2.483   2.896  21.526  0.00  0.00    +0.000 A 
ATOM     13  C   UNL     1       3.353   2.404  20.549  0.00  0.00    +0.000 A 
ENDBRANCH   7   8
ENDBRANCH   6   7
ENDBRANCH   5   6
ENDBRANCH   2   5
ENDBRANCH   1   2
BRANCH   1  14
ATOM     14  C   UNL     1       5.078   7.032  17.244  0.00  0.00    +0.000 C 
BRANCH  14  15
ATOM     15  C   UNL     1       3.656   7.488  17.609  0.00  0.00    +0.000 C 
BRANCH  15  16
ATOM     16  C   UNL     1       2.748   6.361  18.124  0.00  0.00    +0.000 C 
BRANCH  16  17
ATOM     17  C   UNL     1       2.457   6.444  19.622  0.00  0.00    +0.000 C 
BRANCH  17  18
ATOM     18  C   UNL     1       1.855   7.797  19.978  0.00  0.00    +0.000 C 
BRANCH  18  19
ATOM     19  C   UNL     1       1.018   7.718  21.239  0.00  0.00    +0.000 C 
BRANCH  19  20
ATOM     20  C   UNL     1       1.253   8.966  22.076  0.00  0.00    +0.000 C 
BRANCH  20  21
ATOM     21  C   UNL     1      -0.017   9.792  22.146  0.00  0.00    +0.000 C 
BRANCH  21  22
ATOM     22  C   UNL     1       0.070  10.986  21.205  0.00  0.00    +0.000 C 
BRANCH  22  24
ATOM     23  C   UNL     1      -0.080  11.535  18.769  0.00  0.00    +0.000 C 
ATOM     24  C   UNL     1      -0.627  10.670  19.889  0.00  0.00    +0.000 C 
ENDBRANCH  22  24
ENDBRANCH  21  22
ENDBRANCH  20  21
ENDBRANCH  19  20
ENDBRANCH  18  19
ENDBRANCH  17  18
ENDBRANCH  16  17
ENDBRANCH  15  16
ENDBRANCH  14  15
ENDBRANCH   1  14
TORSDOF 15
ENDMDL
MODEL 9
REMARK VINA RESULT:      -5.7      5.924      8.612
REMARK  Name = 
REMARK  18 active torsions:
REMARK  status: ('A' for Active; 'I' for Inactive)
REMARK    1  A    between atoms: C_1  and  C_2
REMARK    2  A    between atoms: C_2  and  C_3
REMARK    3  A    between atoms: C_3  and  C_4
REMARK    4  A    between atoms: C_4  and  C_5
REMARK    5  A    between atoms: C_5  and  C_6
REMARK    6  A    between atoms: C_6  and  C_7
REMARK    7  A    between atoms: C_7  and  C_8
REMARK    8  A    between atoms: C_8  and  C_9
REMARK    9  A    between atoms: C_9  and  C_10
REMARK   10  A    between atoms: C_10  and  C_11
REMARK   11  A    between atoms: C_11  and  C_12
REMARK   12  A    between atoms: C_12  and  N_13
REMARK   13  A    between atoms: N_13  and  C_14
REMARK   14  A    between atoms: N_13  and  C_15
REMARK   15  A    between atoms: N_13  and  C_16
REMARK   16  A    between atoms: C_16  and  C_17
REMARK   17  A    between atoms: C_17  and  O_18
REMARK   18  A    between atoms: O_18  and  C_19
REMARK                            x       y       z     vdW  Elec       q    Type
REMARK                         _______ _______ _______ _____ _____    ______ ____
ROOT
ATOM      1  C   UNL     1       6.078   6.750  17.075  0.00  0.00    +0.000 C 
ENDROOT
BRANCH   1   2
ATOM      2  N   UNL     1       5.240   5.697  17.807  0.00  0.00    +0.000 N 
ATOM      3  C   UNL     1       5.914   5.231  19.092  0.00  0.00    +0.000 C 
ATOM      4  C   UNL     1       3.862   6.269  18.152  0.00  0.00    +0.000 C 
BRANCH   2   5
ATOM      5  C   UNL     1       5.011   4.474  16.843  0.00  0.00    +0.000 C 
BRANCH   5   6
ATOM      6  C   UNL     1       3.667   3.779  17.096  0.00  0.00    +0.000 C 
BRANCH   6   7
ATOM      7  O   UNL     1       3.795   2.643  17.942  0.00  0.00    +0.000 OA
BRANCH   7   8
ATOM      8  C   UNL     1       3.003   2.739  19.066  0.00  0.00    +0.000 A 
ATOM      9  C   UNL     1       1.674   3.088  18.836  0.00  0.00    +0.000 A 
ATOM     10  C   UNL     1       0.801   3.258  19.907  0.00  0.00    +0.000 A 
ATOM     11  C   UNL     1       1.245   3.069  21.217  0.00  0.00    +0.000 A 
ATOM     12  C   UNL     1       2.559   2.689  21.457  0.00  0.00    +0.000 A 
ATOM     13  C   UNL     1       3.437   2.515  20.383  0.00  0.00    +0.000 A 
ENDBRANCH   7   8
ENDBRANCH   6   7
ENDBRANCH   5   6
ENDBRANCH   2   5
ENDBRANCH   1   2
BRANCH   1  14
ATOM     14  C   UNL     1       7.460   7.017  17.655  0.00  0.00    +0.000 C 
BRANCH  14  15
ATOM     15  C   UNL     1       7.735   8.529  17.642  0.00  0.00    +0.000 C 
BRANCH  15  16
ATOM     16  C   UNL     1       8.785   8.986  18.666  0.00  0.00    +0.000 C 
BRANCH  16  17
ATOM     17  C   UNL     1       9.162  10.462  18.540  0.00  0.00    +0.000 C 
BRANCH  17  18
ATOM     18  C   UNL     1       9.669  11.002  19.871  0.00  0.00    +0.000 C 
BRANCH  18  19
ATOM     19  C   UNL     1       9.233  12.437  20.090  0.00  0.00    +0.000 C 
BRANCH  19  20
ATOM     20  C   UNL     1       8.901  12.642  21.561  0.00  0.00    +0.000 C 
BRANCH  20  21
ATOM     21  C   UNL     1       9.588  13.891  22.080  0.00  0.00    +0.000 C 
BRANCH  21  22
ATOM     22  C   UNL     1      10.507  14.475  21.017  0.00  0.00    +0.000 C 
BRANCH  22  24
ATOM     23  C   UNL     1      10.771  16.429  22.558  0.00  0.00    +0.000 C 
ATOM     24  C   UNL     1      10.536  15.994  21.124  0.00  0.00    +0.000 C 
ENDBRANCH  22  24
ENDBRANCH  21  22
ENDBRANCH  20  21
ENDBRANCH  19  20
ENDBRANCH  18  19
ENDBRANCH  17  18
ENDBRANCH  16  17
ENDBRANCH  15  16
ENDBRANCH  14  15
ENDBRANCH   1  14
TORSDOF 15
ENDMDL
