MODEL 1
REMARK VINA RESULT:      -7.3      0.000      0.000
REMARK  Name = 
REMARK  5 active torsions:
REMARK  status: ('A' for Active; 'I' for Inactive)
REMARK    1  A    between atoms: C_1  and  N_2
REMARK    2  A    between atoms: C_3  and  C_4
REMARK    3  A    between atoms: C_4  and  N_5
REMARK    4  A    between atoms: C_14  and  C_15
REMARK    5  A    between atoms: C_19  and  C_21
REMARK                            x       y       z     vdW  Elec       q    Type
REMARK                         _______ _______ _______ _____ _____    ______ ____
ROOT
ATOM      1  C   UNL     1       1.379   8.291  20.935  0.00  0.00    +0.000 C 
ATOM      2  N   UNL     1       1.701   8.549  19.553  0.00  0.00    +0.000 N 
ATOM      3  C   UNL     1       2.437   7.771  18.710  0.00  0.00    +0.000 A 
ATOM      4  N   UNL     1       2.484   8.363  17.533  0.00  0.00    +0.000 NA
ATOM      5  N   UNL     1       1.770   9.550  17.608  0.00  0.00    +0.000 NA
ATOM      6  C   UNL     1       1.301   9.653  18.832  0.00  0.00    +0.000 A 
ENDROOT
BRANCH   6   7
ATOM      7  C   UNL     1       0.522  10.722  19.493  0.00  0.00    +0.000 C 
ATOM      8  C   UNL     1       0.867  12.123  18.990  0.00  0.00    +0.000 C 
ATOM      9  C   UNL     1       0.530  13.070  20.134  0.00  0.00    +0.000 C 
ATOM     10  N   UNL     1      -0.888  12.944  20.499  0.00  0.00    +0.000 N 
ATOM     11  C   UNL     1      -1.654  14.099  20.458  0.00  0.00    +0.000 C 
ATOM     12  O   UNL     1      -1.201  15.149  19.996  0.00  0.00    +0.000 OA
ATOM     13  C   UNL     1      -1.390  11.576  20.748  0.00  0.00    +0.000 C 
ATOM     14  C   UNL     1      -0.984  10.594  19.630  0.00  0.00    +0.000 C 
BRANCH  11  15
ATOM     15  C   UNL     1      -3.024  14.073  20.926  0.00  0.00    +0.000 A 
ATOM     16  C   UNL     1      -3.608  14.272  22.161  0.00  0.00    +0.000 A 
ATOM     17  C   UNL     1      -5.006  14.064  22.020  0.00  0.00    +0.000 A 
ATOM     18  C   UNL     1      -5.249  13.834  20.687  0.00  0.00    +0.000 A 
ATOM     19  N   UNL     1      -4.054  13.895  20.029  0.00  0.00    +0.000 N 
ATOM     20  H   UNL     1      -3.907  13.793  19.031  0.00  0.00    +0.000 HD
ENDBRANCH  11  15
ENDBRANCH   6   7
BRANCH   3  21
ATOM     21  C   UNL     1       3.080   6.490  19.137  0.00  0.00    +0.000 C 
BRANCH  21  22
ATOM     22  N   UNL     1       2.343   5.275  18.686  0.00  0.00    +0.000 NA
ATOM     23  C   UNL     1       3.267   4.334  18.045  0.00  0.00    +0.000 C 
ATOM     24  C   UNL     1       2.612   3.228  17.212  0.00  0.00    +0.000 C 
ATOM     25  C   UNL     1       2.067   2.058  18.012  0.00  0.00    +0.000 C 
ATOM     26  C   UNL     1       0.892   2.432  18.898  0.00  0.00    +0.000 C 
ATOM     27  C   UNL     1       1.325   3.288  20.075  0.00  0.00    +0.000 C 
ATOM     28  C   UNL     1       1.503   4.779  19.786  0.00  0.00    +0.000 C 
ENDBRANCH  21  22
ENDBRANCH   3  21
TORSDOF 4
ENDMDL
MODEL 2
REMARK VINA RESULT:      -7.2      1.424      1.736
REMARK  Name = 
REMARK  5 active torsions:
REMARK  status: ('A' for Active; 'I' for Inactive)
REMARK    1  A    between atoms: C_1  and  N_2
REMARK    2  A    between atoms: C_3  and  C_4
REMARK    3  A    between atoms: C_4  and  N_5
REMARK    4  A    between atoms: C_14  and  C_15
REMARK    5  A    between atoms: C_19  and  C_21
REMARK                            x       y       z     vdW  Elec       q    Type
REMARK                         _______ _______ _______ _____ _____    ______ ____
ROOT
ATOM      1  C   UNL     1       0.853   8.165  21.056  0.00  0.00    +0.000 C 
ATOM      2  N   UNL     1       1.375   8.504  19.755  0.00  0.00    +0.000 N 
ATOM      3  C   UNL     1       2.276   7.801  19.011  0.00  0.00    +0.000 A 
ATOM      4  N   UNL     1       2.477   8.450  17.881  0.00  0.00    +0.000 NA
ATOM      5  N   UNL     1       1.698   9.598  17.888  0.00  0.00    +0.000 NA
ATOM      6  C   UNL     1       1.036   9.621  19.024  0.00  0.00    +0.000 A 
ENDROOT
BRANCH   6   7
ATOM      7  C   UNL     1       0.107  10.620  19.593  0.00  0.00    +0.000 C 
ATOM      8  C   UNL     1      -1.223  10.707  18.845  0.00  0.00    +0.000 C 
ATOM      9  C   UNL     1      -1.744  12.117  19.086  0.00  0.00    +0.000 C 
ATOM     10  N   UNL     1      -1.900  12.364  20.526  0.00  0.00    +0.000 N 
ATOM     11  C   UNL     1      -3.157  12.750  20.967  0.00  0.00    +0.000 C 
ATOM     12  O   UNL     1      -4.129  12.742  20.209  0.00  0.00    +0.000 OA
ATOM     13  C   UNL     1      -0.735  12.052  21.383  0.00  0.00    +0.000 C 
ATOM     14  C   UNL     1      -0.155  10.654  21.088  0.00  0.00    +0.000 C 
BRANCH  11  15
ATOM     15  C   UNL     1      -3.350  13.131  22.350  0.00  0.00    +0.000 A 
ATOM     16  C   UNL     1      -3.096  14.289  23.059  0.00  0.00    +0.000 A 
ATOM     17  C   UNL     1      -3.449  14.055  24.414  0.00  0.00    +0.000 A 
ATOM     18  C   UNL     1      -3.993  12.795  24.481  0.00  0.00    +0.000 A 
ATOM     19  N   UNL     1      -3.979  12.268  23.220  0.00  0.00    +0.000 N 
ATOM     20  H   UNL     1      -4.337  11.363  22.940  0.00  0.00    +0.000 HD
ENDBRANCH  11  15
ENDBRANCH   6   7
BRANCH   3  21
ATOM     21  C   UNL     1       2.909   6.533  19.484  0.00  0.00    +0.000 C 
BRANCH  21  22
ATOM     22  N   UNL     1       2.255   5.304  18.949  0.00  0.00    +0.000 NA
ATOM     23  C   UNL     1       3.225   4.505  18.193  0.00  0.00    +0.000 C 
ATOM     24  C   UNL     1       2.628   3.426  17.286  0.00  0.00    +0.000 C 
ATOM     25  C   UNL     1       2.213   2.147  17.993  0.00  0.00    +0.000 C 
ATOM     26  C   UNL     1       1.049   2.342  18.949  0.00  0.00    +0.000 C 
ATOM     27  C   UNL     1       1.460   3.123  20.184  0.00  0.00    +0.000 C 
ATOM     28  C   UNL     1       1.505   4.643  20.027  0.00  0.00    +0.000 C 
ENDBRANCH  21  22
ENDBRANCH   3  21
TORSDOF 4
ENDMDL
MODEL 3
REMARK VINA RESULT:      -7.2      3.239      9.884
REMARK  Name = 
REMARK  5 active torsions:
REMARK  status: ('A' for Active; 'I' for Inactive)
REMARK    1  A    between atoms: C_1  and  N_2
REMARK    2  A    between atoms: C_3  and  C_4
REMARK    3  A    between atoms: C_4  and  N_5
REMARK    4  A    between atoms: C_14  and  C_15
REMARK    5  A    between atoms: C_19  and  C_21
REMARK                            x       y       z     vdW  Elec       q    Type
REMARK                         _______ _______ _______ _____ _____    ______ ____
ROOT
ATOM      1  C   UNL     1       1.808  12.509  20.185  0.00  0.00    +0.000 C 
ATOM      2  N   UNL     1       0.536  12.316  19.532  0.00  0.00    +0.000 N 
ATOM      3  C   UNL     1      -0.427  13.250  19.291  0.00  0.00    +0.000 A 
ATOM      4  N   UNL     1      -1.427  12.663  18.663  0.00  0.00    +0.000 NA
ATOM      5  N   UNL     1      -1.115  11.322  18.495  0.00  0.00    +0.000 NA
ATOM      6  C   UNL     1       0.073  11.122  19.023  0.00  0.00    +0.000 A 
ENDROOT
BRANCH   6   7
ATOM      7  C   UNL     1       0.879   9.892  19.178  0.00  0.00    +0.000 C 
ATOM      8  C   UNL     1       0.391   8.987  20.309  0.00  0.00    +0.000 C 
ATOM      9  C   UNL     1       1.609   8.190  20.758  0.00  0.00    +0.000 C 
ATOM     10  N   UNL     1       2.161   7.425  19.632  0.00  0.00    +0.000 N 
ATOM     11  C   UNL     1       2.274   6.053  19.798  0.00  0.00    +0.000 C 
ATOM     12  O   UNL     1       1.797   5.488  20.785  0.00  0.00    +0.000 OA
ATOM     13  C   UNL     1       2.421   8.175  18.384  0.00  0.00    +0.000 C 
ATOM     14  C   UNL     1       1.218   9.045  17.966  0.00  0.00    +0.000 C 
BRANCH  11  15
ATOM     15  C   UNL     1       2.926   5.255  18.781  0.00  0.00    +0.000 A 
ATOM     16  C   UNL     1       4.225   5.184  18.319  0.00  0.00    +0.000 A 
ATOM     17  C   UNL     1       4.259   4.241  17.258  0.00  0.00    +0.000 A 
ATOM     18  C   UNL     1       3.002   3.695  17.161  0.00  0.00    +0.000 A 
ATOM     19  N   UNL     1       2.220   4.274  18.120  0.00  0.00    +0.000 N 
ATOM     20  H   UNL     1       1.250   4.061  18.318  0.00  0.00    +0.000 HD
ENDBRANCH  11  15
ENDBRANCH   6   7
BRANCH   3  21
ATOM     21  C   UNL     1      -0.307  14.674  19.728  0.00  0.00    +0.000 C 
BRANCH  21  22
ATOM     22  N   UNL     1       0.101  15.601  18.633  0.00  0.00    +0.000 NA
ATOM     23  C   UNL     1      -0.640  16.862  18.739  0.00  0.00    +0.000 C 
ATOM     24  C   UNL     1      -0.607  17.754  17.494  0.00  0.00    +0.000 C 
ATOM     25  C   UNL     1       0.658  18.578  17.325  0.00  0.00    +0.000 C 
ATOM     26  C   UNL     1       1.892  17.733  17.060  0.00  0.00    +0.000 C 
ATOM     27  C   UNL     1       2.323  16.964  18.297  0.00  0.00    +0.000 C 
ATOM     28  C   UNL     1       1.568  15.664  18.570  0.00  0.00    +0.000 C 
ENDBRANCH  21  22
ENDBRANCH   3  21
TORSDOF 4
ENDMDL
MODEL 4
REMARK VINA RESULT:      -7.1      1.994      2.865
REMARK  Name = 
REMARK  5 active torsions:
REMARK  status: ('A' for Active; 'I' for Inactive)
REMARK    1  A    between atoms: C_1  and  N_2
REMARK    2  A    between atoms: C_3  and  C_4
REMARK    3  A    between atoms: C_4  and  N_5
REMARK    4  A    between atoms: C_14  and  C_15
REMARK    5  A    between atoms: C_19  and  C_21
REMARK                            x       y       z     vdW  Elec       q    Type
REMARK                         _______ _______ _______ _____ _____    ______ ____
ROOT
ATOM      1  C   UNL     1       1.708   7.671  20.656  0.00  0.00    +0.000 C 
ATOM      2  N   UNL     1       1.971   8.130  19.314  0.00  0.00    +0.000 N 
ATOM      3  C   UNL     1       2.631   7.467  18.322  0.00  0.00    +0.000 A 
ATOM      4  N   UNL     1       2.645   8.233  17.249  0.00  0.00    +0.000 NA
ATOM      5  N   UNL     1       1.987   9.418  17.545  0.00  0.00    +0.000 NA
ATOM      6  C   UNL     1       1.584   9.346  18.795  0.00  0.00    +0.000 A 
ENDROOT
BRANCH   6   7
ATOM      7  C   UNL     1       0.885  10.325  19.654  0.00  0.00    +0.000 C 
ATOM      8  C   UNL     1       1.060  11.771  19.192  0.00  0.00    +0.000 C 
ATOM      9  C   UNL     1       0.890  12.630  20.438  0.00  0.00    +0.000 C 
ATOM     10  N   UNL     1      -0.429  12.395  21.043  0.00  0.00    +0.000 N 
ATOM     11  C   UNL     1      -1.248  13.501  21.217  0.00  0.00    +0.000 C 
ATOM     12  O   UNL     1      -0.942  14.601  20.751  0.00  0.00    +0.000 OA
ATOM     13  C   UNL     1      -0.805  10.986  21.287  0.00  0.00    +0.000 C 
ATOM     14  C   UNL     1      -0.562  10.095  20.052  0.00  0.00    +0.000 C 
BRANCH  11  15
ATOM     15  C   UNL     1      -2.505  13.363  21.920  0.00  0.00    +0.000 A 
ATOM     16  C   UNL     1      -3.785  13.035  21.520  0.00  0.00    +0.000 A 
ATOM     17  C   UNL     1      -4.630  13.111  22.658  0.00  0.00    +0.000 A 
ATOM     18  C   UNL     1      -3.830  13.393  23.739  0.00  0.00    +0.000 A 
ATOM     19  N   UNL     1      -2.544  13.489  23.291  0.00  0.00    +0.000 N 
ATOM     20  H   UNL     1      -1.719  13.663  23.854  0.00  0.00    +0.000 HD
ENDBRANCH  11  15
ENDBRANCH   6   7
BRANCH   3  21
ATOM     21  C   UNL     1       3.238   6.114  18.511  0.00  0.00    +0.000 C 
BRANCH  21  22
ATOM     22  N   UNL     1       4.636   6.012  18.003  0.00  0.00    +0.000 NA
ATOM     23  C   UNL     1       5.505   5.432  19.031  0.00  0.00    +0.000 C 
ATOM     24  C   UNL     1       7.009   5.606  18.801  0.00  0.00    +0.000 C 
ATOM     25  C   UNL     1       7.626   4.633  17.812  0.00  0.00    +0.000 C 
ATOM     26  C   UNL     1       7.132   4.829  16.390  0.00  0.00    +0.000 C 
ATOM     27  C   UNL     1       5.689   4.382  16.230  0.00  0.00    +0.000 C 
ATOM     28  C   UNL     1       4.627   5.388  16.672  0.00  0.00    +0.000 C 
ENDBRANCH  21  22
ENDBRANCH   3  21
TORSDOF 4
ENDMDL
MODEL 5
REMARK VINA RESULT:      -7.1      1.329      1.754
REMARK  Name = 
REMARK  5 active torsions:
REMARK  status: ('A' for Active; 'I' for Inactive)
REMARK    1  A    between atoms: C_1  and  N_2
REMARK    2  A    between atoms: C_3  and  C_4
REMARK    3  A    between atoms: C_4  and  N_5
REMARK    4  A    between atoms: C_14  and  C_15
REMARK    5  A    between atoms: C_19  and  C_21
REMARK                            x       y       z     vdW  Elec       q    Type
REMARK                         _______ _______ _______ _____ _____    ______ ____
ROOT
ATOM      1  C   UNL     1       0.986   8.303  20.887  0.00  0.00    +0.000 C 
ATOM      2  N   UNL     1       1.528   8.549  19.573  0.00  0.00    +0.000 N 
ATOM      3  C   UNL     1       2.387   7.761  18.866  0.00  0.00    +0.000 A 
ATOM      4  N   UNL     1       2.627   8.344  17.707  0.00  0.00    +0.000 NA
ATOM      5  N   UNL     1       1.917   9.534  17.658  0.00  0.00    +0.000 NA
ATOM      6  C   UNL     1       1.256   9.649  18.790  0.00  0.00    +0.000 A 
ENDROOT
BRANCH   6   7
ATOM      7  C   UNL     1       0.386  10.726  19.309  0.00  0.00    +0.000 C 
ATOM      8  C   UNL     1      -1.095  10.512  18.999  0.00  0.00    +0.000 C 
ATOM      9  C   UNL     1      -1.721  11.900  18.981  0.00  0.00    +0.000 C 
ATOM     10  N   UNL     1      -1.514  12.568  20.274  0.00  0.00    +0.000 N 
ATOM     11  C   UNL     1      -2.646  13.007  20.944  0.00  0.00    +0.000 C 
ATOM     12  O   UNL     1      -3.776  12.717  20.545  0.00  0.00    +0.000 OA
ATOM     13  C   UNL     1      -0.130  12.593  20.794  0.00  0.00    +0.000 C 
ATOM     14  C   UNL     1       0.536  11.203  20.742  0.00  0.00    +0.000 C 
BRANCH  11  15
ATOM     15  C   UNL     1      -2.510  13.784  22.158  0.00  0.00    +0.000 A 
ATOM     16  C   UNL     1      -2.428  13.448  23.495  0.00  0.00    +0.000 A 
ATOM     17  C   UNL     1      -2.357  14.653  24.243  0.00  0.00    +0.000 A 
ATOM     18  C   UNL     1      -2.307  15.688  23.340  0.00  0.00    +0.000 A 
ATOM     19  N   UNL     1      -2.345  15.149  22.086  0.00  0.00    +0.000 N 
ATOM     20  H   UNL     1      -2.297  15.655  21.209  0.00  0.00    +0.000 HD
ENDBRANCH  11  15
ENDBRANCH   6   7
BRANCH   3  21
ATOM     21  C   UNL     1       2.945   6.481  19.399  0.00  0.00    +0.000 C 
BRANCH  21  22
ATOM     22  N   UNL     1       2.258   5.266  18.873  0.00  0.00    +0.000 NA
ATOM     23  C   UNL     1       3.213   4.422  18.148  0.00  0.00    +0.000 C 
ATOM     24  C   UNL     1       2.595   3.348  17.249  0.00  0.00    +0.000 C 
ATOM     25  C   UNL     1       2.123   2.097  17.969  0.00  0.00    +0.000 C 
ATOM     26  C   UNL     1       0.950   2.348  18.900  0.00  0.00    +0.000 C 
ATOM     27  C   UNL     1       1.367   3.136  20.130  0.00  0.00    +0.000 C 
ATOM     28  C   UNL     1       1.466   4.650  19.948  0.00  0.00    +0.000 C 
ENDBRANCH  21  22
ENDBRANCH   3  21
TORSDOF 4
ENDMDL
MODEL 6
REMARK VINA RESULT:      -7.0      3.569      9.797
REMARK  Name = 
REMARK  5 active torsions:
REMARK  status: ('A' for Active; 'I' for Inactive)
REMARK    1  A    between atoms: C_1  and  N_2
REMARK    2  A    between atoms: C_3  and  C_4
REMARK    3  A    between atoms: C_4  and  N_5
REMARK    4  A    between atoms: C_14  and  C_15
REMARK    5  A    between atoms: C_19  and  C_21
REMARK                            x       y       z     vdW  Elec       q    Type
REMARK                         _______ _______ _______ _____ _____    ______ ____
ROOT
ATOM      1  C   UNL     1       1.506   9.583  18.001  0.00  0.00    +0.000 C 
ATOM      2  N   UNL     1       1.063   9.276  19.339  0.00  0.00    +0.000 N 
ATOM      3  C   UNL     1       0.179   9.977  20.104  0.00  0.00    +0.000 A 
ATOM      4  N   UNL     1       0.043   9.353  21.258  0.00  0.00    +0.000 NA
ATOM      5  N   UNL     1       0.855   8.228  21.248  0.00  0.00    +0.000 NA
ATOM      6  C   UNL     1       1.466   8.190  20.085  0.00  0.00    +0.000 A 
ENDROOT
BRANCH   6   7
ATOM      7  C   UNL     1       2.477   7.258  19.542  0.00  0.00    +0.000 C 
ATOM      8  C   UNL     1       2.190   5.793  19.872  0.00  0.00    +0.000 C 
ATOM      9  C   UNL     1       3.541   5.091  19.854  0.00  0.00    +0.000 C 
ATOM     10  N   UNL     1       4.180   5.249  18.540  0.00  0.00    +0.000 N 
ATOM     11  C   UNL     1       4.533   4.089  17.867  0.00  0.00    +0.000 C 
ATOM     12  O   UNL     1       4.194   2.980  18.286  0.00  0.00    +0.000 OA
ATOM     13  C   UNL     1       4.265   6.625  18.005  0.00  0.00    +0.000 C 
ATOM     14  C   UNL     1       2.917   7.369  18.093  0.00  0.00    +0.000 C 
BRANCH  11  15
ATOM     15  C   UNL     1       5.279   4.172  16.629  0.00  0.00    +0.000 A 
ATOM     16  C   UNL     1       4.907   4.258  15.302  0.00  0.00    +0.000 A 
ATOM     17  C   UNL     1       6.091   4.257  14.518  0.00  0.00    +0.000 A 
ATOM     18  C   UNL     1       7.154   4.263  15.388  0.00  0.00    +0.000 A 
ATOM     19  N   UNL     1       6.653   4.267  16.658  0.00  0.00    +0.000 N 
ATOM     20  H   UNL     1       7.187   4.297  17.519  0.00  0.00    +0.000 HD
ENDBRANCH  11  15
ENDBRANCH   6   7
BRANCH   3  21
ATOM     21  C   UNL     1      -0.460  11.250  19.651  0.00  0.00    +0.000 C 
BRANCH  21  22
ATOM     22  N   UNL     1      -1.921  11.122  19.385  0.00  0.00    +0.000 NA
ATOM     23  C   UNL     1      -2.591  12.404  19.622  0.00  0.00    +0.000 C 
ATOM     24  C   UNL     1      -4.116  12.339  19.750  0.00  0.00    +0.000 C 
ATOM     25  C   UNL     1      -4.870  12.254  18.435  0.00  0.00    +0.000 C 
ATOM     26  C   UNL     1      -4.627  10.954  17.688  0.00  0.00    +0.000 C 
ATOM     27  C   UNL     1      -3.223  10.891  17.113  0.00  0.00    +0.000 C 
ATOM     28  C   UNL     1      -2.123  10.465  18.085  0.00  0.00    +0.000 C 
ENDBRANCH  21  22
ENDBRANCH   3  21
TORSDOF 4
ENDMDL
MODEL 7
REMARK VINA RESULT:      -6.9      1.764      2.362
REMARK  Name = 
REMARK  5 active torsions:
REMARK  status: ('A' for Active; 'I' for Inactive)
REMARK    1  A    between atoms: C_1  and  N_2
REMARK    2  A    between atoms: C_3  and  C_4
REMARK    3  A    between atoms: C_4  and  N_5
REMARK    4  A    between atoms: C_14  and  C_15
REMARK    5  A    between atoms: C_19  and  C_21
REMARK                            x       y       z     vdW  Elec       q    Type
REMARK                         _______ _______ _______ _____ _____    ______ ____
ROOT
ATOM      1  C   UNL     1       1.848   9.510  18.209  0.00  0.00    +0.000 C 
ATOM      2  N   UNL     1       1.816   8.468  19.206  0.00  0.00    +0.000 N 
ATOM      3  C   UNL     1       2.429   7.251  19.158  0.00  0.00    +0.000 A 
ATOM      4  N   UNL     1       2.156   6.605  20.275  0.00  0.00    +0.000 NA
ATOM      5  N   UNL     1       1.348   7.410  21.063  0.00  0.00    +0.000 NA
ATOM      6  C   UNL     1       1.149   8.534  20.409  0.00  0.00    +0.000 A 
ENDROOT
BRANCH   6   7
ATOM      7  C   UNL     1       0.335   9.724  20.736  0.00  0.00    +0.000 C 
ATOM      8  C   UNL     1      -0.748  10.021  19.700  0.00  0.00    +0.000 C 
ATOM      9  C   UNL     1      -1.017  11.517  19.797  0.00  0.00    +0.000 C 
ATOM     10  N   UNL     1      -1.438  11.872  21.160  0.00  0.00    +0.000 N 
ATOM     11  C   UNL     1      -2.658  12.517  21.294  0.00  0.00    +0.000 C 
ATOM     12  O   UNL     1      -3.418  12.652  20.332  0.00  0.00    +0.000 OA
ATOM     13  C   UNL     1      -0.581  11.392  22.265  0.00  0.00    +0.000 C 
ATOM     14  C   UNL     1      -0.241   9.894  22.130  0.00  0.00    +0.000 C 
BRANCH  11  15
ATOM     15  C   UNL     1      -3.076  13.008  22.590  0.00  0.00    +0.000 A 
ATOM     16  C   UNL     1      -2.846  14.183  23.278  0.00  0.00    +0.000 A 
ATOM     17  C   UNL     1      -3.477  14.076  24.546  0.00  0.00    +0.000 A 
ATOM     18  C   UNL     1      -4.150  12.878  24.564  0.00  0.00    +0.000 A 
ATOM     19  N   UNL     1      -3.946  12.267  23.359  0.00  0.00    +0.000 N 
ATOM     20  H   UNL     1      -4.334  11.381  23.057  0.00  0.00    +0.000 HD
ENDBRANCH  11  15
ENDBRANCH   6   7
BRANCH   3  21
ATOM     21  C   UNL     1       3.231   6.788  17.984  0.00  0.00    +0.000 C 
BRANCH  21  22
ATOM     22  N   UNL     1       3.219   5.308  17.801  0.00  0.00    +0.000 NA
ATOM     23  C   UNL     1       4.128   4.674  18.761  0.00  0.00    +0.000 C 
ATOM     24  C   UNL     1       4.501   3.221  18.456  0.00  0.00    +0.000 C 
ATOM     25  C   UNL     1       3.458   2.191  18.851  0.00  0.00    +0.000 C 
ATOM     26  C   UNL     1       2.177   2.294  18.041  0.00  0.00    +0.000 C 
ATOM     27  C   UNL     1       1.379   3.532  18.409  0.00  0.00    +0.000 C 
ATOM     28  C   UNL     1       1.828   4.836  17.748  0.00  0.00    +0.000 C 
ENDBRANCH  21  22
ENDBRANCH   3  21
TORSDOF 4
ENDMDL
MODEL 8
REMARK VINA RESULT:      -6.9      1.531      2.297
REMARK  Name = 
REMARK  5 active torsions:
REMARK  status: ('A' for Active; 'I' for Inactive)
REMARK    1  A    between atoms: C_1  and  N_2
REMARK    2  A    between atoms: C_3  and  C_4
REMARK    3  A    between atoms: C_4  and  N_5
REMARK    4  A    between atoms: C_14  and  C_15
REMARK    5  A    between atoms: C_19  and  C_21
REMARK                            x       y       z     vdW  Elec       q    Type
REMARK                         _______ _______ _______ _____ _____    ______ ____
ROOT
ATOM      1  C   UNL     1       1.533   7.987  20.696  0.00  0.00    +0.000 C 
ATOM      2  N   UNL     1       1.855   8.380  19.347  0.00  0.00    +0.000 N 
ATOM      3  C   UNL     1       2.577   7.681  18.426  0.00  0.00    +0.000 A 
ATOM      4  N   UNL     1       2.629   8.390  17.314  0.00  0.00    +0.000 NA
ATOM      5  N   UNL     1       1.933   9.573  17.513  0.00  0.00    +0.000 NA
ATOM      6  C   UNL     1       1.468   9.557  18.744  0.00  0.00    +0.000 A 
ENDROOT
BRANCH   6   7
ATOM      7  C   UNL     1       0.706  10.564  19.513  0.00  0.00    +0.000 C 
ATOM      8  C   UNL     1       1.153  12.000  19.242  0.00  0.00    +0.000 C 
ATOM      9  C   UNL     1       0.796  12.790  20.494  0.00  0.00    +0.000 C 
ATOM     10  N   UNL     1      -0.646  12.697  20.761  0.00  0.00    +0.000 N 
ATOM     11  C   UNL     1      -1.348  13.890  20.851  0.00  0.00    +0.000 C 
ATOM     12  O   UNL     1      -0.815  14.966  20.573  0.00  0.00    +0.000 OA
ATOM     13  C   UNL     1      -1.232  11.339  20.779  0.00  0.00    +0.000 C 
ATOM     14  C   UNL     1      -0.810  10.507  19.551  0.00  0.00    +0.000 C 
BRANCH  11  15
ATOM     15  C   UNL     1      -2.743  13.878  21.237  0.00  0.00    +0.000 A 
ATOM     16  C   UNL     1      -3.390  13.893  22.457  0.00  0.00    +0.000 A 
ATOM     17  C   UNL     1      -4.786  13.814  22.211  0.00  0.00    +0.000 A 
ATOM     18  C   UNL     1      -4.960  13.845  20.848  0.00  0.00    +0.000 A 
ATOM     19  N   UNL     1      -3.724  13.939  20.273  0.00  0.00    +0.000 N 
ATOM     20  H   UNL     1      -3.523  14.008  19.282  0.00  0.00    +0.000 HD
ENDBRANCH  11  15
ENDBRANCH   6   7
BRANCH   3  21
ATOM     21  C   UNL     1       3.203   6.356  18.717  0.00  0.00    +0.000 C 
BRANCH  21  22
ATOM     22  N   UNL     1       4.160   5.905  17.666  0.00  0.00    +0.000 NA
ATOM     23  C   UNL     1       5.538   6.042  18.148  0.00  0.00    +0.000 C 
ATOM     24  C   UNL     1       6.624   5.975  17.071  0.00  0.00    +0.000 C 
ATOM     25  C   UNL     1       6.987   4.574  16.608  0.00  0.00    +0.000 C 
ATOM     26  C   UNL     1       5.859   3.876  15.869  0.00  0.00    +0.000 C 
ATOM     27  C   UNL     1       4.729   3.487  16.806  0.00  0.00    +0.000 C 
ATOM     28  C   UNL     1       3.735   4.596  17.149  0.00  0.00    +0.000 C 
ENDBRANCH  21  22
ENDBRANCH   3  21
TORSDOF 4
ENDMDL
MODEL 9
REMARK VINA RESULT:      -6.9      0.968      1.070
REMARK  Name = 
REMARK  5 active torsions:
REMARK  status: ('A' for Active; 'I' for Inactive)
REMARK    1  A    between atoms: C_1  and  N_2
REMARK    2  A    between atoms: C_3  and  C_4
REMARK    3  A    between atoms: C_4  and  N_5
REMARK    4  A    between atoms: C_14  and  C_15
REMARK    5  A    between atoms: C_19  and  C_21
REMARK                            x       y       z     vdW  Elec       q    Type
REMARK                         _______ _______ _______ _____ _____    ______ ____
ROOT
ATOM      1  C   UNL     1       1.521   8.191  21.153  0.00  0.00    +0.000 C 
ATOM      2  N   UNL     1       1.658   8.514  19.754  0.00  0.00    +0.000 N 
ATOM      3  C   UNL     1       2.318   7.802  18.796  0.00  0.00    +0.000 A 
ATOM      4  N   UNL     1       2.193   8.437  17.647  0.00  0.00    +0.000 NA
ATOM      5  N   UNL     1       1.443   9.585  17.858  0.00  0.00    +0.000 NA
ATOM      6  C   UNL     1       1.124   9.622  19.133  0.00  0.00    +0.000 A 
ENDROOT
BRANCH   6   7
ATOM      7  C   UNL     1       0.387  10.627  19.927  0.00  0.00    +0.000 C 
ATOM      8  C   UNL     1       0.075  11.905  19.149  0.00  0.00    +0.000 C 
ATOM      9  C   UNL     1      -0.051  13.007  20.192  0.00  0.00    +0.000 C 
ATOM     10  N   UNL     1      -1.107  12.674  21.160  0.00  0.00    +0.000 N 
ATOM     11  C   UNL     1      -2.133  13.594  21.314  0.00  0.00    +0.000 C 
ATOM     12  O   UNL     1      -2.231  14.572  20.569  0.00  0.00    +0.000 OA
ATOM     13  C   UNL     1      -1.040  11.333  21.779  0.00  0.00    +0.000 C 
ATOM     14  C   UNL     1      -0.833  10.218  20.732  0.00  0.00    +0.000 C 
BRANCH  11  15
ATOM     15  C   UNL     1      -3.135  13.391  22.338  0.00  0.00    +0.000 A 
ATOM     16  C   UNL     1      -3.090  13.366  23.718  0.00  0.00    +0.000 A 
ATOM     17  C   UNL     1      -4.394  13.067  24.192  0.00  0.00    +0.000 A 
ATOM     18  C   UNL     1      -5.220  13.006  23.095  0.00  0.00    +0.000 A 
ATOM     19  N   UNL     1      -4.460  13.257  21.987  0.00  0.00    +0.000 N 
ATOM     20  H   UNL     1      -4.787  13.308  21.029  0.00  0.00    +0.000 HD
ENDBRANCH  11  15
ENDBRANCH   6   7
BRANCH   3  21
ATOM     21  C   UNL     1       3.063   6.540  19.088  0.00  0.00    +0.000 C 
BRANCH  21  22
ATOM     22  N   UNL     1       2.334   5.307  18.673  0.00  0.00    +0.000 NA
ATOM     23  C   UNL     1       3.250   4.384  17.996  0.00  0.00    +0.000 C 
ATOM     24  C   UNL     1       2.584   3.261  17.195  0.00  0.00    +0.000 C 
ATOM     25  C   UNL     1       2.098   2.083  18.021  0.00  0.00    +0.000 C 
ATOM     26  C   UNL     1       0.953   2.436  18.953  0.00  0.00    +0.000 C 
ATOM     27  C   UNL     1       1.417   3.305  20.109  0.00  0.00    +0.000 C 
ATOM     28  C   UNL     1       1.551   4.798  19.808  0.00  0.00    +0.000 C 
ENDBRANCH  21  22
ENDBRANCH   3  21
TORSDOF 4
ENDMDL
