MODEL 1
REMARK VINA RESULT:      -6.7      0.000      0.000
REMARK  Name = 
REMARK  6 active torsions:
REMARK  status: ('A' for Active; 'I' for Inactive)
REMARK    1  A    between atoms: C_1  and  C_2
REMARK    2  A    between atoms: C_2  and  O_3
REMARK    3  A    between atoms: O_3  and  C_4
REMARK    4  A    between atoms: C_4  and  C_6
REMARK    5  A    between atoms: C_7  and  N_8
REMARK    6  A    between atoms: C_9  and  C_10
REMARK                            x       y       z     vdW  Elec       q    Type
REMARK                         _______ _______ _______ _____ _____    ______ ____
ROOT
ATOM      1  C   UNL     1       4.711   4.472  18.756  0.00  0.00    +0.000 A 
ATOM      2  C   UNL     1       4.290   3.449  19.585  0.00  0.00    +0.000 A 
ATOM      3  C   UNL     1       3.159   3.884  20.302  0.00  0.00    +0.000 A 
ATOM      4  C   UNL     1       2.888   5.191  19.917  0.00  0.00    +0.000 A 
ATOM      5  N   UNL     1       3.839   5.541  18.972  0.00  0.00    +0.000 N 
ATOM      6  C   UNL     1       3.898   6.810  18.247  0.00  0.00    +0.000 C 
ATOM      7  C   UNL     1       2.540   7.367  17.828  0.00  0.00    +0.000 C 
ATOM      8  C   UNL     1       1.822   8.134  18.935  0.00  0.00    +0.000 C 
ATOM      9  C   UNL     1       2.001   7.553  20.335  0.00  0.00    +0.000 C 
ATOM     10  C   UNL     1       1.747   6.054  20.386  0.00  0.00    +0.000 C 
ENDROOT
BRANCH   2  11
ATOM     11  N   UNL     1       4.875   2.237  19.677  0.00  0.00    +0.000 N 
ATOM     12  H   UNL     1       4.552   1.466  19.093  0.00  0.00    +0.000 HD
ATOM     13  H   UNL     1       5.359   1.925  20.514  0.00  0.00    +0.000 HD
ENDBRANCH   2  11
BRANCH   1  14
ATOM     14  C   UNL     1       5.795   4.470  17.794  0.00  0.00    +0.000 C 
ATOM     15  O   UNL     1       5.681   4.366  16.581  0.00  0.00    +0.000 OA
BRANCH  14  16
ATOM     16  O   UNL     1       6.986   4.440  18.463  0.00  0.00    +0.000 OA
BRANCH  16  18
ATOM     17  C   UNL     1       7.680   6.706  18.153  0.00  0.00    +0.000 C 
ATOM     18  C   UNL     1       7.315   5.639  19.172  0.00  0.00    +0.000 C 
ENDBRANCH  16  18
ENDBRANCH  14  16
ENDBRANCH   1  14
BRANCH   3  19
ATOM     19  C   UNL     1       2.393   3.123  21.238  0.00  0.00    +0.000 C 
ATOM     20  N   UNL     1       1.760   2.511  21.996  0.00  0.00    +0.000 NA
ENDBRANCH   3  19
TORSDOF 5
ENDMDL
MODEL 2
REMARK VINA RESULT:      -6.6      2.090      4.232
REMARK  Name = 
REMARK  6 active torsions:
REMARK  status: ('A' for Active; 'I' for Inactive)
REMARK    1  A    between atoms: C_1  and  C_2
REMARK    2  A    between atoms: C_2  and  O_3
REMARK    3  A    between atoms: O_3  and  C_4
REMARK    4  A    between atoms: C_4  and  C_6
REMARK    5  A    between atoms: C_7  and  N_8
REMARK    6  A    between atoms: C_9  and  C_10
REMARK                            x       y       z     vdW  Elec       q    Type
REMARK                         _______ _______ _______ _____ _____    ______ ____
ROOT
ATOM      1  C   UNL     1       5.662   5.225  17.611  0.00  0.00    +0.000 A 
ATOM      2  C   UNL     1       5.254   6.523  17.363  0.00  0.00    +0.000 A 
ATOM      3  C   UNL     1       3.884   6.634  17.666  0.00  0.00    +0.000 A 
ATOM      4  C   UNL     1       3.442   5.389  18.096  0.00  0.00    +0.000 A 
ATOM      5  N   UNL     1       4.534   4.536  18.062  0.00  0.00    +0.000 N 
ATOM      6  C   UNL     1       4.542   3.138  18.491  0.00  0.00    +0.000 C 
ATOM      7  C   UNL     1       3.719   2.854  19.745  0.00  0.00    +0.000 C 
ATOM      8  C   UNL     1       2.229   2.669  19.472  0.00  0.00    +0.000 C 
ATOM      9  C   UNL     1       1.660   3.577  18.384  0.00  0.00    +0.000 C 
ATOM     10  C   UNL     1       2.057   5.033  18.568  0.00  0.00    +0.000 C 
ENDROOT
BRANCH   2  11
ATOM     11  N   UNL     1       6.053   7.512  16.908  0.00  0.00    +0.000 N 
ATOM     12  H   UNL     1       6.806   7.303  16.254  0.00  0.00    +0.000 HD
ATOM     13  H   UNL     1       6.202   8.374  17.423  0.00  0.00    +0.000 HD
ENDBRANCH   2  11
BRANCH   1  14
ATOM     14  C   UNL     1       6.990   4.657  17.502  0.00  0.00    +0.000 C 
ATOM     15  O   UNL     1       7.737   4.386  18.432  0.00  0.00    +0.000 OA
BRANCH  14  16
ATOM     16  O   UNL     1       7.352   4.617  16.185  0.00  0.00    +0.000 OA
BRANCH  16  18
ATOM     17  C   UNL     1       6.349   4.489  14.019  0.00  0.00    +0.000 C 
ATOM     18  C   UNL     1       6.531   3.789  15.355  0.00  0.00    +0.000 C 
ENDBRANCH  16  18
ENDBRANCH  14  16
ENDBRANCH   1  14
BRANCH   3  19
ATOM     19  C   UNL     1       3.080   7.812  17.584  0.00  0.00    +0.000 C 
ATOM     20  N   UNL     1       2.421   8.766  17.508  0.00  0.00    +0.000 NA
ENDBRANCH   3  19
TORSDOF 5
ENDMDL
MODEL 3
REMARK VINA RESULT:      -6.5      1.010      1.668
REMARK  Name = 
REMARK  6 active torsions:
REMARK  status: ('A' for Active; 'I' for Inactive)
REMARK    1  A    between atoms: C_1  and  C_2
REMARK    2  A    between atoms: C_2  and  O_3
REMARK    3  A    between atoms: O_3  and  C_4
REMARK    4  A    between atoms: C_4  and  C_6
REMARK    5  A    between atoms: C_7  and  N_8
REMARK    6  A    between atoms: C_9  and  C_10
REMARK                            x       y       z     vdW  Elec       q    Type
REMARK                         _______ _______ _______ _____ _____    ______ ____
ROOT
ATOM      1  C   UNL     1       4.898   4.294  18.859  0.00  0.00    +0.000 A 
ATOM      2  C   UNL     1       4.401   3.300  19.682  0.00  0.00    +0.000 A 
ATOM      3  C   UNL     1       3.226   3.769  20.301  0.00  0.00    +0.000 A 
ATOM      4  C   UNL     1       3.004   5.068  19.861  0.00  0.00    +0.000 A 
ATOM      5  N   UNL     1       4.027   5.379  18.981  0.00  0.00    +0.000 N 
ATOM      6  C   UNL     1       4.159   6.627  18.228  0.00  0.00    +0.000 C 
ATOM      7  C   UNL     1       2.844   7.189  17.694  0.00  0.00    +0.000 C 
ATOM      8  C   UNL     1       2.058   7.995  18.723  0.00  0.00    +0.000 C 
ATOM      9  C   UNL     1       2.124   7.452  20.148  0.00  0.00    +0.000 C 
ATOM     10  C   UNL     1       1.845   5.959  20.220  0.00  0.00    +0.000 C 
ENDROOT
BRANCH   2  11
ATOM     11  N   UNL     1       4.959   2.083  19.850  0.00  0.00    +0.000 N 
ATOM     12  H   UNL     1       4.687   1.499  20.640  0.00  0.00    +0.000 HD
ATOM     13  H   UNL     1       5.872   1.844  19.475  0.00  0.00    +0.000 HD
ENDBRANCH   2  11
BRANCH   1  14
ATOM     14  C   UNL     1       6.049   4.251  17.980  0.00  0.00    +0.000 C 
ATOM     15  O   UNL     1       7.204   4.502  18.293  0.00  0.00    +0.000 OA
BRANCH  14  16
ATOM     16  O   UNL     1       5.625   4.040  16.698  0.00  0.00    +0.000 OA
BRANCH  16  18
ATOM     17  C   UNL     1       5.935   4.111  14.329  0.00  0.00    +0.000 C 
ATOM     18  C   UNL     1       6.580   4.360  15.682  0.00  0.00    +0.000 C 
ENDBRANCH  16  18
ENDBRANCH  14  16
ENDBRANCH   1  14
BRANCH   3  19
ATOM     19  C   UNL     1       2.382   3.045  21.197  0.00  0.00    +0.000 C 
ATOM     20  N   UNL     1       1.693   2.466  21.932  0.00  0.00    +0.000 NA
ENDBRANCH   3  19
TORSDOF 5
ENDMDL
MODEL 4
REMARK VINA RESULT:      -6.5      1.441      3.583
REMARK  Name = 
REMARK  6 active torsions:
REMARK  status: ('A' for Active; 'I' for Inactive)
REMARK    1  A    between atoms: C_1  and  C_2
REMARK    2  A    between atoms: C_2  and  O_3
REMARK    3  A    between atoms: O_3  and  C_4
REMARK    4  A    between atoms: C_4  and  C_6
REMARK    5  A    between atoms: C_7  and  N_8
REMARK    6  A    between atoms: C_9  and  C_10
REMARK                            x       y       z     vdW  Elec       q    Type
REMARK                         _______ _______ _______ _____ _____    ______ ____
ROOT
ATOM      1  C   UNL     1       4.295   4.887  18.087  0.00  0.00    +0.000 A 
ATOM      2  C   UNL     1       3.939   6.221  18.006  0.00  0.00    +0.000 A 
ATOM      3  C   UNL     1       2.843   6.450  18.860  0.00  0.00    +0.000 A 
ATOM      4  C   UNL     1       2.516   5.243  19.465  0.00  0.00    +0.000 A 
ATOM      5  N   UNL     1       3.408   4.296  18.989  0.00  0.00    +0.000 N 
ATOM      6  C   UNL     1       3.472   2.895  19.405  0.00  0.00    +0.000 C 
ATOM      7  C   UNL     1       3.237   2.664  20.896  0.00  0.00    +0.000 C 
ATOM      8  C   UNL     1       1.763   2.621  21.285  0.00  0.00    +0.000 C 
ATOM      9  C   UNL     1       0.870   3.596  20.522  0.00  0.00    +0.000 C 
ATOM     10  C   UNL     1       1.437   5.006  20.488  0.00  0.00    +0.000 C 
ENDROOT
BRANCH   2  11
ATOM     11  N   UNL     1       4.554   7.141  17.234  0.00  0.00    +0.000 N 
ATOM     12  H   UNL     1       4.013   7.881  16.788  0.00  0.00    +0.000 HD
ATOM     13  H   UNL     1       5.439   6.962  16.769  0.00  0.00    +0.000 HD
ENDBRANCH   2  11
BRANCH   1  14
ATOM     14  C   UNL     1       5.395   4.203  17.437  0.00  0.00    +0.000 C 
ATOM     15  O   UNL     1       5.346   3.618  16.365  0.00  0.00    +0.000 OA
BRANCH  14  16
ATOM     16  O   UNL     1       6.465   4.171  18.286  0.00  0.00    +0.000 OA
BRANCH  16  18
ATOM     17  C   UNL     1       7.801   6.056  18.897  0.00  0.00    +0.000 C 
ATOM     18  C   UNL     1       7.590   4.952  17.874  0.00  0.00    +0.000 C 
ENDBRANCH  16  18
ENDBRANCH  14  16
ENDBRANCH   1  14
BRANCH   3  19
ATOM     19  C   UNL     1       2.191   7.698  19.101  0.00  0.00    +0.000 C 
ATOM     20  N   UNL     1       1.656   8.713  19.286  0.00  0.00    +0.000 NA
ENDBRANCH   3  19
TORSDOF 5
ENDMDL
MODEL 5
REMARK VINA RESULT:      -6.4      2.330      4.512
REMARK  Name = 
REMARK  6 active torsions:
REMARK  status: ('A' for Active; 'I' for Inactive)
REMARK    1  A    between atoms: C_1  and  C_2
REMARK    2  A    between atoms: C_2  and  O_3
REMARK    3  A    between atoms: O_3  and  C_4
REMARK    4  A    between atoms: C_4  and  C_6
REMARK    5  A    between atoms: C_7  and  N_8
REMARK    6  A    between atoms: C_9  and  C_10
REMARK                            x       y       z     vdW  Elec       q    Type
REMARK                         _______ _______ _______ _____ _____    ______ ____
ROOT
ATOM      1  C   UNL     1       3.740   4.136  19.550  0.00  0.00    +0.000 A 
ATOM      2  C   UNL     1       2.926   5.097  20.119  0.00  0.00    +0.000 A 
ATOM      3  C   UNL     1       2.983   6.263  19.332  0.00  0.00    +0.000 A 
ATOM      4  C   UNL     1       3.848   6.019  18.273  0.00  0.00    +0.000 A 
ATOM      5  N   UNL     1       4.304   4.718  18.413  0.00  0.00    +0.000 N 
ATOM      6  C   UNL     1       5.191   4.017  17.484  0.00  0.00    +0.000 C 
ATOM      7  C   UNL     1       4.919   4.301  16.009  0.00  0.00    +0.000 C 
ATOM      8  C   UNL     1       5.556   5.592  15.505  0.00  0.00    +0.000 C 
ATOM      9  C   UNL     1       5.553   6.742  16.509  0.00  0.00    +0.000 C 
ATOM     10  C   UNL     1       4.190   6.959  17.148  0.00  0.00    +0.000 C 
ENDROOT
BRANCH   2  11
ATOM     11  N   UNL     1       2.199   4.929  21.243  0.00  0.00    +0.000 N 
ATOM     12  H   UNL     1       2.207   4.034  21.730  0.00  0.00    +0.000 HD
ATOM     13  H   UNL     1       1.375   5.486  21.450  0.00  0.00    +0.000 HD
ENDBRANCH   2  11
BRANCH   1  14
ATOM     14  C   UNL     1       3.955   2.766  19.972  0.00  0.00    +0.000 C 
ATOM     15  O   UNL     1       5.037   2.238  20.183  0.00  0.00    +0.000 OA
BRANCH  14  16
ATOM     16  O   UNL     1       2.763   2.098  19.942  0.00  0.00    +0.000 OA
BRANCH  16  18
ATOM     17  C   UNL     1       0.700   2.360  18.763  0.00  0.00    +0.000 C 
ATOM     18  C   UNL     1       2.166   1.978  18.647  0.00  0.00    +0.000 C 
ENDBRANCH  16  18
ENDBRANCH  14  16
ENDBRANCH   1  14
BRANCH   3  19
ATOM     19  C   UNL     1       2.263   7.479  19.546  0.00  0.00    +0.000 C 
ATOM     20  N   UNL     1       1.674   8.466  19.710  0.00  0.00    +0.000 NA
ENDBRANCH   3  19
TORSDOF 5
ENDMDL
MODEL 6
REMARK VINA RESULT:      -6.3      1.685      3.926
REMARK  Name = 
REMARK  6 active torsions:
REMARK  status: ('A' for Active; 'I' for Inactive)
REMARK    1  A    between atoms: C_1  and  C_2
REMARK    2  A    between atoms: C_2  and  O_3
REMARK    3  A    between atoms: O_3  and  C_4
REMARK    4  A    between atoms: C_4  and  C_6
REMARK    5  A    between atoms: C_7  and  N_8
REMARK    6  A    between atoms: C_9  and  C_10
REMARK                            x       y       z     vdW  Elec       q    Type
REMARK                         _______ _______ _______ _____ _____    ______ ____
ROOT
ATOM      1  C   UNL     1       4.528   4.957  18.281  0.00  0.00    +0.000 A 
ATOM      2  C   UNL     1       4.143   6.270  18.079  0.00  0.00    +0.000 A 
ATOM      3  C   UNL     1       2.947   6.505  18.784  0.00  0.00    +0.000 A 
ATOM      4  C   UNL     1       2.588   5.322  19.418  0.00  0.00    +0.000 A 
ATOM      5  N   UNL     1       3.559   4.384  19.107  0.00  0.00    +0.000 N 
ATOM      6  C   UNL     1       3.616   3.012  19.612  0.00  0.00    +0.000 C 
ATOM      7  C   UNL     1       3.214   2.857  21.076  0.00  0.00    +0.000 C 
ATOM      8  C   UNL     1       1.705   2.780  21.294  0.00  0.00    +0.000 C 
ATOM      9  C   UNL     1       0.880   3.676  20.374  0.00  0.00    +0.000 C 
ATOM     10  C   UNL     1       1.403   5.103  20.321  0.00  0.00    +0.000 C 
ENDROOT
BRANCH   2  11
ATOM     11  N   UNL     1       4.816   7.168  17.330  0.00  0.00    +0.000 N 
ATOM     12  H   UNL     1       5.101   6.932  16.379  0.00  0.00    +0.000 HD
ATOM     13  H   UNL     1       5.373   7.913  17.737  0.00  0.00    +0.000 HD
ENDBRANCH   2  11
BRANCH   1  14
ATOM     14  C   UNL     1       5.717   4.279  17.806  0.00  0.00    +0.000 C 
ATOM     15  O   UNL     1       6.778   4.180  18.405  0.00  0.00    +0.000 OA
BRANCH  14  16
ATOM     16  O   UNL     1       5.525   3.900  16.506  0.00  0.00    +0.000 OA
BRANCH  16  18
ATOM     17  C   UNL     1       6.041   4.082  14.179  0.00  0.00    +0.000 C 
ATOM     18  C   UNL     1       6.540   4.330  15.593  0.00  0.00    +0.000 C 
ENDBRANCH  16  18
ENDBRANCH  14  16
ENDBRANCH   1  14
BRANCH   3  19
ATOM     19  C   UNL     1       2.232   7.739  18.872  0.00  0.00    +0.000 C 
ATOM     20  N   UNL     1       1.659   8.747  18.936  0.00  0.00    +0.000 NA
ENDBRANCH   3  19
TORSDOF 5
ENDMDL
MODEL 7
REMARK VINA RESULT:      -6.3      2.208      3.969
REMARK  Name = 
REMARK  6 active torsions:
REMARK  status: ('A' for Active; 'I' for Inactive)
REMARK    1  A    between atoms: C_1  and  C_2
REMARK    2  A    between atoms: C_2  and  O_3
REMARK    3  A    between atoms: O_3  and  C_4
REMARK    4  A    between atoms: C_4  and  C_6
REMARK    5  A    between atoms: C_7  and  N_8
REMARK    6  A    between atoms: C_9  and  C_10
REMARK                            x       y       z     vdW  Elec       q    Type
REMARK                         _______ _______ _______ _____ _____    ______ ____
ROOT
ATOM      1  C   UNL     1       5.073   4.980  16.693  0.00  0.00    +0.000 A 
ATOM      2  C   UNL     1       4.742   6.318  16.803  0.00  0.00    +0.000 A 
ATOM      3  C   UNL     1       3.544   6.430  17.534  0.00  0.00    +0.000 A 
ATOM      4  C   UNL     1       3.130   5.147  17.870  0.00  0.00    +0.000 A 
ATOM      5  N   UNL     1       4.069   4.269  17.354  0.00  0.00    +0.000 N 
ATOM      6  C   UNL     1       4.066   2.816  17.523  0.00  0.00    +0.000 C 
ATOM      7  C   UNL     1       3.633   2.338  18.906  0.00  0.00    +0.000 C 
ATOM      8  C   UNL     1       2.119   2.274  19.089  0.00  0.00    +0.000 C 
ATOM      9  C   UNL     1       1.344   3.395  18.400  0.00  0.00    +0.000 C 
ATOM     10  C   UNL     1       1.923   4.771  18.688  0.00  0.00    +0.000 C 
ENDROOT
BRANCH   2  11
ATOM     11  N   UNL     1       5.462   7.338  16.290  0.00  0.00    +0.000 N 
ATOM     12  H   UNL     1       6.452   7.213  16.084  0.00  0.00    +0.000 HD
ATOM     13  H   UNL     1       5.203   8.311  16.423  0.00  0.00    +0.000 HD
ENDBRANCH   2  11
BRANCH   1  14
ATOM     14  C   UNL     1       6.243   4.384  16.080  0.00  0.00    +0.000 C 
ATOM     15  O   UNL     1       6.249   3.424  15.323  0.00  0.00    +0.000 OA
BRANCH  14  16
ATOM     16  O   UNL     1       7.365   4.960  16.607  0.00  0.00    +0.000 OA
BRANCH  16  18
ATOM     17  C   UNL     1       7.830   5.881  18.762  0.00  0.00    +0.000 C 
ATOM     18  C   UNL     1       7.652   4.602  17.962  0.00  0.00    +0.000 C 
ENDBRANCH  16  18
ENDBRANCH  14  16
ENDBRANCH   1  14
BRANCH   3  19
ATOM     19  C   UNL     1       2.876   7.637  17.905  0.00  0.00    +0.000 C 
ATOM     20  N   UNL     1       2.334   8.623  18.195  0.00  0.00    +0.000 NA
ENDBRANCH   3  19
TORSDOF 5
ENDMDL
MODEL 8
REMARK VINA RESULT:      -6.2      1.785      2.255
REMARK  Name = 
REMARK  6 active torsions:
REMARK  status: ('A' for Active; 'I' for Inactive)
REMARK    1  A    between atoms: C_1  and  C_2
REMARK    2  A    between atoms: C_2  and  O_3
REMARK    3  A    between atoms: O_3  and  C_4
REMARK    4  A    between atoms: C_4  and  C_6
REMARK    5  A    between atoms: C_7  and  N_8
REMARK    6  A    between atoms: C_9  and  C_10
REMARK                            x       y       z     vdW  Elec       q    Type
REMARK                         _______ _______ _______ _____ _____    ______ ____
ROOT
ATOM      1  C   UNL     1       4.882   5.515  16.863  0.00  0.00    +0.000 A 
ATOM      2  C   UNL     1       4.797   4.141  16.994  0.00  0.00    +0.000 A 
ATOM      3  C   UNL     1       3.823   3.837  17.964  0.00  0.00    +0.000 A 
ATOM      4  C   UNL     1       3.309   5.038  18.441  0.00  0.00    +0.000 A 
ATOM      5  N   UNL     1       3.960   6.055  17.762  0.00  0.00    +0.000 N 
ATOM      6  C   UNL     1       3.690   7.486  17.902  0.00  0.00    +0.000 C 
ATOM      7  C   UNL     1       2.214   7.843  18.053  0.00  0.00    +0.000 C 
ATOM      8  C   UNL     1       1.689   7.694  19.478  0.00  0.00    +0.000 C 
ATOM      9  C   UNL     1       2.263   6.510  20.251  0.00  0.00    +0.000 C 
ATOM     10  C   UNL     1       2.214   5.213  19.459  0.00  0.00    +0.000 C 
ENDROOT
BRANCH   2  11
ATOM     11  N   UNL     1       5.532   3.250  16.296  0.00  0.00    +0.000 N 
ATOM     12  H   UNL     1       6.314   3.566  15.724  0.00  0.00    +0.000 HD
ATOM     13  H   UNL     1       5.167   2.348  16.006  0.00  0.00    +0.000 HD
ENDBRANCH   2  11
BRANCH   1  14
ATOM     14  C   UNL     1       5.699   6.288  15.950  0.00  0.00    +0.000 C 
ATOM     15  O   UNL     1       5.303   6.895  14.965  0.00  0.00    +0.000 OA
BRANCH  14  16
ATOM     16  O   UNL     1       7.016   6.106  16.267  0.00  0.00    +0.000 OA
BRANCH  16  18
ATOM     17  C   UNL     1       7.698   8.017  17.530  0.00  0.00    +0.000 C 
ATOM     18  C   UNL     1       7.389   6.530  17.581  0.00  0.00    +0.000 C 
ENDBRANCH  16  18
ENDBRANCH  14  16
ENDBRANCH   1  14
BRANCH   3  19
ATOM     19  C   UNL     1       3.399   2.537  18.376  0.00  0.00    +0.000 C 
ATOM     20  N   UNL     1       3.066   1.476  18.712  0.00  0.00    +0.000 NA
ENDBRANCH   3  19
TORSDOF 5
ENDMDL
MODEL 9
REMARK VINA RESULT:      -5.9      3.142      5.313
REMARK  Name = 
REMARK  6 active torsions:
REMARK  status: ('A' for Active; 'I' for Inactive)
REMARK    1  A    between atoms: C_1  and  C_2
REMARK    2  A    between atoms: C_2  and  O_3
REMARK    3  A    between atoms: O_3  and  C_4
REMARK    4  A    between atoms: C_4  and  C_6
REMARK    5  A    between atoms: C_7  and  N_8
REMARK    6  A    between atoms: C_9  and  C_10
REMARK                            x       y       z     vdW  Elec       q    Type
REMARK                         _______ _______ _______ _____ _____    ______ ____
ROOT
ATOM      1  C   UNL     1       4.781   3.805  18.420  0.00  0.00    +0.000 A 
ATOM      2  C   UNL     1       4.496   3.449  17.115  0.00  0.00    +0.000 A 
ATOM      3  C   UNL     1       5.274   4.240  16.248  0.00  0.00    +0.000 A 
ATOM      4  C   UNL     1       6.039   5.098  17.029  0.00  0.00    +0.000 A 
ATOM      5  N   UNL     1       5.733   4.825  18.352  0.00  0.00    +0.000 N 
ATOM      6  C   UNL     1       6.352   5.451  19.520  0.00  0.00    +0.000 C 
ATOM      7  C   UNL     1       7.853   5.697  19.389  0.00  0.00    +0.000 C 
ATOM      8  C   UNL     1       8.201   6.974  18.630  0.00  0.00    +0.000 C 
ATOM      9  C   UNL     1       7.278   7.294  17.458  0.00  0.00    +0.000 C 
ATOM     10  C   UNL     1       7.054   6.099  16.544  0.00  0.00    +0.000 C 
ENDROOT
BRANCH   2  11
ATOM     11  N   UNL     1       3.616   2.494  16.748  0.00  0.00    +0.000 N 
ATOM     12  H   UNL     1       3.100   2.581  15.872  0.00  0.00    +0.000 HD
ATOM     13  H   UNL     1       3.158   1.885  17.419  0.00  0.00    +0.000 HD
ENDBRANCH   2  11
BRANCH   1  14
ATOM     14  C   UNL     1       4.271   3.230  19.648  0.00  0.00    +0.000 C 
ATOM     15  O   UNL     1       4.839   2.404  20.347  0.00  0.00    +0.000 OA
BRANCH  14  16
ATOM     16  O   UNL     1       2.977   3.633  19.826  0.00  0.00    +0.000 OA
BRANCH  16  18
ATOM     17  C   UNL     1       1.504   2.765  21.496  0.00  0.00    +0.000 C 
ATOM     18  C   UNL     1       2.044   2.580  20.088  0.00  0.00    +0.000 C 
ENDBRANCH  16  18
ENDBRANCH  14  16
ENDBRANCH   1  14
BRANCH   3  19
ATOM     19  C   UNL     1       5.311   4.168  14.822  0.00  0.00    +0.000 C 
ATOM     20  N   UNL     1       5.352   4.106  13.663  0.00  0.00    +0.000 NA
ENDBRANCH   3  19
TORSDOF 5
ENDMDL
