MODEL 1
REMARK VINA RESULT:      -8.4      0.000      0.000
REMARK  Name = 
REMARK  7 active torsions:
REMARK  status: ('A' for Active; 'I' for Inactive)
REMARK    1  A    between atoms: C_1  and  O_2
REMARK    2  A    between atoms: O_2  and  C_3
REMARK    3  A    between atoms: C_8  and  N_9
REMARK    4  A    between atoms: N_9  and  S_10
REMARK    5  A    between atoms: S_10  and  C_13
REMARK    6  A    between atoms: C_16  and  N_17
REMARK    7  A    between atoms: N_17  and  C_18
REMARK                            x       y       z     vdW  Elec       q    Type
REMARK                         _______ _______ _______ _____ _____    ______ ____
ROOT
ATOM      1  C   UNL     1       6.408   5.433  17.511  0.00  0.00    +0.000 A 
ATOM      2  C   UNL     1       7.241   5.185  18.603  0.00  0.00    +0.000 A 
ATOM      3  C   UNL     1       8.080   6.202  19.065  0.00  0.00    +0.000 A 
ATOM      4  C   UNL     1       8.093   7.459  18.449  0.00  0.00    +0.000 A 
ATOM      5  C   UNL     1       7.380   7.624  17.252  0.00  0.00    +0.000 A 
ATOM      6  C   UNL     1       6.528   6.617  16.787  0.00  0.00    +0.000 A 
ENDROOT
BRANCH   1   7
ATOM      7  S   UNL     1       5.123   4.273  17.083  0.00  0.00    +0.000 S 
ATOM      8  O   UNL     1       5.703   3.323  16.154  0.00  0.00    +0.000 OA
ATOM      9  O   UNL     1       3.930   5.019  16.739  0.00  0.00    +0.000 OA
BRANCH   7  10
ATOM     10  N   UNL     1       4.912   3.452  18.520  0.00  0.00    +0.000 N 
ATOM     11  H   UNL     1       5.568   2.708  18.732  0.00  0.00    +0.000 HD
BRANCH  10  17
ATOM     12  C   UNL     1       2.937   4.396  19.737  0.00  0.00    +0.000 A 
ATOM     13  N   UNL     1       1.665   4.241  20.205  0.00  0.00    +0.000 NA
ATOM     14  C   UNL     1       1.108   3.038  19.973  0.00  0.00    +0.000 A 
ATOM     15  C   UNL     1       1.759   2.044  19.281  0.00  0.00    +0.000 A 
ATOM     16  N   UNL     1       3.016   2.180  18.791  0.00  0.00    +0.000 NA
ATOM     17  C   UNL     1       3.594   3.377  19.038  0.00  0.00    +0.000 A 
BRANCH  12  19
ATOM     18  C   UNL     1       2.572   6.695  19.795  0.00  0.00    +0.000 C 
ATOM     19  O   UNL     1       3.528   5.635  19.899  0.00  0.00    +0.000 OA
ENDBRANCH  12  19
ENDBRANCH  10  17
ENDBRANCH   7  10
ENDBRANCH   1   7
BRANCH   4  20
ATOM     20  N   UNL     1       8.793   8.561  18.992  0.00  0.00    +0.000 N 
ATOM     21  H   UNL     1       9.565   8.274  19.586  0.00  0.00    +0.000 HD
BRANCH  20  22
ATOM     22  C   UNL     1       8.852   9.837  18.486  0.00  0.00    +0.000 C 
ATOM     23  C   UNL     1       9.331  10.955  19.066  0.00  0.00    +0.000 C 
ATOM     24  C   UNL     1       9.967  11.008  20.423  0.00  0.00    +0.000 C 
ATOM     25  C   UNL     1      10.980  12.138  20.579  0.00  0.00    +0.000 C 
ATOM     26  C   UNL     1      10.348  13.461  20.175  0.00  0.00    +0.000 C 
ATOM     27  C   UNL     1       9.973  13.441  18.703  0.00  0.00    +0.000 C 
ATOM     28  C   UNL     1       9.123  12.247  18.324  0.00  0.00    +0.000 C 
ATOM     29  O   UNL     1       8.333  12.322  17.387  0.00  0.00    +0.000 OA
ENDBRANCH  20  22
ENDBRANCH   4  20
TORSDOF 6
ENDMDL
MODEL 2
REMARK VINA RESULT:      -8.2      1.258      1.949
REMARK  Name = 
REMARK  7 active torsions:
REMARK  status: ('A' for Active; 'I' for Inactive)
REMARK    1  A    between atoms: C_1  and  O_2
REMARK    2  A    between atoms: O_2  and  C_3
REMARK    3  A    between atoms: C_8  and  N_9
REMARK    4  A    between atoms: N_9  and  S_10
REMARK    5  A    between atoms: S_10  and  C_13
REMARK    6  A    between atoms: C_16  and  N_17
REMARK    7  A    between atoms: N_17  and  C_18
REMARK                            x       y       z     vdW  Elec       q    Type
REMARK                         _______ _______ _______ _____ _____    ______ ____
ROOT
ATOM      1  C   UNL     1       6.433   5.577  17.613  0.00  0.00    +0.000 A 
ATOM      2  C   UNL     1       7.340   5.351  18.649  0.00  0.00    +0.000 A 
ATOM      3  C   UNL     1       8.181   6.388  19.058  0.00  0.00    +0.000 A 
ATOM      4  C   UNL     1       8.123   7.645  18.444  0.00  0.00    +0.000 A 
ATOM      5  C   UNL     1       7.331   7.792  17.296  0.00  0.00    +0.000 A 
ATOM      6  C   UNL     1       6.476   6.764  16.885  0.00  0.00    +0.000 A 
ENDROOT
BRANCH   1   7
ATOM      7  S   UNL     1       5.152   4.386  17.267  0.00  0.00    +0.000 S 
ATOM      8  O   UNL     1       5.075   3.502  18.414  0.00  0.00    +0.000 OA
ATOM      9  O   UNL     1       5.363   3.861  15.934  0.00  0.00    +0.000 OA
BRANCH   7  10
ATOM     10  N   UNL     1       3.780   5.336  17.317  0.00  0.00    +0.000 N 
ATOM     11  H   UNL     1       3.830   6.251  16.880  0.00  0.00    +0.000 HD
BRANCH  10  17
ATOM     12  C   UNL     1       1.925   4.135  18.496  0.00  0.00    +0.000 A 
ATOM     13  N   UNL     1       1.109   4.019  19.582  0.00  0.00    +0.000 NA
ATOM     14  C   UNL     1       1.283   4.951  20.538  0.00  0.00    +0.000 A 
ATOM     15  C   UNL     1       2.242   5.932  20.444  0.00  0.00    +0.000 A 
ATOM     16  N   UNL     1       3.076   6.059  19.382  0.00  0.00    +0.000 NA
ATOM     17  C   UNL     1       2.895   5.141  18.407  0.00  0.00    +0.000 A 
BRANCH  12  19
ATOM     18  C   UNL     1       2.017   1.852  18.050  0.00  0.00    +0.000 C 
ATOM     19  O   UNL     1       1.823   3.165  17.517  0.00  0.00    +0.000 OA
ENDBRANCH  12  19
ENDBRANCH  10  17
ENDBRANCH   7  10
ENDBRANCH   1   7
BRANCH   4  20
ATOM     20  N   UNL     1       8.829   8.764  18.943  0.00  0.00    +0.000 N 
ATOM     21  H   UNL     1       9.607   8.497  19.537  0.00  0.00    +0.000 HD
BRANCH  20  22
ATOM     22  C   UNL     1       8.883  10.022  18.393  0.00  0.00    +0.000 C 
ATOM     23  C   UNL     1       9.487  11.128  18.872  0.00  0.00    +0.000 C 
ATOM     24  C   UNL     1      10.294  11.182  20.134  0.00  0.00    +0.000 C 
ATOM     25  C   UNL     1      11.372  12.262  20.124  0.00  0.00    +0.000 C 
ATOM     26  C   UNL     1      10.757  13.606  19.763  0.00  0.00    +0.000 C 
ATOM     27  C   UNL     1      10.194  13.568  18.353  0.00  0.00    +0.000 C 
ATOM     28  C   UNL     1       9.246  12.411  18.123  0.00  0.00    +0.000 C 
ATOM     29  O   UNL     1       8.346  12.502  17.292  0.00  0.00    +0.000 OA
ENDBRANCH  20  22
ENDBRANCH   4  20
TORSDOF 6
ENDMDL
MODEL 3
REMARK VINA RESULT:      -8.2      1.120      1.220
REMARK  Name = 
REMARK  7 active torsions:
REMARK  status: ('A' for Active; 'I' for Inactive)
REMARK    1  A    between atoms: C_1  and  O_2
REMARK    2  A    between atoms: O_2  and  C_3
REMARK    3  A    between atoms: C_8  and  N_9
REMARK    4  A    between atoms: N_9  and  S_10
REMARK    5  A    between atoms: S_10  and  C_13
REMARK    6  A    between atoms: C_16  and  N_17
REMARK    7  A    between atoms: N_17  and  C_18
REMARK                            x       y       z     vdW  Elec       q    Type
REMARK                         _______ _______ _______ _____ _____    ______ ____
ROOT
ATOM      1  C   UNL     1       6.508   5.534  17.840  0.00  0.00    +0.000 A 
ATOM      2  C   UNL     1       7.435   5.425  18.878  0.00  0.00    +0.000 A 
ATOM      3  C   UNL     1       8.254   6.515  19.179  0.00  0.00    +0.000 A 
ATOM      4  C   UNL     1       8.157   7.709  18.455  0.00  0.00    +0.000 A 
ATOM      5  C   UNL     1       7.346   7.732  17.310  0.00  0.00    +0.000 A 
ATOM      6  C   UNL     1       6.513   6.651  17.006  0.00  0.00    +0.000 A 
ENDROOT
BRANCH   1   7
ATOM      7  S   UNL     1       5.254   4.287  17.622  0.00  0.00    +0.000 S 
ATOM      8  O   UNL     1       5.253   3.474  18.823  0.00  0.00    +0.000 OA
ATOM      9  O   UNL     1       5.426   3.687  16.315  0.00  0.00    +0.000 OA
BRANCH   7  10
ATOM     10  N   UNL     1       3.855   5.197  17.675  0.00  0.00    +0.000 N 
ATOM     11  H   UNL     1       3.946   6.199  17.546  0.00  0.00    +0.000 HD
BRANCH  10  17
ATOM     12  C   UNL     1       2.326   5.255  19.658  0.00  0.00    +0.000 A 
ATOM     13  N   UNL     1       1.288   4.709  20.353  0.00  0.00    +0.000 NA
ATOM     14  C   UNL     1       0.762   3.590  19.821  0.00  0.00    +0.000 A 
ATOM     15  C   UNL     1       1.215   3.052  18.640  0.00  0.00    +0.000 A 
ATOM     16  N   UNL     1       2.234   3.585  17.921  0.00  0.00    +0.000 NA
ATOM     17  C   UNL     1       2.784   4.697  18.458  0.00  0.00    +0.000 A 
BRANCH  12  19
ATOM     18  C   UNL     1       1.910   7.508  20.074  0.00  0.00    +0.000 C 
ATOM     19  O   UNL     1       2.859   6.438  20.134  0.00  0.00    +0.000 OA
ENDBRANCH  12  19
ENDBRANCH  10  17
ENDBRANCH   7  10
ENDBRANCH   1   7
BRANCH   4  20
ATOM     20  N   UNL     1       8.840   8.886  18.839  0.00  0.00    +0.000 N 
ATOM     21  H   UNL     1       9.690   8.687  19.357  0.00  0.00    +0.000 HD
BRANCH  20  22
ATOM     22  C   UNL     1       8.760  10.122  18.246  0.00  0.00    +0.000 C 
ATOM     23  C   UNL     1       9.545  11.202  18.434  0.00  0.00    +0.000 C 
ATOM     24  C   UNL     1      10.742  11.241  19.335  0.00  0.00    +0.000 C 
ATOM     25  C   UNL     1      11.800  12.252  18.902  0.00  0.00    +0.000 C 
ATOM     26  C   UNL     1      11.164  13.621  18.713  0.00  0.00    +0.000 C 
ATOM     27  C   UNL     1      10.144  13.579  17.587  0.00  0.00    +0.000 C 
ATOM     28  C   UNL     1       9.121  12.476  17.754  0.00  0.00    +0.000 C 
ATOM     29  O   UNL     1       7.994  12.600  17.282  0.00  0.00    +0.000 OA
ENDBRANCH  20  22
ENDBRANCH   4  20
TORSDOF 6
ENDMDL
MODEL 4
REMARK VINA RESULT:      -8.2      3.804      7.354
REMARK  Name = 
REMARK  7 active torsions:
REMARK  status: ('A' for Active; 'I' for Inactive)
REMARK    1  A    between atoms: C_1  and  O_2
REMARK    2  A    between atoms: O_2  and  C_3
REMARK    3  A    between atoms: C_8  and  N_9
REMARK    4  A    between atoms: N_9  and  S_10
REMARK    5  A    between atoms: S_10  and  C_13
REMARK    6  A    between atoms: C_16  and  N_17
REMARK    7  A    between atoms: N_17  and  C_18
REMARK                            x       y       z     vdW  Elec       q    Type
REMARK                         _______ _______ _______ _____ _____    ______ ____
ROOT
ATOM      1  C   UNL     1       3.178   4.699  18.873  0.00  0.00    +0.000 A 
ATOM      2  C   UNL     1       3.046   5.658  17.868  0.00  0.00    +0.000 A 
ATOM      3  C   UNL     1       2.495   6.903  18.181  0.00  0.00    +0.000 A 
ATOM      4  C   UNL     1       2.077   7.197  19.484  0.00  0.00    +0.000 A 
ATOM      5  C   UNL     1       2.057   6.161  20.429  0.00  0.00    +0.000 A 
ATOM      6  C   UNL     1       2.617   4.914  20.131  0.00  0.00    +0.000 A 
ENDROOT
BRANCH   1   7
ATOM      7  S   UNL     1       4.138   3.225  18.586  0.00  0.00    +0.000 S 
ATOM      8  O   UNL     1       3.237   2.235  18.029  0.00  0.00    +0.000 OA
ATOM      9  O   UNL     1       4.911   2.943  19.778  0.00  0.00    +0.000 OA
BRANCH   7  10
ATOM     10  N   UNL     1       5.134   3.705  17.336  0.00  0.00    +0.000 N 
ATOM     11  H   UNL     1       5.357   3.014  16.626  0.00  0.00    +0.000 HD
BRANCH  10  17
ATOM     12  C   UNL     1       6.545   5.666  16.673  0.00  0.00    +0.000 A 
ATOM     13  N   UNL     1       7.445   6.631  17.018  0.00  0.00    +0.000 NA
ATOM     14  C   UNL     1       7.854   6.608  18.300  0.00  0.00    +0.000 A 
ATOM     15  C   UNL     1       7.373   5.697  19.211  0.00  0.00    +0.000 A 
ATOM     16  N   UNL     1       6.466   4.739  18.898  0.00  0.00    +0.000 NA
ATOM     17  C   UNL     1       6.065   4.739  17.607  0.00  0.00    +0.000 A 
BRANCH  12  19
ATOM     18  C   UNL     1       6.850   4.896  14.498  0.00  0.00    +0.000 C 
ATOM     19  O   UNL     1       6.051   5.687  15.383  0.00  0.00    +0.000 OA
ENDBRANCH  12  19
ENDBRANCH  10  17
ENDBRANCH   7  10
ENDBRANCH   1   7
BRANCH   4  20
ATOM     20  N   UNL     1       1.679   8.496  19.876  0.00  0.00    +0.000 N 
ATOM     21  H   UNL     1       1.523   9.109  19.083  0.00  0.00    +0.000 HD
BRANCH  20  22
ATOM     22  C   UNL     1       1.074   8.856  21.056  0.00  0.00    +0.000 C 
ATOM     23  C   UNL     1       0.304   9.932  21.316  0.00  0.00    +0.000 C 
ATOM     24  C   UNL     1      -0.096  10.962  20.303  0.00  0.00    +0.000 C 
ATOM     25  C   UNL     1      -1.422  11.647  20.619  0.00  0.00    +0.000 C 
ATOM     26  C   UNL     1      -1.397  12.198  22.037  0.00  0.00    +0.000 C 
ATOM     27  C   UNL     1      -1.264  11.067  23.042  0.00  0.00    +0.000 C 
ATOM     28  C   UNL     1      -0.097  10.148  22.750  0.00  0.00    +0.000 C 
ATOM     29  O   UNL     1       0.459   9.544  23.664  0.00  0.00    +0.000 OA
ENDBRANCH  20  22
ENDBRANCH   4  20
TORSDOF 6
ENDMDL
MODEL 5
REMARK VINA RESULT:      -8.1      3.862      7.357
REMARK  Name = 
REMARK  7 active torsions:
REMARK  status: ('A' for Active; 'I' for Inactive)
REMARK    1  A    between atoms: C_1  and  O_2
REMARK    2  A    between atoms: O_2  and  C_3
REMARK    3  A    between atoms: C_8  and  N_9
REMARK    4  A    between atoms: N_9  and  S_10
REMARK    5  A    between atoms: S_10  and  C_13
REMARK    6  A    between atoms: C_16  and  N_17
REMARK    7  A    between atoms: N_17  and  C_18
REMARK                            x       y       z     vdW  Elec       q    Type
REMARK                         _______ _______ _______ _____ _____    ______ ____
ROOT
ATOM      1  C   UNL     1       3.331   5.266  18.757  0.00  0.00    +0.000 A 
ATOM      2  C   UNL     1       2.703   5.339  20.002  0.00  0.00    +0.000 A 
ATOM      3  C   UNL     1       2.074   6.527  20.380  0.00  0.00    +0.000 A 
ATOM      4  C   UNL     1       2.066   7.639  19.529  0.00  0.00    +0.000 A 
ATOM      5  C   UNL     1       2.851   7.597  18.367  0.00  0.00    +0.000 A 
ATOM      6  C   UNL     1       3.475   6.408  17.972  0.00  0.00    +0.000 A 
ENDROOT
BRANCH   1   7
ATOM      7  S   UNL     1       3.879   3.694  18.120  0.00  0.00    +0.000 S 
ATOM      8  O   UNL     1       3.455   3.629  16.734  0.00  0.00    +0.000 OA
ATOM      9  O   UNL     1       3.504   2.662  19.064  0.00  0.00    +0.000 OA
BRANCH   7  10
ATOM     10  N   UNL     1       5.536   3.896  18.092  0.00  0.00    +0.000 N 
ATOM     11  H   UNL     1       5.992   4.128  18.968  0.00  0.00    +0.000 HD
BRANCH  10  17
ATOM     12  C   UNL     1       6.928   5.468  16.727  0.00  0.00    +0.000 A 
ATOM     13  N   UNL     1       7.446   5.825  15.516  0.00  0.00    +0.000 NA
ATOM     14  C   UNL     1       7.097   5.035  14.484  0.00  0.00    +0.000 A 
ATOM     15  C   UNL     1       6.303   3.923  14.641  0.00  0.00    +0.000 A 
ATOM     16  N   UNL     1       5.790   3.538  15.835  0.00  0.00    +0.000 NA
ATOM     17  C   UNL     1       6.116   4.337  16.876  0.00  0.00    +0.000 A 
BRANCH  12  19
ATOM     18  C   UNL     1       7.544   7.582  17.480  0.00  0.00    +0.000 C 
ATOM     19  O   UNL     1       7.306   6.214  17.826  0.00  0.00    +0.000 OA
ENDBRANCH  12  19
ENDBRANCH  10  17
ENDBRANCH   7  10
ENDBRANCH   1   7
BRANCH   4  20
ATOM     20  N   UNL     1       1.296   8.793  19.800  0.00  0.00    +0.000 N 
ATOM     21  H   UNL     1       0.866   9.175  18.964  0.00  0.00    +0.000 HD
BRANCH  20  22
ATOM     22  C   UNL     1       0.725   9.147  20.998  0.00  0.00    +0.000 C 
ATOM     23  C   UNL     1      -0.012  10.236  21.294  0.00  0.00    +0.000 C 
ATOM     24  C   UNL     1      -0.407  11.294  20.309  0.00  0.00    +0.000 C 
ATOM     25  C   UNL     1      -1.709  12.006  20.666  0.00  0.00    +0.000 C 
ATOM     26  C   UNL     1      -1.640  12.530  22.092  0.00  0.00    +0.000 C 
ATOM     27  C   UNL     1      -1.515  11.377  23.073  0.00  0.00    +0.000 C 
ATOM     28  C   UNL     1      -0.378  10.435  22.740  0.00  0.00    +0.000 C 
ATOM     29  O   UNL     1       0.182   9.800  23.631  0.00  0.00    +0.000 OA
ENDBRANCH  20  22
ENDBRANCH   4  20
TORSDOF 6
ENDMDL
MODEL 6
REMARK VINA RESULT:      -8.0      5.915      9.747
REMARK  Name = 
REMARK  7 active torsions:
REMARK  status: ('A' for Active; 'I' for Inactive)
REMARK    1  A    between atoms: C_1  and  O_2
REMARK    2  A    between atoms: O_2  and  C_3
REMARK    3  A    between atoms: C_8  and  N_9
REMARK    4  A    between atoms: N_9  and  S_10
REMARK    5  A    between atoms: S_10  and  C_13
REMARK    6  A    between atoms: C_16  and  N_17
REMARK    7  A    between atoms: N_17  and  C_18
REMARK                            x       y       z     vdW  Elec       q    Type
REMARK                         _______ _______ _______ _____ _____    ______ ____
ROOT
ATOM      1  C   UNL     1       0.724  10.011  19.206  0.00  0.00    +0.000 A 
ATOM      2  C   UNL     1       1.394   9.995  17.981  0.00  0.00    +0.000 A 
ATOM      3  C   UNL     1       2.260   8.939  17.690  0.00  0.00    +0.000 A 
ATOM      4  C   UNL     1       2.461   7.901  18.608  0.00  0.00    +0.000 A 
ATOM      5  C   UNL     1       1.916   8.031  19.894  0.00  0.00    +0.000 A 
ATOM      6  C   UNL     1       1.038   9.079  20.192  0.00  0.00    +0.000 A 
ENDROOT
BRANCH   1   7
ATOM      7  S   UNL     1      -0.600  11.170  19.489  0.00  0.00    +0.000 S 
ATOM      8  O   UNL     1      -0.505  12.182  18.454  0.00  0.00    +0.000 OA
ATOM      9  O   UNL     1      -0.598  11.534  20.891  0.00  0.00    +0.000 OA
BRANCH   7  10
ATOM     10  N   UNL     1      -1.943  10.250  19.120  0.00  0.00    +0.000 N 
ATOM     11  H   UNL     1      -1.974   9.303  19.483  0.00  0.00    +0.000 HD
BRANCH  10  17
ATOM     12  C   UNL     1      -3.756  11.357  17.792  0.00  0.00    +0.000 A 
ATOM     13  N   UNL     1      -4.350  11.589  16.586  0.00  0.00    +0.000 NA
ATOM     14  C   UNL     1      -3.787  10.964  15.535  0.00  0.00    +0.000 A 
ATOM     15  C   UNL     1      -2.668  10.173  15.660  0.00  0.00    +0.000 A 
ATOM     16  N   UNL     1      -2.050   9.940  16.845  0.00  0.00    +0.000 NA
ATOM     17  C   UNL     1      -2.620  10.546  17.910  0.00  0.00    +0.000 A 
BRANCH  12  19
ATOM     18  C   UNL     1      -5.598  12.484  18.660  0.00  0.00    +0.000 C 
ATOM     19  O   UNL     1      -4.262  12.025  18.890  0.00  0.00    +0.000 OA
ENDBRANCH  12  19
ENDBRANCH  10  17
ENDBRANCH   7  10
ENDBRANCH   1   7
BRANCH   4  20
ATOM     20  N   UNL     1       3.189   6.733  18.282  0.00  0.00    +0.000 N 
ATOM     21  H   UNL     1       4.132   6.749  18.656  0.00  0.00    +0.000 HD
BRANCH  20  22
ATOM     22  C   UNL     1       2.675   5.499  17.967  0.00  0.00    +0.000 C 
ATOM     23  C   UNL     1       2.297   4.504  18.794  0.00  0.00    +0.000 C 
ATOM     24  C   UNL     1       2.322   4.582  20.291  0.00  0.00    +0.000 C 
ATOM     25  C   UNL     1       1.286   3.688  20.967  0.00  0.00    +0.000 C 
ATOM     26  C   UNL     1       1.416   2.263  20.452  0.00  0.00    +0.000 C 
ATOM     27  C   UNL     1       1.107   2.207  18.966  0.00  0.00    +0.000 C 
ATOM     28  C   UNL     1       1.913   3.198  18.154  0.00  0.00    +0.000 C 
ATOM     29  O   UNL     1       2.184   2.961  16.979  0.00  0.00    +0.000 OA
ENDBRANCH  20  22
ENDBRANCH   4  20
TORSDOF 6
ENDMDL
MODEL 7
REMARK VINA RESULT:      -7.9      4.833      8.487
REMARK  Name = 
REMARK  7 active torsions:
REMARK  status: ('A' for Active; 'I' for Inactive)
REMARK    1  A    between atoms: C_1  and  O_2
REMARK    2  A    between atoms: O_2  and  C_3
REMARK    3  A    between atoms: C_8  and  N_9
REMARK    4  A    between atoms: N_9  and  S_10
REMARK    5  A    between atoms: S_10  and  C_13
REMARK    6  A    between atoms: C_16  and  N_17
REMARK    7  A    between atoms: N_17  and  C_18
REMARK                            x       y       z     vdW  Elec       q    Type
REMARK                         _______ _______ _______ _____ _____    ______ ____
ROOT
ATOM      1  C   UNL     1       2.386   7.353  18.802  0.00  0.00    +0.000 A 
ATOM      2  C   UNL     1       2.079   8.171  17.714  0.00  0.00    +0.000 A 
ATOM      3  C   UNL     1       1.392   9.367  17.931  0.00  0.00    +0.000 A 
ATOM      4  C   UNL     1       1.011   9.753  19.221  0.00  0.00    +0.000 A 
ATOM      5  C   UNL     1       1.175   8.835  20.269  0.00  0.00    +0.000 A 
ATOM      6  C   UNL     1       1.872   7.639  20.065  0.00  0.00    +0.000 A 
ENDROOT
BRANCH   1   7
ATOM      7  S   UNL     1       3.509   5.983  18.606  0.00  0.00    +0.000 S 
ATOM      8  O   UNL     1       2.922   5.092  17.624  0.00  0.00    +0.000 OA
ATOM      9  O   UNL     1       3.879   5.503  19.921  0.00  0.00    +0.000 OA
BRANCH   7  10
ATOM     10  N   UNL     1       4.810   6.712  17.856  0.00  0.00    +0.000 N 
ATOM     11  H   UNL     1       4.749   7.711  17.685  0.00  0.00    +0.000 HD
BRANCH  10  17
ATOM     12  C   UNL     1       6.636   5.064  17.384  0.00  0.00    +0.000 A 
ATOM     13  N   UNL     1       7.343   4.327  16.481  0.00  0.00    +0.000 NA
ATOM     14  C   UNL     1       6.987   4.493  15.194  0.00  0.00    +0.000 A 
ATOM     15  C   UNL     1       5.958   5.322  14.815  0.00  0.00    +0.000 A 
ATOM     16  N   UNL     1       5.228   6.053  15.694  0.00  0.00    +0.000 NA
ATOM     17  C   UNL     1       5.593   5.910  16.988  0.00  0.00    +0.000 A 
BRANCH  12  19
ATOM     18  C   UNL     1       7.873   5.845  19.195  0.00  0.00    +0.000 C 
ATOM     19  O   UNL     1       6.926   4.882  18.722  0.00  0.00    +0.000 OA
ENDBRANCH  12  19
ENDBRANCH  10  17
ENDBRANCH   7  10
ENDBRANCH   1   7
BRANCH   4  20
ATOM     20  N   UNL     1       0.473  11.030  19.502  0.00  0.00    +0.000 N 
ATOM     21  H   UNL     1       1.088  11.782  19.207  0.00  0.00    +0.000 HD
BRANCH  20  22
ATOM     22  C   UNL     1      -0.852  11.353  19.668  0.00  0.00    +0.000 C 
ATOM     23  C   UNL     1      -1.855  11.298  18.769  0.00  0.00    +0.000 C 
ATOM     24  C   UNL     1      -1.713  10.802  17.361  0.00  0.00    +0.000 C 
ATOM     25  C   UNL     1      -3.001  10.219  16.787  0.00  0.00    +0.000 C 
ATOM     26  C   UNL     1      -4.139  11.217  16.945  0.00  0.00    +0.000 C 
ATOM     27  C   UNL     1      -4.418  11.471  18.417  0.00  0.00    +0.000 C 
ATOM     28  C   UNL     1      -3.182  11.864  19.196  0.00  0.00    +0.000 C 
ATOM     29  O   UNL     1      -3.278  12.574  20.194  0.00  0.00    +0.000 OA
ENDBRANCH  20  22
ENDBRANCH   4  20
TORSDOF 6
ENDMDL
MODEL 8
REMARK VINA RESULT:      -7.9      5.232      8.492
REMARK  Name = 
REMARK  7 active torsions:
REMARK  status: ('A' for Active; 'I' for Inactive)
REMARK    1  A    between atoms: C_1  and  O_2
REMARK    2  A    between atoms: O_2  and  C_3
REMARK    3  A    between atoms: C_8  and  N_9
REMARK    4  A    between atoms: N_9  and  S_10
REMARK    5  A    between atoms: S_10  and  C_13
REMARK    6  A    between atoms: C_16  and  N_17
REMARK    7  A    between atoms: N_17  and  C_18
REMARK                            x       y       z     vdW  Elec       q    Type
REMARK                         _______ _______ _______ _____ _____    ______ ____
ROOT
ATOM      1  C   UNL     1       1.987   7.467  19.622  0.00  0.00    +0.000 A 
ATOM      2  C   UNL     1       1.486   8.052  20.786  0.00  0.00    +0.000 A 
ATOM      3  C   UNL     1       0.939   9.335  20.724  0.00  0.00    +0.000 A 
ATOM      4  C   UNL     1       0.887  10.036  19.513  0.00  0.00    +0.000 A 
ATOM      5  C   UNL     1       1.552   9.500  18.401  0.00  0.00    +0.000 A 
ATOM      6  C   UNL     1       2.093   8.211  18.449  0.00  0.00    +0.000 A 
ENDROOT
BRANCH   1   7
ATOM      7  S   UNL     1       2.416   5.736  19.600  0.00  0.00    +0.000 S 
ATOM      8  O   UNL     1       1.831   5.171  18.399  0.00  0.00    +0.000 OA
ATOM      9  O   UNL     1       2.128   5.177  20.905  0.00  0.00    +0.000 OA
BRANCH   7  10
ATOM     10  N   UNL     1       4.063   5.796  19.334  0.00  0.00    +0.000 N 
ATOM     11  H   UNL     1       4.592   6.497  19.843  0.00  0.00    +0.000 HD
BRANCH  10  17
ATOM     12  C   UNL     1       4.762   4.033  17.699  0.00  0.00    +0.000 A 
ATOM     13  N   UNL     1       5.219   3.701  16.457  0.00  0.00    +0.000 NA
ATOM     14  C   UNL     1       5.456   4.738  15.633  0.00  0.00    +0.000 A 
ATOM     15  C   UNL     1       5.221   6.042  16.003  0.00  0.00    +0.000 A 
ATOM     16  N   UNL     1       4.752   6.397  17.225  0.00  0.00    +0.000 NA
ATOM     17  C   UNL     1       4.532   5.363  18.068  0.00  0.00    +0.000 A 
BRANCH  12  19
ATOM     18  C   UNL     1       3.502   2.096  17.978  0.00  0.00    +0.000 C 
ATOM     19  O   UNL     1       4.448   2.998  18.559  0.00  0.00    +0.000 OA
ENDBRANCH  12  19
ENDBRANCH  10  17
ENDBRANCH   7  10
ENDBRANCH   1   7
BRANCH   4  20
ATOM     20  N   UNL     1       0.187  11.257  19.375  0.00  0.00    +0.000 N 
ATOM     21  H   UNL     1       0.726  11.958  18.877  0.00  0.00    +0.000 HD
BRANCH  20  22
ATOM     22  C   UNL     1      -1.175  11.440  19.405  0.00  0.00    +0.000 C 
ATOM     23  C   UNL     1      -2.077  11.228  18.426  0.00  0.00    +0.000 C 
ATOM     24  C   UNL     1      -1.753  10.680  17.070  0.00  0.00    +0.000 C 
ATOM     25  C   UNL     1      -2.913   9.930  16.421  0.00  0.00    +0.000 C 
ATOM     26  C   UNL     1      -4.159  10.802  16.418  0.00  0.00    +0.000 C 
ATOM     27  C   UNL     1      -4.600  11.099  17.842  0.00  0.00    +0.000 C 
ATOM     28  C   UNL     1      -3.491  11.665  18.701  0.00  0.00    +0.000 C 
ATOM     29  O   UNL     1      -3.755  12.410  19.641  0.00  0.00    +0.000 OA
ENDBRANCH  20  22
ENDBRANCH   4  20
TORSDOF 6
ENDMDL
MODEL 9
REMARK VINA RESULT:      -7.8      5.792      8.653
REMARK  Name = 
REMARK  7 active torsions:
REMARK  status: ('A' for Active; 'I' for Inactive)
REMARK    1  A    between atoms: C_1  and  O_2
REMARK    2  A    between atoms: O_2  and  C_3
REMARK    3  A    between atoms: C_8  and  N_9
REMARK    4  A    between atoms: N_9  and  S_10
REMARK    5  A    between atoms: S_10  and  C_13
REMARK    6  A    between atoms: C_16  and  N_17
REMARK    7  A    between atoms: N_17  and  C_18
REMARK                            x       y       z     vdW  Elec       q    Type
REMARK                         _______ _______ _______ _____ _____    ______ ____
ROOT
ATOM      1  C   UNL     1       0.903   9.808  19.275  0.00  0.00    +0.000 A 
ATOM      2  C   UNL     1       1.567   9.575  18.069  0.00  0.00    +0.000 A 
ATOM      3  C   UNL     1       2.283   8.388  17.903  0.00  0.00    +0.000 A 
ATOM      4  C   UNL     1       2.342   7.435  18.926  0.00  0.00    +0.000 A 
ATOM      5  C   UNL     1       1.817   7.770  20.183  0.00  0.00    +0.000 A 
ATOM      6  C   UNL     1       1.087   8.951  20.357  0.00  0.00    +0.000 A 
ENDROOT
BRANCH   1   7
ATOM      7  S   UNL     1      -0.254  11.157  19.415  0.00  0.00    +0.000 S 
ATOM      8  O   UNL     1      -0.098  11.974  18.227  0.00  0.00    +0.000 OA
ATOM      9  O   UNL     1      -0.127  11.733  20.738  0.00  0.00    +0.000 OA
BRANCH   7  10
ATOM     10  N   UNL     1      -1.717  10.370  19.252  0.00  0.00    +0.000 N 
ATOM     11  H   UNL     1      -1.828   9.486  19.739  0.00  0.00    +0.000 HD
BRANCH  10  17
ATOM     12  C   UNL     1      -3.564  11.424  17.929  0.00  0.00    +0.000 A 
ATOM     13  N   UNL     1      -4.210  11.582  16.738  0.00  0.00    +0.000 NA
ATOM     14  C   UNL     1      -3.713  10.865  15.713  0.00  0.00    +0.000 A 
ATOM     15  C   UNL     1      -2.609  10.056  15.845  0.00  0.00    +0.000 A 
ATOM     16  N   UNL     1      -1.940   9.895  17.014  0.00  0.00    +0.000 NA
ATOM     17  C   UNL     1      -2.444  10.593  18.055  0.00  0.00    +0.000 A 
BRANCH  12  19
ATOM     18  C   UNL     1      -5.430  12.201  19.084  0.00  0.00    +0.000 C 
ATOM     19  O   UNL     1      -4.002  12.185  18.996  0.00  0.00    +0.000 OA
ENDBRANCH  12  19
ENDBRANCH  10  17
ENDBRANCH   7  10
ENDBRANCH   1   7
BRANCH   4  20
ATOM     20  N   UNL     1       2.906   6.153  18.735  0.00  0.00    +0.000 N 
ATOM     21  H   UNL     1       2.329   5.560  18.147  0.00  0.00    +0.000 HD
BRANCH  20  22
ATOM     22  C   UNL     1       4.232   5.807  18.838  0.00  0.00    +0.000 C 
ATOM     23  C   UNL     1       5.062   5.348  17.880  0.00  0.00    +0.000 C 
ATOM     24  C   UNL     1       4.688   5.167  16.440  0.00  0.00    +0.000 C 
ATOM     25  C   UNL     1       5.869   5.294  15.481  0.00  0.00    +0.000 C 
ATOM     26  C   UNL     1       6.992   4.366  15.916  0.00  0.00    +0.000 C 
ATOM     27  C   UNL     1       7.519   4.776  17.281  0.00  0.00    +0.000 C 
ATOM     28  C   UNL     1       6.430   4.904  18.324  0.00  0.00    +0.000 C 
ATOM     29  O   UNL     1       6.683   4.715  19.510  0.00  0.00    +0.000 OA
ENDBRANCH  20  22
ENDBRANCH   4  20
TORSDOF 6
ENDMDL
