MODEL 1
REMARK VINA RESULT:      -5.0      0.000      0.000
REMARK  Name = 
REMARK  0 active torsions:
REMARK  status: ('A' for Active; 'I' for Inactive)
REMARK                            x       y       z     vdW  Elec       q    Type
REMARK                         _______ _______ _______ _____ _____    ______ ____
ROOT
ATOM      1  O   UNL     1       7.759   5.294  20.405  0.00  0.00    +0.000 OA
ATOM      2  C   UNL     1       7.225   5.659  19.369  0.00  0.00    +0.000 C 
ATOM      3  C   UNL     1       7.876   6.637  18.479  0.00  0.00    +0.000 C 
ATOM      4  C   UNL     1       7.310   7.015  17.330  0.00  0.00    +0.000 C 
ATOM      5  C   UNL     1       6.006   6.469  16.893  0.00  0.00    +0.000 C 
ATOM      6  O   UNL     1       5.534   6.815  15.816  0.00  0.00    +0.000 OA
ATOM      7  C   UNL     1       5.339   5.516  17.819  0.00  0.00    +0.000 C 
ATOM      8 CL   UNL     1       3.792   4.903  17.364  0.00  0.00    +0.000 Cl
ATOM      9  C   UNL     1       5.906   5.140  18.967  0.00  0.00    +0.000 C 
ENDROOT
TORSDOF 0
ENDMDL
MODEL 2
REMARK VINA RESULT:      -5.0      4.750      5.541
REMARK  Name = 
REMARK  0 active torsions:
REMARK  status: ('A' for Active; 'I' for Inactive)
REMARK                            x       y       z     vdW  Elec       q    Type
REMARK                         _______ _______ _______ _____ _____    ______ ____
ROOT
ATOM      1  O   UNL     1       2.902   2.410  22.084  0.00  0.00    +0.000 OA
ATOM      2  C   UNL     1       2.518   2.754  20.977  0.00  0.00    +0.000 C 
ATOM      3  C   UNL     1       1.105   3.100  20.733  0.00  0.00    +0.000 C 
ATOM      4  C   UNL     1       0.688   3.508  19.532  0.00  0.00    +0.000 C 
ATOM      5  C   UNL     1       1.620   3.636  18.390  0.00  0.00    +0.000 C 
ATOM      6  O   UNL     1       1.206   4.045  17.312  0.00  0.00    +0.000 OA
ATOM      7  C   UNL     1       3.033   3.243  18.637  0.00  0.00    +0.000 C 
ATOM      8 CL   UNL     1       4.133   3.329  17.311  0.00  0.00    +0.000 Cl
ATOM      9  C   UNL     1       3.449   2.836  19.838  0.00  0.00    +0.000 C 
ENDROOT
TORSDOF 0
ENDMDL
MODEL 3
REMARK VINA RESULT:      -5.0      4.906      5.655
REMARK  Name = 
REMARK  0 active torsions:
REMARK  status: ('A' for Active; 'I' for Inactive)
REMARK                            x       y       z     vdW  Elec       q    Type
REMARK                         _______ _______ _______ _____ _____    ______ ____
ROOT
ATOM      1  O   UNL     1       2.213   3.288  22.323  0.00  0.00    +0.000 OA
ATOM      2  C   UNL     1       1.997   3.486  21.136  0.00  0.00    +0.000 C 
ATOM      3  C   UNL     1       1.314   2.476  20.307  0.00  0.00    +0.000 C 
ATOM      4  C   UNL     1       1.047   2.701  19.018  0.00  0.00    +0.000 C 
ATOM      5  C   UNL     1       1.419   3.973  18.361  0.00  0.00    +0.000 C 
ATOM      6  O   UNL     1       1.127   4.156  17.186  0.00  0.00    +0.000 OA
ATOM      7  C   UNL     1       2.144   4.967  19.196  0.00  0.00    +0.000 C 
ATOM      8 CL   UNL     1       2.639   6.438  18.445  0.00  0.00    +0.000 Cl
ATOM      9  C   UNL     1       2.411   4.740  20.484  0.00  0.00    +0.000 C 
ENDROOT
TORSDOF 0
ENDMDL
MODEL 4
REMARK VINA RESULT:      -4.9      4.502      5.643
REMARK  Name = 
REMARK  0 active torsions:
REMARK  status: ('A' for Active; 'I' for Inactive)
REMARK                            x       y       z     vdW  Elec       q    Type
REMARK                         _______ _______ _______ _____ _____    ______ ____
ROOT
ATOM      1  O   UNL     1       0.944   4.325  17.201  0.00  0.00    +0.000 OA
ATOM      2  C   UNL     1       1.819   3.815  17.886  0.00  0.00    +0.000 C 
ATOM      3  C   UNL     1       3.132   3.470  17.310  0.00  0.00    +0.000 C 
ATOM      4  C   UNL     1       4.103   2.943  18.062  0.00  0.00    +0.000 C 
ATOM      5  C   UNL     1       3.909   2.682  19.505  0.00  0.00    +0.000 C 
ATOM      6  O   UNL     1       4.833   2.229  20.169  0.00  0.00    +0.000 OA
ATOM      7  C   UNL     1       2.567   2.995  20.064  0.00  0.00    +0.000 C 
ATOM      8 CL   UNL     1       2.292   2.652  21.732  0.00  0.00    +0.000 Cl
ATOM      9  C   UNL     1       1.598   3.522  19.312  0.00  0.00    +0.000 C 
ENDROOT
TORSDOF 0
ENDMDL
MODEL 5
REMARK VINA RESULT:      -4.8      4.284      5.102
REMARK  Name = 
REMARK  0 active torsions:
REMARK  status: ('A' for Active; 'I' for Inactive)
REMARK                            x       y       z     vdW  Elec       q    Type
REMARK                         _______ _______ _______ _____ _____    ______ ____
ROOT
ATOM      1  O   UNL     1       5.577   3.891  19.027  0.00  0.00    +0.000 OA
ATOM      2  C   UNL     1       4.410   3.549  18.900  0.00  0.00    +0.000 C 
ATOM      3  C   UNL     1       3.827   3.312  17.568  0.00  0.00    +0.000 C 
ATOM      4  C   UNL     1       2.561   2.907  17.426  0.00  0.00    +0.000 C 
ATOM      5  C   UNL     1       1.688   2.674  18.597  0.00  0.00    +0.000 C 
ATOM      6  O   UNL     1       0.543   2.271  18.428  0.00  0.00    +0.000 OA
ATOM      7  C   UNL     1       2.274   2.958  19.934  0.00  0.00    +0.000 C 
ATOM      8 CL   UNL     1       1.264   2.748  21.315  0.00  0.00    +0.000 Cl
ATOM      9  C   UNL     1       3.539   3.363  20.073  0.00  0.00    +0.000 C 
ENDROOT
TORSDOF 0
ENDMDL
MODEL 6
REMARK VINA RESULT:      -4.7      5.100      6.274
REMARK  Name = 
REMARK  0 active torsions:
REMARK  status: ('A' for Active; 'I' for Inactive)
REMARK                            x       y       z     vdW  Elec       q    Type
REMARK                         _______ _______ _______ _____ _____    ______ ____
ROOT
ATOM      1  O   UNL     1       2.088   3.307  16.909  0.00  0.00    +0.000 OA
ATOM      2  C   UNL     1       2.203   3.210  18.122  0.00  0.00    +0.000 C 
ATOM      3  C   UNL     1       1.151   3.704  19.029  0.00  0.00    +0.000 C 
ATOM      4  C   UNL     1       1.258   3.571  20.354  0.00  0.00    +0.000 C 
ATOM      5  C   UNL     1       2.432   2.920  20.974  0.00  0.00    +0.000 C 
ATOM      6  O   UNL     1       2.479   2.786  22.191  0.00  0.00    +0.000 OA
ATOM      7  C   UNL     1       3.506   2.464  20.052  0.00  0.00    +0.000 C 
ATOM      8 CL   UNL     1       4.913   1.750  20.748  0.00  0.00    +0.000 Cl
ATOM      9  C   UNL     1       3.398   2.598  18.728  0.00  0.00    +0.000 C 
ENDROOT
TORSDOF 0
ENDMDL
MODEL 7
REMARK VINA RESULT:      -4.7      3.791      5.571
REMARK  Name = 
REMARK  0 active torsions:
REMARK  status: ('A' for Active; 'I' for Inactive)
REMARK                            x       y       z     vdW  Elec       q    Type
REMARK                         _______ _______ _______ _____ _____    ______ ____
ROOT
ATOM      1  O   UNL     1       1.036   4.276  17.233  0.00  0.00    +0.000 OA
ATOM      2  C   UNL     1       1.927   3.821  17.936  0.00  0.00    +0.000 C 
ATOM      3  C   UNL     1       1.797   2.495  18.567  0.00  0.00    +0.000 C 
ATOM      4  C   UNL     1       2.781   1.981  19.310  0.00  0.00    +0.000 C 
ATOM      5  C   UNL     1       4.046   2.713  19.533  0.00  0.00    +0.000 C 
ATOM      6  O   UNL     1       4.939   2.194  20.193  0.00  0.00    +0.000 OA
ATOM      7  C   UNL     1       4.148   4.068  18.928  0.00  0.00    +0.000 C 
ATOM      8 CL   UNL     1       5.590   4.970  19.215  0.00  0.00    +0.000 Cl
ATOM      9  C   UNL     1       3.164   4.580  18.186  0.00  0.00    +0.000 C 
ENDROOT
TORSDOF 0
ENDMDL
MODEL 8
REMARK VINA RESULT:      -4.7      4.715      5.583
REMARK  Name = 
REMARK  0 active torsions:
REMARK  status: ('A' for Active; 'I' for Inactive)
REMARK                            x       y       z     vdW  Elec       q    Type
REMARK                         _______ _______ _______ _____ _____    ______ ____
ROOT
ATOM      1  O   UNL     1       3.705   6.276  19.319  0.00  0.00    +0.000 OA
ATOM      2  C   UNL     1       2.908   5.353  19.230  0.00  0.00    +0.000 C 
ATOM      3  C   UNL     1       2.276   5.014  17.942  0.00  0.00    +0.000 C 
ATOM      4  C   UNL     1       1.430   3.986  17.833  0.00  0.00    +0.000 C 
ATOM      5  C   UNL     1       1.088   3.139  18.996  0.00  0.00    +0.000 C 
ATOM      6  O   UNL     1       0.334   2.184  18.850  0.00  0.00    +0.000 OA
ATOM      7  C   UNL     1       1.698   3.516  20.299  0.00  0.00    +0.000 C 
ATOM      8 CL   UNL     1       1.278   2.581  21.685  0.00  0.00    +0.000 Cl
ATOM      9  C   UNL     1       2.544   4.544  20.405  0.00  0.00    +0.000 C 
ENDROOT
TORSDOF 0
ENDMDL
MODEL 9
REMARK VINA RESULT:      -4.7      3.857      4.690
REMARK  Name = 
REMARK  0 active torsions:
REMARK  status: ('A' for Active; 'I' for Inactive)
REMARK                            x       y       z     vdW  Elec       q    Type
REMARK                         _______ _______ _______ _____ _____    ______ ____
ROOT
ATOM      1  O   UNL     1       5.054   2.106  20.231  0.00  0.00    +0.000 OA
ATOM      2  C   UNL     1       4.183   2.589  19.522  0.00  0.00    +0.000 C 
ATOM      3  C   UNL     1       3.230   1.732  18.796  0.00  0.00    +0.000 C 
ATOM      4  C   UNL     1       2.257   2.256  18.045  0.00  0.00    +0.000 C 
ATOM      5  C   UNL     1       2.087   3.719  17.910  0.00  0.00    +0.000 C 
ATOM      6  O   UNL     1       1.162   4.163  17.240  0.00  0.00    +0.000 OA
ATOM      7  C   UNL     1       3.081   4.573  18.613  0.00  0.00    +0.000 C 
ATOM      8 CL   UNL     1       2.942   6.282  18.431  0.00  0.00    +0.000 Cl
ATOM      9  C   UNL     1       4.052   4.047  19.362  0.00  0.00    +0.000 C 
ENDROOT
TORSDOF 0
ENDMDL
