MODEL 1
REMARK VINA RESULT:      -9.8      0.000      0.000
REMARK  Name = 
REMARK  3 active torsions:
REMARK  status: ('A' for Active; 'I' for Inactive)
REMARK    1  A    between atoms: C_7  and  N_8
REMARK    2  A    between atoms: C_10  and  C_11
REMARK    3  A    between atoms: C_23  and  C_24
REMARK                            x       y       z     vdW  Elec       q    Type
REMARK                         _______ _______ _______ _____ _____    ______ ____
ROOT
ATOM      1  N   UNL     1       3.645   3.752  19.210  0.00  0.00    +0.000 N 
ATOM      2  C   UNL     1       3.063   4.357  18.130  0.00  0.00    +0.000 A 
ATOM      3  C   UNL     1       3.579   5.643  18.145  0.00  0.00    +0.000 A 
ATOM      4  C   UNL     1       4.884   5.394  18.695  0.00  0.00    +0.000 A 
ATOM      5  N   UNL     1       4.875   4.265  19.440  0.00  0.00    +0.000 NA
ENDROOT
BRANCH   3   6
ATOM      6  C   UNL     1       2.671   6.751  18.510  0.00  0.00    +0.000 A 
ATOM      7  C   UNL     1       2.305   7.722  17.538  0.00  0.00    +0.000 A 
ATOM      8  C   UNL     1       1.775   8.965  17.905  0.00  0.00    +0.000 A 
ATOM      9  C   UNL     1       1.430   9.121  19.221  0.00  0.00    +0.000 A 
ATOM     10  C   UNL     1       1.563   8.068  20.162  0.00  0.00    +0.000 A 
ATOM     11  C   UNL     1       2.280   6.927  19.843  0.00  0.00    +0.000 A 
ATOM     12  C   UNL     1       0.752   8.310  21.437  0.00  0.00    +0.000 C 
ATOM     13  C   UNL     1       0.482   9.758  21.219  0.00  0.00    +0.000 A 
ATOM     14  C   UNL     1      -0.030  10.857  21.857  0.00  0.00    +0.000 A 
ATOM     15  N   UNL     1       0.091  11.876  20.935  0.00  0.00    +0.000 N 
ATOM     16  N   UNL     1       0.629  11.495  19.744  0.00  0.00    +0.000 NA
ATOM     17  C   UNL     1       0.835  10.200  19.933  0.00  0.00    +0.000 A 
ATOM     18  H   UNL     1      -0.151  12.852  21.061  0.00  0.00    +0.000 HD
ENDBRANCH   3   6
BRANCH   1  25
ATOM     19  F   UNL     1       2.037   1.821  21.851  0.00  0.00    +0.000 F 
ATOM     20  C   UNL     1       2.285   2.982  21.164  0.00  0.00    +0.000 C 
ATOM     21  C   UNL     1       0.944   3.653  20.839  0.00  0.00    +0.000 C 
ATOM     22  N   UNL     1       0.115   2.926  19.866  0.00  0.00    +0.000 NA
ATOM     23  C   UNL     1       0.840   2.544  18.660  0.00  0.00    +0.000 C 
ATOM     24  C   UNL     1       2.131   1.790  18.986  0.00  0.00    +0.000 C 
ATOM     25  C   UNL     1       3.061   2.613  19.909  0.00  0.00    +0.000 C 
ATOM     26  H   UNL     1      -0.685   3.507  19.609  0.00  0.00    +0.000 HD
ENDBRANCH   1  25
BRANCH   4  27
ATOM     27  C   UNL     1       6.101   6.125  18.338  0.00  0.00    +0.000 A 
ATOM     28  C   UNL     1       7.263   5.938  19.130  0.00  0.00    +0.000 A 
ATOM     29  C   UNL     1       8.341   6.779  18.912  0.00  0.00    +0.000 A 
ATOM     30  N   UNL     1       8.356   7.755  17.979  0.00  0.00    +0.000 NA
ATOM     31  C   UNL     1       7.248   7.892  17.221  0.00  0.00    +0.000 A 
ATOM     32  C   UNL     1       6.125   7.092  17.348  0.00  0.00    +0.000 A 
ENDBRANCH   4  27
TORSDOF 3
ENDMDL
MODEL 2
REMARK VINA RESULT:      -9.7      1.489      2.360
REMARK  Name = 
REMARK  3 active torsions:
REMARK  status: ('A' for Active; 'I' for Inactive)
REMARK    1  A    between atoms: C_7  and  N_8
REMARK    2  A    between atoms: C_10  and  C_11
REMARK    3  A    between atoms: C_23  and  C_24
REMARK                            x       y       z     vdW  Elec       q    Type
REMARK                         _______ _______ _______ _____ _____    ______ ____
ROOT
ATOM      1  N   UNL     1       2.283   4.127  18.424  0.00  0.00    +0.000 N 
ATOM      2  C   UNL     1       1.691   5.130  17.707  0.00  0.00    +0.000 A 
ATOM      3  C   UNL     1       2.623   6.156  17.730  0.00  0.00    +0.000 A 
ATOM      4  C   UNL     1       3.845   5.398  17.759  0.00  0.00    +0.000 A 
ATOM      5  N   UNL     1       3.627   4.173  18.291  0.00  0.00    +0.000 NA
ENDROOT
BRANCH   3   6
ATOM      6  C   UNL     1       2.315   7.355  18.539  0.00  0.00    +0.000 A 
ATOM      7  C   UNL     1       2.126   7.237  19.943  0.00  0.00    +0.000 A 
ATOM      8  C   UNL     1       1.478   8.234  20.682  0.00  0.00    +0.000 A 
ATOM      9  C   UNL     1       1.224   9.413  20.033  0.00  0.00    +0.000 A 
ATOM     10  C   UNL     1       1.631   9.634  18.692  0.00  0.00    +0.000 A 
ATOM     11  C   UNL     1       2.073   8.581  17.909  0.00  0.00    +0.000 A 
ATOM     12  C   UNL     1       1.628  11.117  18.312  0.00  0.00    +0.000 C 
ATOM     13  C   UNL     1       0.827  11.609  19.467  0.00  0.00    +0.000 A 
ATOM     14  C   UNL     1       0.195  12.733  19.927  0.00  0.00    +0.000 A 
ATOM     15  N   UNL     1      -0.355  12.349  21.132  0.00  0.00    +0.000 N 
ATOM     16  N   UNL     1      -0.100  11.058  21.479  0.00  0.00    +0.000 NA
ATOM     17  C   UNL     1       0.640  10.637  20.465  0.00  0.00    +0.000 A 
ATOM     18  H   UNL     1      -0.932  12.907  21.751  0.00  0.00    +0.000 HD
ENDBRANCH   3   6
BRANCH   1  25
ATOM     19  F   UNL     1       1.485   0.852  19.815  0.00  0.00    +0.000 F 
ATOM     20  C   UNL     1       2.359   1.838  19.434  0.00  0.00    +0.000 C 
ATOM     21  C   UNL     1       3.347   2.084  20.582  0.00  0.00    +0.000 C 
ATOM     22  N   UNL     1       2.754   2.689  21.784  0.00  0.00    +0.000 NA
ATOM     23  C   UNL     1       1.945   3.868  21.498  0.00  0.00    +0.000 C 
ATOM     24  C   UNL     1       0.896   3.592  20.420  0.00  0.00    +0.000 C 
ATOM     25  C   UNL     1       1.538   3.077  19.110  0.00  0.00    +0.000 C 
ATOM     26  H   UNL     1       3.500   2.940  22.435  0.00  0.00    +0.000 HD
ENDBRANCH   1  25
BRANCH   4  27
ATOM     27  C   UNL     1       5.098   5.797  17.117  0.00  0.00    +0.000 A 
ATOM     28  C   UNL     1       5.461   5.180  15.893  0.00  0.00    +0.000 A 
ATOM     29  C   UNL     1       6.734   5.412  15.399  0.00  0.00    +0.000 A 
ATOM     30  N   UNL     1       7.642   6.203  16.008  0.00  0.00    +0.000 NA
ATOM     31  C   UNL     1       7.260   6.800  17.157  0.00  0.00    +0.000 A 
ATOM     32  C   UNL     1       6.007   6.647  17.724  0.00  0.00    +0.000 A 
ENDBRANCH   4  27
TORSDOF 3
ENDMDL
MODEL 3
REMARK VINA RESULT:      -9.6      1.246      2.008
REMARK  Name = 
REMARK  3 active torsions:
REMARK  status: ('A' for Active; 'I' for Inactive)
REMARK    1  A    between atoms: C_7  and  N_8
REMARK    2  A    between atoms: C_10  and  C_11
REMARK    3  A    between atoms: C_23  and  C_24
REMARK                            x       y       z     vdW  Elec       q    Type
REMARK                         _______ _______ _______ _____ _____    ______ ____
ROOT
ATOM      1  N   UNL     1       2.609   4.306  18.535  0.00  0.00    +0.000 N 
ATOM      2  C   UNL     1       2.200   5.334  17.731  0.00  0.00    +0.000 A 
ATOM      3  C   UNL     1       3.037   6.384  18.074  0.00  0.00    +0.000 A 
ATOM      4  C   UNL     1       4.235   5.663  18.412  0.00  0.00    +0.000 A 
ATOM      5  N   UNL     1       3.932   4.401  18.796  0.00  0.00    +0.000 NA
ENDROOT
BRANCH   3   6
ATOM      6  C   UNL     1       2.457   7.520  18.821  0.00  0.00    +0.000 A 
ATOM      7  C   UNL     1       2.140   7.378  20.200  0.00  0.00    +0.000 A 
ATOM      8  C   UNL     1       1.265   8.259  20.846  0.00  0.00    +0.000 A 
ATOM      9  C   UNL     1       0.895   9.379  20.150  0.00  0.00    +0.000 A 
ATOM     10  C   UNL     1       1.402   9.659  18.855  0.00  0.00    +0.000 A 
ATOM     11  C   UNL     1       2.089   8.689  18.144  0.00  0.00    +0.000 A 
ATOM     12  C   UNL     1       1.201  11.120  18.446  0.00  0.00    +0.000 C 
ATOM     13  C   UNL     1       0.213  11.480  19.500  0.00  0.00    +0.000 A 
ATOM     14  C   UNL     1      -0.637  12.488  19.869  0.00  0.00    +0.000 A 
ATOM     15  N   UNL     1      -1.244  12.024  21.017  0.00  0.00    +0.000 N 
ATOM     16  N   UNL     1      -0.823  10.792  21.416  0.00  0.00    +0.000 NA
ATOM     17  C   UNL     1       0.079  10.494  20.493  0.00  0.00    +0.000 A 
ATOM     18  H   UNL     1      -1.965  12.483  21.561  0.00  0.00    +0.000 HD
ENDBRANCH   3   6
BRANCH   1  25
ATOM     19  F   UNL     1       1.594   0.917  19.415  0.00  0.00    +0.000 F 
ATOM     20  C   UNL     1       2.503   1.942  19.348  0.00  0.00    +0.000 C 
ATOM     21  C   UNL     1       3.160   2.102  20.726  0.00  0.00    +0.000 C 
ATOM     22  N   UNL     1       2.261   2.595  21.780  0.00  0.00    +0.000 NA
ATOM     23  C   UNL     1       1.513   3.785  21.391  0.00  0.00    +0.000 C 
ATOM     24  C   UNL     1       0.781   3.588  20.063  0.00  0.00    +0.000 C 
ATOM     25  C   UNL     1       1.750   3.193  18.923  0.00  0.00    +0.000 C 
ATOM     26  H   UNL     1       2.809   2.800  22.618  0.00  0.00    +0.000 HD
ENDBRANCH   1  25
BRANCH   4  27
ATOM     27  C   UNL     1       5.599   6.140  18.178  0.00  0.00    +0.000 A 
ATOM     28  C   UNL     1       6.642   5.643  19.000  0.00  0.00    +0.000 A 
ATOM     29  C   UNL     1       7.886   6.245  18.908  0.00  0.00    +0.000 A 
ATOM     30  N   UNL     1       8.165   7.266  18.070  0.00  0.00    +0.000 NA
ATOM     31  C   UNL     1       7.161   7.700  17.279  0.00  0.00    +0.000 A 
ATOM     32  C   UNL     1       5.889   7.155  17.283  0.00  0.00    +0.000 A 
ENDBRANCH   4  27
TORSDOF 3
ENDMDL
MODEL 4
REMARK VINA RESULT:      -9.5      2.329      5.078
REMARK  Name = 
REMARK  3 active torsions:
REMARK  status: ('A' for Active; 'I' for Inactive)
REMARK    1  A    between atoms: C_7  and  N_8
REMARK    2  A    between atoms: C_10  and  C_11
REMARK    3  A    between atoms: C_23  and  C_24
REMARK                            x       y       z     vdW  Elec       q    Type
REMARK                         _______ _______ _______ _____ _____    ______ ____
ROOT
ATOM      1  N   UNL     1       4.695   6.130  17.750  0.00  0.00    +0.000 N 
ATOM      2  C   UNL     1       4.463   6.731  18.957  0.00  0.00    +0.000 A 
ATOM      3  C   UNL     1       3.109   6.530  19.179  0.00  0.00    +0.000 A 
ATOM      4  C   UNL     1       2.924   5.261  18.529  0.00  0.00    +0.000 A 
ATOM      5  N   UNL     1       3.863   5.080  17.572  0.00  0.00    +0.000 NA
ENDROOT
BRANCH   3   6
ATOM      6  C   UNL     1       2.210   7.701  19.089  0.00  0.00    +0.000 A 
ATOM      7  C   UNL     1       2.117   8.436  17.876  0.00  0.00    +0.000 A 
ATOM      8  C   UNL     1       1.594   9.735  17.843  0.00  0.00    +0.000 A 
ATOM      9  C   UNL     1       0.988  10.182  18.987  0.00  0.00    +0.000 A 
ATOM     10  C   UNL     1       0.856   9.362  20.137  0.00  0.00    +0.000 A 
ATOM     11  C   UNL     1       1.556   8.171  20.235  0.00  0.00    +0.000 A 
ATOM     12  C   UNL     1      -0.192   9.888  21.120  0.00  0.00    +0.000 C 
ATOM     13  C   UNL     1      -0.324  11.255  20.545  0.00  0.00    +0.000 A 
ATOM     14  C   UNL     1      -0.894  12.473  20.804  0.00  0.00    +0.000 A 
ATOM     15  N   UNL     1      -0.521  13.262  19.736  0.00  0.00    +0.000 N 
ATOM     16  N   UNL     1       0.234  12.621  18.802  0.00  0.00    +0.000 NA
ATOM     17  C   UNL     1       0.319  11.398  19.303  0.00  0.00    +0.000 A 
ATOM     18  H   UNL     1      -0.727  14.244  19.593  0.00  0.00    +0.000 HD
ENDBRANCH   3   6
BRANCH   1  25
ATOM     19  F   UNL     1       8.002   7.226  16.675  0.00  0.00    +0.000 F 
ATOM     20  C   UNL     1       7.142   6.618  17.554  0.00  0.00    +0.000 C 
ATOM     21  C   UNL     1       7.719   5.248  17.934  0.00  0.00    +0.000 C 
ATOM     22  N   UNL     1       7.740   4.266  16.840  0.00  0.00    +0.000 NA
ATOM     23  C   UNL     1       6.461   4.145  16.148  0.00  0.00    +0.000 C 
ATOM     24  C   UNL     1       5.934   5.505  15.685  0.00  0.00    +0.000 C 
ATOM     25  C   UNL     1       5.792   6.499  16.863  0.00  0.00    +0.000 C 
ATOM     26  H   UNL     1       8.008   3.354  17.214  0.00  0.00    +0.000 HD
ENDBRANCH   1  25
BRANCH   4  27
ATOM     27  C   UNL     1       1.996   4.218  18.969  0.00  0.00    +0.000 A 
ATOM     28  C   UNL     1       1.755   4.064  20.358  0.00  0.00    +0.000 A 
ATOM     29  C   UNL     1       1.041   2.954  20.775  0.00  0.00    +0.000 A 
ATOM     30  N   UNL     1       0.547   2.019  19.936  0.00  0.00    +0.000 NA
ATOM     31  C   UNL     1       0.767   2.206  18.617  0.00  0.00    +0.000 A 
ATOM     32  C   UNL     1       1.454   3.289  18.097  0.00  0.00    +0.000 A 
ENDBRANCH   4  27
TORSDOF 3
ENDMDL
MODEL 5
REMARK VINA RESULT:      -9.2      1.209      1.409
REMARK  Name = 
REMARK  3 active torsions:
REMARK  status: ('A' for Active; 'I' for Inactive)
REMARK    1  A    between atoms: C_7  and  N_8
REMARK    2  A    between atoms: C_10  and  C_11
REMARK    3  A    between atoms: C_23  and  C_24
REMARK                            x       y       z     vdW  Elec       q    Type
REMARK                         _______ _______ _______ _____ _____    ______ ____
ROOT
ATOM      1  N   UNL     1       4.159   3.823  17.686  0.00  0.00    +0.000 N 
ATOM      2  C   UNL     1       3.631   4.777  16.859  0.00  0.00    +0.000 A 
ATOM      3  C   UNL     1       4.060   5.975  17.409  0.00  0.00    +0.000 A 
ATOM      4  C   UNL     1       5.328   5.572  17.954  0.00  0.00    +0.000 A 
ATOM      5  N   UNL     1       5.329   4.245  18.215  0.00  0.00    +0.000 NA
ENDROOT
BRANCH   3   6
ATOM      6  C   UNL     1       3.055   6.835  18.068  0.00  0.00    +0.000 A 
ATOM      7  C   UNL     1       2.553   7.985  17.400  0.00  0.00    +0.000 A 
ATOM      8  C   UNL     1       1.910   9.016  18.096  0.00  0.00    +0.000 A 
ATOM      9  C   UNL     1       1.601   8.772  19.407  0.00  0.00    +0.000 A 
ATOM     10  C   UNL     1       1.878   7.526  20.025  0.00  0.00    +0.000 A 
ATOM     11  C   UNL     1       2.698   6.600  19.402  0.00  0.00    +0.000 A 
ATOM     12  C   UNL     1       1.095   7.323  21.323  0.00  0.00    +0.000 C 
ATOM     13  C   UNL     1       0.666   8.737  21.511  0.00  0.00    +0.000 A 
ATOM     14  C   UNL     1       0.067   9.559  22.427  0.00  0.00    +0.000 A 
ATOM     15  N   UNL     1       0.045  10.795  21.817  0.00  0.00    +0.000 N 
ATOM     16  N   UNL     1       0.575  10.812  20.563  0.00  0.00    +0.000 NA
ATOM     17  C   UNL     1       0.923   9.546  20.391  0.00  0.00    +0.000 A 
ATOM     18  H   UNL     1      -0.293  11.668  22.206  0.00  0.00    +0.000 HD
ENDBRANCH   3   6
BRANCH   1  25
ATOM     19  F   UNL     1       3.640   0.464  19.004  0.00  0.00    +0.000 F 
ATOM     20  C   UNL     1       4.012   1.779  19.121  0.00  0.00    +0.000 C 
ATOM     21  C   UNL     1       3.329   2.371  20.362  0.00  0.00    +0.000 C 
ATOM     22  N   UNL     1       1.869   2.504  20.253  0.00  0.00    +0.000 NA
ATOM     23  C   UNL     1       1.439   3.165  19.026  0.00  0.00    +0.000 C 
ATOM     24  C   UNL     1       2.047   2.511  17.784  0.00  0.00    +0.000 C 
ATOM     25  C   UNL     1       3.593   2.489  17.843  0.00  0.00    +0.000 C 
ATOM     26  H   UNL     1       1.520   3.026  21.058  0.00  0.00    +0.000 HD
ENDBRANCH   1  25
BRANCH   4  27
ATOM     27  C   UNL     1       6.521   6.418  18.024  0.00  0.00    +0.000 A 
ATOM     28  C   UNL     1       7.521   6.105  18.979  0.00  0.00    +0.000 A 
ATOM     29  C   UNL     1       8.542   7.019  19.176  0.00  0.00    +0.000 A 
ATOM     30  N   UNL     1       8.649   8.182  18.500  0.00  0.00    +0.000 NA
ATOM     31  C   UNL     1       7.699   8.442  17.576  0.00  0.00    +0.000 A 
ATOM     32  C   UNL     1       6.648   7.587  17.293  0.00  0.00    +0.000 A 
ENDBRANCH   4  27
TORSDOF 3
ENDMDL
MODEL 6
REMARK VINA RESULT:      -9.1      0.936      1.254
REMARK  Name = 
REMARK  3 active torsions:
REMARK  status: ('A' for Active; 'I' for Inactive)
REMARK    1  A    between atoms: C_7  and  N_8
REMARK    2  A    between atoms: C_10  and  C_11
REMARK    3  A    between atoms: C_23  and  C_24
REMARK                            x       y       z     vdW  Elec       q    Type
REMARK                         _______ _______ _______ _____ _____    ______ ____
ROOT
ATOM      1  N   UNL     1       2.904   4.013  18.471  0.00  0.00    +0.000 N 
ATOM      2  C   UNL     1       2.529   4.873  17.476  0.00  0.00    +0.000 A 
ATOM      3  C   UNL     1       3.220   6.040  17.761  0.00  0.00    +0.000 A 
ATOM      4  C   UNL     1       4.413   5.499  18.354  0.00  0.00    +0.000 A 
ATOM      5  N   UNL     1       4.165   4.277  18.881  0.00  0.00    +0.000 NA
ENDROOT
BRANCH   3   6
ATOM      6  C   UNL     1       2.448   7.203  18.249  0.00  0.00    +0.000 A 
ATOM      7  C   UNL     1       2.276   8.343  17.418  0.00  0.00    +0.000 A 
ATOM      8  C   UNL     1       1.896   9.584  17.943  0.00  0.00    +0.000 A 
ATOM      9  C   UNL     1       1.496   9.600  19.253  0.00  0.00    +0.000 A 
ATOM     10  C   UNL     1       1.429   8.416  20.032  0.00  0.00    +0.000 A 
ATOM     11  C   UNL     1       2.004   7.242  19.577  0.00  0.00    +0.000 A 
ATOM     12  C   UNL     1       0.582   8.588  21.295  0.00  0.00    +0.000 C 
ATOM     13  C   UNL     1       0.522  10.076  21.284  0.00  0.00    +0.000 A 
ATOM     14  C   UNL     1       0.125  11.135  22.056  0.00  0.00    +0.000 A 
ATOM     15  N   UNL     1       0.437  12.247  21.301  0.00  0.00    +0.000 N 
ATOM     16  N   UNL     1       0.990  11.965  20.090  0.00  0.00    +0.000 NA
ATOM     17  C   UNL     1       1.009  10.641  20.092  0.00  0.00    +0.000 A 
ATOM     18  H   UNL     1       0.321  13.220  21.560  0.00  0.00    +0.000 HD
ENDBRANCH   3   6
BRANCH   1  25
ATOM     19  F   UNL     1       2.058   0.721  19.790  0.00  0.00    +0.000 F 
ATOM     20  C   UNL     1       2.863   1.827  19.689  0.00  0.00    +0.000 C 
ATOM     21  C   UNL     1       3.222   2.301  21.103  0.00  0.00    +0.000 C 
ATOM     22  N   UNL     1       2.094   2.848  21.871  0.00  0.00    +0.000 NA
ATOM     23  C   UNL     1       1.328   3.850  21.139  0.00  0.00    +0.000 C 
ATOM     24  C   UNL     1       0.889   3.338  19.765  0.00  0.00    +0.000 C 
ATOM     25  C   UNL     1       2.094   2.882  18.908  0.00  0.00    +0.000 C 
ATOM     26  H   UNL     1       2.447   3.260  22.737  0.00  0.00    +0.000 HD
ENDBRANCH   1  25
BRANCH   4  27
ATOM     27  C   UNL     1       5.753   6.075  18.228  0.00  0.00    +0.000 A 
ATOM     28  C   UNL     1       6.772   5.623  19.104  0.00  0.00    +0.000 A 
ATOM     29  C   UNL     1       7.974   6.311  19.114  0.00  0.00    +0.000 A 
ATOM     30  N   UNL     1       8.235   7.377  18.328  0.00  0.00    +0.000 NA
ATOM     31  C   UNL     1       7.256   7.768  17.484  0.00  0.00    +0.000 A 
ATOM     32  C   UNL     1       6.029   7.138  17.385  0.00  0.00    +0.000 A 
ENDBRANCH   4  27
TORSDOF 3
ENDMDL
MODEL 7
REMARK VINA RESULT:      -8.9      2.594      6.469
REMARK  Name = 
REMARK  3 active torsions:
REMARK  status: ('A' for Active; 'I' for Inactive)
REMARK    1  A    between atoms: C_7  and  N_8
REMARK    2  A    between atoms: C_10  and  C_11
REMARK    3  A    between atoms: C_23  and  C_24
REMARK                            x       y       z     vdW  Elec       q    Type
REMARK                         _______ _______ _______ _____ _____    ______ ____
ROOT
ATOM      1  N   UNL     1       2.625   4.326  19.880  0.00  0.00    +0.000 N 
ATOM      2  C   UNL     1       3.902   4.748  20.129  0.00  0.00    +0.000 A 
ATOM      3  C   UNL     1       4.111   5.757  19.201  0.00  0.00    +0.000 A 
ATOM      4  C   UNL     1       2.779   6.288  19.091  0.00  0.00    +0.000 A 
ATOM      5  N   UNL     1       1.866   5.345  19.419  0.00  0.00    +0.000 NA
ENDROOT
BRANCH   3   6
ATOM      6  C   UNL     1       5.045   5.493  18.087  0.00  0.00    +0.000 A 
ATOM      7  C   UNL     1       6.295   6.168  18.030  0.00  0.00    +0.000 A 
ATOM      8  C   UNL     1       7.034   6.247  16.843  0.00  0.00    +0.000 A 
ATOM      9  C   UNL     1       6.604   5.471  15.799  0.00  0.00    +0.000 A 
ATOM     10  C   UNL     1       5.492   4.599  15.921  0.00  0.00    +0.000 A 
ATOM     11  C   UNL     1       4.647   4.685  17.015  0.00  0.00    +0.000 A 
ATOM     12  C   UNL     1       5.444   3.546  14.811  0.00  0.00    +0.000 C 
ATOM     13  C   UNL     1       6.429   4.187  13.897  0.00  0.00    +0.000 A 
ATOM     14  C   UNL     1       6.935   4.082  12.629  0.00  0.00    +0.000 A 
ATOM     15  N   UNL     1       7.847   5.112  12.536  0.00  0.00    +0.000 N 
ATOM     16  N   UNL     1       7.969   5.857  13.669  0.00  0.00    +0.000 NA
ATOM     17  C   UNL     1       7.116   5.261  14.488  0.00  0.00    +0.000 A 
ATOM     18  H   UNL     1       8.399   5.376  11.728  0.00  0.00    +0.000 HD
ENDBRANCH   3   6
BRANCH   1  25
ATOM     19  F   UNL     1       0.854   1.155  19.558  0.00  0.00    +0.000 F 
ATOM     20  C   UNL     1       1.501   2.251  19.046  0.00  0.00    +0.000 C 
ATOM     21  C   UNL     1       2.545   1.771  18.029  0.00  0.00    +0.000 C 
ATOM     22  N   UNL     1       3.673   1.029  18.612  0.00  0.00    +0.000 NA
ATOM     23  C   UNL     1       4.289   1.710  19.745  0.00  0.00    +0.000 C 
ATOM     24  C   UNL     1       3.256   2.103  20.803  0.00  0.00    +0.000 C 
ATOM     25  C   UNL     1       2.136   2.993  20.212  0.00  0.00    +0.000 C 
ATOM     26  H   UNL     1       4.378   0.870  17.890  0.00  0.00    +0.000 HD
ENDBRANCH   1  25
BRANCH   4  27
ATOM     27  C   UNL     1       2.451   7.697  18.864  0.00  0.00    +0.000 A 
ATOM     28  C   UNL     1       1.638   8.366  19.813  0.00  0.00    +0.000 A 
ATOM     29  C   UNL     1       1.168   9.628  19.493  0.00  0.00    +0.000 A 
ATOM     30  N   UNL     1       1.453  10.264  18.336  0.00  0.00    +0.000 NA
ATOM     31  C   UNL     1       2.252   9.615  17.463  0.00  0.00    +0.000 A 
ATOM     32  C   UNL     1       2.787   8.360  17.696  0.00  0.00    +0.000 A 
ENDBRANCH   4  27
TORSDOF 3
ENDMDL
MODEL 8
REMARK VINA RESULT:      -8.9      1.549      2.198
REMARK  Name = 
REMARK  3 active torsions:
REMARK  status: ('A' for Active; 'I' for Inactive)
REMARK    1  A    between atoms: C_7  and  N_8
REMARK    2  A    between atoms: C_10  and  C_11
REMARK    3  A    between atoms: C_23  and  C_24
REMARK                            x       y       z     vdW  Elec       q    Type
REMARK                         _______ _______ _______ _____ _____    ______ ____
ROOT
ATOM      1  N   UNL     1       3.335   3.268  18.675  0.00  0.00    +0.000 N 
ATOM      2  C   UNL     1       2.450   4.031  17.964  0.00  0.00    +0.000 A 
ATOM      3  C   UNL     1       3.162   5.182  17.664  0.00  0.00    +0.000 A 
ATOM      4  C   UNL     1       4.491   4.643  17.547  0.00  0.00    +0.000 A 
ATOM      5  N   UNL     1       4.603   3.505  18.270  0.00  0.00    +0.000 NA
ENDROOT
BRANCH   3   6
ATOM      6  C   UNL     1       2.781   6.434  18.352  0.00  0.00    +0.000 A 
ATOM      7  C   UNL     1       2.527   6.429  19.751  0.00  0.00    +0.000 A 
ATOM      8  C   UNL     1       1.815   7.463  20.371  0.00  0.00    +0.000 A 
ATOM      9  C   UNL     1       1.557   8.573  19.612  0.00  0.00    +0.000 A 
ATOM     10  C   UNL     1       2.021   8.694  18.277  0.00  0.00    +0.000 A 
ATOM     11  C   UNL     1       2.532   7.594  17.608  0.00  0.00    +0.000 A 
ATOM     12  C   UNL     1       1.991  10.137  17.770  0.00  0.00    +0.000 C 
ATOM     13  C   UNL     1       1.122  10.698  18.841  0.00  0.00    +0.000 A 
ATOM     14  C   UNL     1       0.435  11.835  19.174  0.00  0.00    +0.000 A 
ATOM     15  N   UNL     1      -0.161  11.536  20.381  0.00  0.00    +0.000 N 
ATOM     16  N   UNL     1       0.116  10.288  20.850  0.00  0.00    +0.000 NA
ATOM     17  C   UNL     1       0.916   9.808  19.910  0.00  0.00    +0.000 A 
ATOM     18  H   UNL     1      -0.783  12.124  20.924  0.00  0.00    +0.000 HD
ENDBRANCH   3   6
BRANCH   1  25
ATOM     19  F   UNL     1       3.017   1.467  21.829  0.00  0.00    +0.000 F 
ATOM     20  C   UNL     1       3.181   2.607  21.084  0.00  0.00    +0.000 C 
ATOM     21  C   UNL     1       2.195   3.668  21.591  0.00  0.00    +0.000 C 
ATOM     22  N   UNL     1       0.780   3.365  21.328  0.00  0.00    +0.000 NA
ATOM     23  C   UNL     1       0.517   2.993  19.943  0.00  0.00    +0.000 C 
ATOM     24  C   UNL     1       1.439   1.867  19.470  0.00  0.00    +0.000 C 
ATOM     25  C   UNL     1       2.932   2.241  19.629  0.00  0.00    +0.000 C 
ATOM     26  H   UNL     1       0.213   4.179  21.573  0.00  0.00    +0.000 HD
ENDBRANCH   1  25
BRANCH   4  27
ATOM     27  C   UNL     1       5.516   5.125  16.620  0.00  0.00    +0.000 A 
ATOM     28  C   UNL     1       5.671   4.464  15.375  0.00  0.00    +0.000 A 
ATOM     29  C   UNL     1       6.767   4.792  14.596  0.00  0.00    +0.000 A 
ATOM     30  N   UNL     1       7.687   5.716  14.946  0.00  0.00    +0.000 NA
ATOM     31  C   UNL     1       7.499   6.350  16.123  0.00  0.00    +0.000 A 
ATOM     32  C   UNL     1       6.428   6.107  16.965  0.00  0.00    +0.000 A 
ENDBRANCH   4  27
TORSDOF 3
ENDMDL
MODEL 9
REMARK VINA RESULT:      -8.8      1.452      2.236
REMARK  Name = 
REMARK  3 active torsions:
REMARK  status: ('A' for Active; 'I' for Inactive)
REMARK    1  A    between atoms: C_7  and  N_8
REMARK    2  A    between atoms: C_10  and  C_11
REMARK    3  A    between atoms: C_23  and  C_24
REMARK                            x       y       z     vdW  Elec       q    Type
REMARK                         _______ _______ _______ _____ _____    ______ ____
ROOT
ATOM      1  N   UNL     1       2.993   4.604  19.443  0.00  0.00    +0.000 N 
ATOM      2  C   UNL     1       2.208   5.283  18.553  0.00  0.00    +0.000 A 
ATOM      3  C   UNL     1       2.953   6.408  18.237  0.00  0.00    +0.000 A 
ATOM      4  C   UNL     1       4.285   5.878  18.346  0.00  0.00    +0.000 A 
ATOM      5  N   UNL     1       4.303   4.817  19.186  0.00  0.00    +0.000 NA
ENDROOT
BRANCH   3   6
ATOM      6  C   UNL     1       2.485   7.716  18.743  0.00  0.00    +0.000 A 
ATOM      7  C   UNL     1       1.866   7.805  20.020  0.00  0.00    +0.000 A 
ATOM      8  C   UNL     1       1.084   8.908  20.382  0.00  0.00    +0.000 A 
ATOM      9  C   UNL     1       1.114   9.986  19.536  0.00  0.00    +0.000 A 
ATOM     10  C   UNL     1       1.926  10.005  18.373  0.00  0.00    +0.000 A 
ATOM     11  C   UNL     1       2.523   8.843  17.914  0.00  0.00    +0.000 A 
ATOM     12  C   UNL     1       2.129  11.417  17.819  0.00  0.00    +0.000 C 
ATOM     13  C   UNL     1       1.044  12.083  18.591  0.00  0.00    +0.000 A 
ATOM     14  C   UNL     1       0.370  13.272  18.678  0.00  0.00    +0.000 A 
ATOM     15  N   UNL     1      -0.546  13.075  19.689  0.00  0.00    +0.000 N 
ATOM     16  N   UNL     1      -0.489  11.843  20.266  0.00  0.00    +0.000 NA
ATOM     17  C   UNL     1       0.500  11.268  19.598  0.00  0.00    +0.000 A 
ATOM     18  H   UNL     1      -1.250  13.725  20.019  0.00  0.00    +0.000 HD
ENDBRANCH   3   6
BRANCH   1  25
ATOM     19  F   UNL     1       0.581   2.751  21.455  0.00  0.00    +0.000 F 
ATOM     20  C   UNL     1       0.973   3.413  20.319  0.00  0.00    +0.000 C 
ATOM     21  C   UNL     1       0.626   2.545  19.103  0.00  0.00    +0.000 C 
ATOM     22  N   UNL     1       1.411   1.307  18.988  0.00  0.00    +0.000 NA
ATOM     23  C   UNL     1       2.849   1.522  19.112  0.00  0.00    +0.000 C 
ATOM     24  C   UNL     1       3.200   2.307  20.377  0.00  0.00    +0.000 C 
ATOM     25  C   UNL     1       2.468   3.669  20.432  0.00  0.00    +0.000 C 
ATOM     26  H   UNL     1       1.212   0.867  18.089  0.00  0.00    +0.000 HD
ENDBRANCH   1  25
BRANCH   4  27
ATOM     27  C   UNL     1       5.423   6.280  17.518  0.00  0.00    +0.000 A 
ATOM     28  C   UNL     1       5.751   5.493  16.385  0.00  0.00    +0.000 A 
ATOM     29  C   UNL     1       6.939   5.761  15.728  0.00  0.00    +0.000 A 
ATOM     30  N   UNL     1       7.796   6.738  16.094  0.00  0.00    +0.000 NA
ATOM     31  C   UNL     1       7.446   7.490  17.159  0.00  0.00    +0.000 A 
ATOM     32  C   UNL     1       6.272   7.315  17.872  0.00  0.00    +0.000 A 
ENDBRANCH   4  27
TORSDOF 3
ENDMDL
