MODEL 1
REMARK VINA RESULT:      -8.3      0.000      0.000
REMARK  Name = 
REMARK  7 active torsions:
REMARK  status: ('A' for Active; 'I' for Inactive)
REMARK    1  A    between atoms: N_1  and  C_2
REMARK    2  A    between atoms: C_2  and  C_3
REMARK    3  A    between atoms: C_3  and  O_4
REMARK    4  A    between atoms: C_3  and  C_25
REMARK    5  A    between atoms: O_4  and  C_5
REMARK    6  A    between atoms: C_8  and  C_9
REMARK    7  A    between atoms: C_14  and  C_15
REMARK                            x       y       z     vdW  Elec       q    Type
REMARK                         _______ _______ _______ _____ _____    ______ ____
ROOT
ATOM      1  C   UNL     1       2.714   6.728  18.485  0.00  0.00    +0.000 A 
ATOM      2  C   UNL     1       2.596   6.345  19.795  0.00  0.00    +0.000 A 
ATOM      3  N   UNL     1       1.937   7.080  20.716  0.00  0.00    +0.000 NA
ATOM      4  C   UNL     1       1.441   8.319  20.382  0.00  0.00    +0.000 A 
ATOM      5  C   UNL     1       1.581   8.856  19.094  0.00  0.00    +0.000 A 
ATOM      6  C   UNL     1       2.161   7.968  18.143  0.00  0.00    +0.000 A 
ENDROOT
BRANCH   5   7
ATOM      7  C   UNL     1       1.530  10.290  18.720  0.00  0.00    +0.000 A 
ATOM      8  C   UNL     1       2.316  10.668  17.630  0.00  0.00    +0.000 A 
ATOM      9  N   UNL     1       2.590  11.993  17.800  0.00  0.00    +0.000 N 
ATOM     10  C   UNL     1       1.509  12.545  18.403  0.00  0.00    +0.000 A 
ATOM     11  N   UNL     1       1.232  13.855  18.316  0.00  0.00    +0.000 NA
ATOM     12  C   UNL     1       0.055  14.172  18.876  0.00  0.00    +0.000 A 
ATOM     13  C   UNL     1      -0.741  13.284  19.588  0.00  0.00    +0.000 A 
ATOM     14  C   UNL     1      -0.346  11.934  19.731  0.00  0.00    +0.000 A 
ATOM     15  C   UNL     1       0.812  11.512  19.043  0.00  0.00    +0.000 A 
ATOM     16  H   UNL     1       3.332  12.511  17.373  0.00  0.00    +0.000 HD
ENDBRANCH   5   7
BRANCH   4  17
ATOM     17  C   UNL     1       0.819   8.906  21.558  0.00  0.00    +0.000 A 
ATOM     18  C   UNL     1      -0.577   8.871  21.886  0.00  0.00    +0.000 A 
ATOM     19  C   UNL     1      -0.697   9.327  23.171  0.00  0.00    +0.000 A 
ATOM     20  O   UNL     1       0.525   9.645  23.670  0.00  0.00    +0.000 OA
ATOM     21  C   UNL     1       1.444   9.374  22.695  0.00  0.00    +0.000 A 
ENDBRANCH   4  17
BRANCH   1  22
ATOM     22  O   UNL     1       3.277   6.025  17.466  0.00  0.00    +0.000 OA
BRANCH  22  23
ATOM     23  C   UNL     1       4.224   4.977  17.747  0.00  0.00    +0.000 C 
BRANCH  23  24
ATOM     24  C   UNL     1       5.567   5.685  17.926  0.00  0.00    +0.000 A 
ATOM     25  C   UNL     1       5.926   6.770  17.112  0.00  0.00    +0.000 A 
ATOM     26  C   UNL     1       7.142   7.435  17.329  0.00  0.00    +0.000 A 
ATOM     27  C   UNL     1       8.010   7.019  18.339  0.00  0.00    +0.000 A 
ATOM     28  C   UNL     1       7.668   5.939  19.149  0.00  0.00    +0.000 A 
ATOM     29  C   UNL     1       6.454   5.285  18.940  0.00  0.00    +0.000 A 
ENDBRANCH  23  24
BRANCH  23  30
ATOM     30  C   UNL     1       4.321   3.966  16.566  0.00  0.00    +0.000 C 
BRANCH  30  31
ATOM     31  N   UNL     1       5.657   3.423  16.266  0.00  0.00    +0.000 NA
ATOM     32  H   UNL     1       6.185   4.124  15.742  0.00  0.00    +0.000 HD
ATOM     33  H   UNL     1       6.188   3.290  17.126  0.00  0.00    +0.000 HD
ENDBRANCH  30  31
ENDBRANCH  23  30
ENDBRANCH  22  23
ENDBRANCH   1  22
TORSDOF 7
ENDMDL
MODEL 2
REMARK VINA RESULT:      -8.2      0.581      1.199
REMARK  Name = 
REMARK  7 active torsions:
REMARK  status: ('A' for Active; 'I' for Inactive)
REMARK    1  A    between atoms: N_1  and  C_2
REMARK    2  A    between atoms: C_2  and  C_3
REMARK    3  A    between atoms: C_3  and  O_4
REMARK    4  A    between atoms: C_3  and  C_25
REMARK    5  A    between atoms: O_4  and  C_5
REMARK    6  A    between atoms: C_8  and  C_9
REMARK    7  A    between atoms: C_14  and  C_15
REMARK                            x       y       z     vdW  Elec       q    Type
REMARK                         _______ _______ _______ _____ _____    ______ ____
ROOT
ATOM      1  C   UNL     1       2.975   6.744  18.228  0.00  0.00    +0.000 A 
ATOM      2  C   UNL     1       2.867   6.233  19.495  0.00  0.00    +0.000 A 
ATOM      3  N   UNL     1       2.114   6.810  20.455  0.00  0.00    +0.000 NA
ATOM      4  C   UNL     1       1.497   8.017  20.214  0.00  0.00    +0.000 A 
ATOM      5  C   UNL     1       1.609   8.679  18.984  0.00  0.00    +0.000 A 
ATOM      6  C   UNL     1       2.301   7.945  17.978  0.00  0.00    +0.000 A 
ENDROOT
BRANCH   5   7
ATOM      7  C   UNL     1       1.416  10.129  18.735  0.00  0.00    +0.000 A 
ATOM      8  C   UNL     1       2.255  10.705  17.780  0.00  0.00    +0.000 A 
ATOM      9  N   UNL     1       2.341  12.028  18.096  0.00  0.00    +0.000 N 
ATOM     10  C   UNL     1       1.142  12.386  18.619  0.00  0.00    +0.000 A 
ATOM     11  N   UNL     1       0.711  13.658  18.616  0.00  0.00    +0.000 NA
ATOM     12  C   UNL     1      -0.547  13.776  19.063  0.00  0.00    +0.000 A 
ATOM     13  C   UNL     1      -1.293  12.734  19.598  0.00  0.00    +0.000 A 
ATOM     14  C   UNL     1      -0.748  11.431  19.666  0.00  0.00    +0.000 A 
ATOM     15  C   UNL     1       0.520  11.219  19.080  0.00  0.00    +0.000 A 
ATOM     16  H   UNL     1       3.051  12.670  17.805  0.00  0.00    +0.000 HD
ENDBRANCH   5   7
BRANCH   4  17
ATOM     17  C   UNL     1       0.790   8.428  21.416  0.00  0.00    +0.000 A 
ATOM     18  C   UNL     1       1.327   9.215  22.489  0.00  0.00    +0.000 A 
ATOM     19  C   UNL     1       0.275   9.565  23.293  0.00  0.00    +0.000 A 
ATOM     20  O   UNL     1      -0.882   9.054  22.798  0.00  0.00    +0.000 OA
ATOM     21  C   UNL     1      -0.569   8.378  21.652  0.00  0.00    +0.000 A 
ENDBRANCH   4  17
BRANCH   1  22
ATOM     22  O   UNL     1       3.632   6.197  17.170  0.00  0.00    +0.000 OA
BRANCH  22  23
ATOM     23  C   UNL     1       4.582   5.135  17.380  0.00  0.00    +0.000 C 
BRANCH  23  24
ATOM     24  C   UNL     1       5.863   5.826  17.844  0.00  0.00    +0.000 A 
ATOM     25  C   UNL     1       6.583   5.345  18.949  0.00  0.00    +0.000 A 
ATOM     26  C   UNL     1       7.783   5.966  19.325  0.00  0.00    +0.000 A 
ATOM     27  C   UNL     1       8.264   7.071  18.621  0.00  0.00    +0.000 A 
ATOM     28  C   UNL     1       7.554   7.562  17.527  0.00  0.00    +0.000 A 
ATOM     29  C   UNL     1       6.367   6.937  17.147  0.00  0.00    +0.000 A 
ENDBRANCH  23  24
BRANCH  23  30
ATOM     30  C   UNL     1       4.859   4.352  16.061  0.00  0.00    +0.000 C 
BRANCH  30  31
ATOM     31  N   UNL     1       5.960   3.374  16.091  0.00  0.00    +0.000 NA
ATOM     32  H   UNL     1       5.973   2.869  15.203  0.00  0.00    +0.000 HD
ATOM     33  H   UNL     1       6.859   3.852  16.130  0.00  0.00    +0.000 HD
ENDBRANCH  30  31
ENDBRANCH  23  30
ENDBRANCH  22  23
ENDBRANCH   1  22
TORSDOF 7
ENDMDL
MODEL 3
REMARK VINA RESULT:      -8.2      2.655      4.544
REMARK  Name = 
REMARK  7 active torsions:
REMARK  status: ('A' for Active; 'I' for Inactive)
REMARK    1  A    between atoms: N_1  and  C_2
REMARK    2  A    between atoms: C_2  and  C_3
REMARK    3  A    between atoms: C_3  and  O_4
REMARK    4  A    between atoms: C_3  and  C_25
REMARK    5  A    between atoms: O_4  and  C_5
REMARK    6  A    between atoms: C_8  and  C_9
REMARK    7  A    between atoms: C_14  and  C_15
REMARK                            x       y       z     vdW  Elec       q    Type
REMARK                         _______ _______ _______ _____ _____    ______ ____
ROOT
ATOM      1  C   UNL     1       4.448   4.103  16.786  0.00  0.00    +0.000 A 
ATOM      2  C   UNL     1       4.543   2.961  17.537  0.00  0.00    +0.000 A 
ATOM      3  N   UNL     1       3.815   2.758  18.656  0.00  0.00    +0.000 NA
ATOM      4  C   UNL     1       3.011   3.761  19.146  0.00  0.00    +0.000 A 
ATOM      5  C   UNL     1       2.902   5.007  18.511  0.00  0.00    +0.000 A 
ATOM      6  C   UNL     1       3.588   5.097  17.266  0.00  0.00    +0.000 A 
ENDROOT
BRANCH   5   7
ATOM      7  C   UNL     1       2.479   6.286  19.132  0.00  0.00    +0.000 A 
ATOM      8  C   UNL     1       2.557   6.348  20.524  0.00  0.00    +0.000 A 
ATOM      9  N   UNL     1       1.643   7.280  20.916  0.00  0.00    +0.000 N 
ATOM     10  C   UNL     1       1.601   8.224  19.944  0.00  0.00    +0.000 A 
ATOM     11  N   UNL     1       1.180   9.476  20.179  0.00  0.00    +0.000 NA
ATOM     12  C   UNL     1       1.337  10.281  19.118  0.00  0.00    +0.000 A 
ATOM     13  C   UNL     1       1.760   9.856  17.865  0.00  0.00    +0.000 A 
ATOM     14  C   UNL     1       2.096   8.500  17.650  0.00  0.00    +0.000 A 
ATOM     15  C   UNL     1       2.086   7.636  18.768  0.00  0.00    +0.000 A 
ATOM     16  H   UNL     1       1.243   7.383  21.828  0.00  0.00    +0.000 HD
ENDBRANCH   5   7
BRANCH   4  17
ATOM     17  C   UNL     1       2.377   3.297  20.369  0.00  0.00    +0.000 A 
ATOM     18  C   UNL     1       0.969   3.123  20.581  0.00  0.00    +0.000 A 
ATOM     19  C   UNL     1       0.823   2.456  21.768  0.00  0.00    +0.000 A 
ATOM     20  O   UNL     1       2.040   2.200  22.312  0.00  0.00    +0.000 OA
ATOM     21  C   UNL     1       2.981   2.697  21.455  0.00  0.00    +0.000 A 
ENDBRANCH   4  17
BRANCH   1  22
ATOM     22  O   UNL     1       5.067   4.368  15.604  0.00  0.00    +0.000 OA
BRANCH  22  23
ATOM     23  C   UNL     1       6.502   4.306  15.510  0.00  0.00    +0.000 C 
BRANCH  23  24
ATOM     24  C   UNL     1       7.019   5.211  16.627  0.00  0.00    +0.000 A 
ATOM     25  C   UNL     1       7.570   4.670  17.799  0.00  0.00    +0.000 A 
ATOM     26  C   UNL     1       8.083   5.521  18.788  0.00  0.00    +0.000 A 
ATOM     27  C   UNL     1       8.039   6.906  18.628  0.00  0.00    +0.000 A 
ATOM     28  C   UNL     1       7.488   7.456  17.473  0.00  0.00    +0.000 A 
ATOM     29  C   UNL     1       6.988   6.609  16.484  0.00  0.00    +0.000 A 
ENDBRANCH  23  24
BRANCH  23  30
ATOM     30  C   UNL     1       7.005   4.837  14.133  0.00  0.00    +0.000 C 
BRANCH  30  31
ATOM     31  N   UNL     1       6.656   4.036  12.948  0.00  0.00    +0.000 NA
ATOM     32  H   UNL     1       5.649   4.103  12.791  0.00  0.00    +0.000 HD
ATOM     33  H   UNL     1       7.075   4.439  12.110  0.00  0.00    +0.000 HD
ENDBRANCH  30  31
ENDBRANCH  23  30
ENDBRANCH  22  23
ENDBRANCH   1  22
TORSDOF 7
ENDMDL
MODEL 4
REMARK VINA RESULT:      -8.2      2.680      4.593
REMARK  Name = 
REMARK  7 active torsions:
REMARK  status: ('A' for Active; 'I' for Inactive)
REMARK    1  A    between atoms: N_1  and  C_2
REMARK    2  A    between atoms: C_2  and  C_3
REMARK    3  A    between atoms: C_3  and  O_4
REMARK    4  A    between atoms: C_3  and  C_25
REMARK    5  A    between atoms: O_4  and  C_5
REMARK    6  A    between atoms: C_8  and  C_9
REMARK    7  A    between atoms: C_14  and  C_15
REMARK                            x       y       z     vdW  Elec       q    Type
REMARK                         _______ _______ _______ _____ _____    ______ ____
ROOT
ATOM      1  C   UNL     1       4.549   4.099  16.564  0.00  0.00    +0.000 A 
ATOM      2  C   UNL     1       4.559   2.896  17.220  0.00  0.00    +0.000 A 
ATOM      3  N   UNL     1       3.764   2.633  18.279  0.00  0.00    +0.000 NA
ATOM      4  C   UNL     1       2.974   3.627  18.811  0.00  0.00    +0.000 A 
ATOM      5  C   UNL     1       2.948   4.923  18.279  0.00  0.00    +0.000 A 
ATOM      6  C   UNL     1       3.703   5.087  17.082  0.00  0.00    +0.000 A 
ENDROOT
BRANCH   5   7
ATOM      7  C   UNL     1       2.542   6.164  18.984  0.00  0.00    +0.000 A 
ATOM      8  C   UNL     1       2.720   6.171  20.368  0.00  0.00    +0.000 A 
ATOM      9  N   UNL     1       1.816   7.061  20.864  0.00  0.00    +0.000 N 
ATOM     10  C   UNL     1       1.681   8.043  19.939  0.00  0.00    +0.000 A 
ATOM     11  N   UNL     1       1.249   9.273  20.258  0.00  0.00    +0.000 NA
ATOM     12  C   UNL     1       1.309  10.125  19.224  0.00  0.00    +0.000 A 
ATOM     13  C   UNL     1       1.649   9.764  17.927  0.00  0.00    +0.000 A 
ATOM     14  C   UNL     1       2.000   8.427  17.630  0.00  0.00    +0.000 A 
ATOM     15  C   UNL     1       2.092   7.518  18.707  0.00  0.00    +0.000 A 
ATOM     16  H   UNL     1       1.482   7.116  21.806  0.00  0.00    +0.000 HD
ENDBRANCH   5   7
BRANCH   4  17
ATOM     17  C   UNL     1       2.257   3.091  19.956  0.00  0.00    +0.000 A 
ATOM     18  C   UNL     1       2.836   2.678  21.202  0.00  0.00    +0.000 A 
ATOM     19  C   UNL     1       1.801   2.464  22.072  0.00  0.00    +0.000 A 
ATOM     20  O   UNL     1       0.616   2.715  21.459  0.00  0.00    +0.000 OA
ATOM     21  C   UNL     1       0.896   3.109  20.181  0.00  0.00    +0.000 A 
ENDBRANCH   4  17
BRANCH   1  22
ATOM     22  O   UNL     1       5.241   4.434  15.442  0.00  0.00    +0.000 OA
BRANCH  22  23
ATOM     23  C   UNL     1       6.677   4.331  15.421  0.00  0.00    +0.000 C 
BRANCH  23  24
ATOM     24  C   UNL     1       7.162   5.226  16.560  0.00  0.00    +0.000 A 
ATOM     25  C   UNL     1       7.100   6.624  16.458  0.00  0.00    +0.000 A 
ATOM     26  C   UNL     1       7.504   7.423  17.537  0.00  0.00    +0.000 A 
ATOM     27  C   UNL     1       7.985   6.843  18.712  0.00  0.00    +0.000 A 
ATOM     28  C   UNL     1       8.058   5.456  18.823  0.00  0.00    +0.000 A 
ATOM     29  C   UNL     1       7.645   4.662  17.753  0.00  0.00    +0.000 A 
ENDBRANCH  23  24
BRANCH  23  30
ATOM     30  C   UNL     1       7.263   4.842  14.070  0.00  0.00    +0.000 C 
BRANCH  30  31
ATOM     31  N   UNL     1       6.794   4.168  12.847  0.00  0.00    +0.000 NA
ATOM     32  H   UNL     1       6.387   3.268  13.105  0.00  0.00    +0.000 HD
ATOM     33  H   UNL     1       6.024   4.688  12.428  0.00  0.00    +0.000 HD
ENDBRANCH  30  31
ENDBRANCH  23  30
ENDBRANCH  22  23
ENDBRANCH   1  22
TORSDOF 7
ENDMDL
MODEL 5
REMARK VINA RESULT:      -8.0      1.176      1.603
REMARK  Name = 
REMARK  7 active torsions:
REMARK  status: ('A' for Active; 'I' for Inactive)
REMARK    1  A    between atoms: N_1  and  C_2
REMARK    2  A    between atoms: C_2  and  C_3
REMARK    3  A    between atoms: C_3  and  O_4
REMARK    4  A    between atoms: C_3  and  C_25
REMARK    5  A    between atoms: O_4  and  C_5
REMARK    6  A    between atoms: C_8  and  C_9
REMARK    7  A    between atoms: C_14  and  C_15
REMARK                            x       y       z     vdW  Elec       q    Type
REMARK                         _______ _______ _______ _____ _____    ______ ____
ROOT
ATOM      1  C   UNL     1       2.449   6.549  18.589  0.00  0.00    +0.000 A 
ATOM      2  C   UNL     1       2.358   6.211  19.914  0.00  0.00    +0.000 A 
ATOM      3  N   UNL     1       1.783   7.012  20.836  0.00  0.00    +0.000 NA
ATOM      4  C   UNL     1       1.353   8.271  20.483  0.00  0.00    +0.000 A 
ATOM      5  C   UNL     1       1.476   8.761  19.175  0.00  0.00    +0.000 A 
ATOM      6  C   UNL     1       1.961   7.811  18.231  0.00  0.00    +0.000 A 
ENDROOT
BRANCH   5   7
ATOM      7  C   UNL     1       1.500  10.185  18.759  0.00  0.00    +0.000 A 
ATOM      8  C   UNL     1       2.313  10.491  17.666  0.00  0.00    +0.000 A 
ATOM      9  N   UNL     1       2.652  11.804  17.800  0.00  0.00    +0.000 N 
ATOM     10  C   UNL     1       1.596  12.428  18.377  0.00  0.00    +0.000 A 
ATOM     11  N   UNL     1       1.386  13.747  18.250  0.00  0.00    +0.000 NA
ATOM     12  C   UNL     1       0.223  14.138  18.789  0.00  0.00    +0.000 A 
ATOM     13  C   UNL     1      -0.623  13.312  19.519  0.00  0.00    +0.000 A 
ATOM     14  C   UNL     1      -0.298  11.949  19.705  0.00  0.00    +0.000 A 
ATOM     15  C   UNL     1       0.843  11.450  19.040  0.00  0.00    +0.000 A 
ATOM     16  H   UNL     1       3.423  12.272  17.365  0.00  0.00    +0.000 HD
ENDBRANCH   5   7
BRANCH   4  17
ATOM     17  C   UNL     1       0.816   8.929  21.662  0.00  0.00    +0.000 A 
ATOM     18  C   UNL     1      -0.572   9.067  21.998  0.00  0.00    +0.000 A 
ATOM     19  C   UNL     1      -0.627   9.534  23.284  0.00  0.00    +0.000 A 
ATOM     20  O   UNL     1       0.628   9.697  23.776  0.00  0.00    +0.000 OA
ATOM     21  C   UNL     1       1.501   9.315  22.796  0.00  0.00    +0.000 A 
ENDBRANCH   4  17
BRANCH   1  22
ATOM     22  O   UNL     1       2.926   5.783  17.572  0.00  0.00    +0.000 OA
BRANCH  22  23
ATOM     23  C   UNL     1       3.488   4.486  17.846  0.00  0.00    +0.000 C 
BRANCH  23  24
ATOM     24  C   UNL     1       4.889   4.516  17.237  0.00  0.00    +0.000 A 
ATOM     25  C   UNL     1       6.013   4.816  18.022  0.00  0.00    +0.000 A 
ATOM     26  C   UNL     1       7.293   4.789  17.451  0.00  0.00    +0.000 A 
ATOM     27  C   UNL     1       7.464   4.480  16.101  0.00  0.00    +0.000 A 
ATOM     28  C   UNL     1       6.356   4.188  15.309  0.00  0.00    +0.000 A 
ATOM     29  C   UNL     1       5.083   4.204  15.880  0.00  0.00    +0.000 A 
ENDBRANCH  23  24
BRANCH  23  30
ATOM     30  C   UNL     1       2.653   3.352  17.179  0.00  0.00    +0.000 C 
BRANCH  30  31
ATOM     31  N   UNL     1       2.552   2.082  17.917  0.00  0.00    +0.000 NA
ATOM     32  H   UNL     1       1.567   1.892  18.109  0.00  0.00    +0.000 HD
ATOM     33  H   UNL     1       2.855   1.304  17.331  0.00  0.00    +0.000 HD
ENDBRANCH  30  31
ENDBRANCH  23  30
ENDBRANCH  22  23
ENDBRANCH   1  22
TORSDOF 7
ENDMDL
MODEL 6
REMARK VINA RESULT:      -7.9      2.492      8.113
REMARK  Name = 
REMARK  7 active torsions:
REMARK  status: ('A' for Active; 'I' for Inactive)
REMARK    1  A    between atoms: N_1  and  C_2
REMARK    2  A    between atoms: C_2  and  C_3
REMARK    3  A    between atoms: C_3  and  O_4
REMARK    4  A    between atoms: C_3  and  C_25
REMARK    5  A    between atoms: O_4  and  C_5
REMARK    6  A    between atoms: C_8  and  C_9
REMARK    7  A    between atoms: C_14  and  C_15
REMARK                            x       y       z     vdW  Elec       q    Type
REMARK                         _______ _______ _______ _____ _____    ______ ____
ROOT
ATOM      1  C   UNL     1       2.208   8.123  17.902  0.00  0.00    +0.000 A 
ATOM      2  C   UNL     1       1.453   7.135  18.478  0.00  0.00    +0.000 A 
ATOM      3  N   UNL     1       1.951   5.917  18.782  0.00  0.00    +0.000 NA
ATOM      4  C   UNL     1       3.237   5.589  18.419  0.00  0.00    +0.000 A 
ATOM      5  C   UNL     1       4.075   6.488  17.745  0.00  0.00    +0.000 A 
ATOM      6  C   UNL     1       3.530   7.795  17.584  0.00  0.00    +0.000 A 
ENDROOT
BRANCH   5   7
ATOM      7  C   UNL     1       5.251   6.149  16.907  0.00  0.00    +0.000 A 
ATOM      8  C   UNL     1       6.500   6.454  17.450  0.00  0.00    +0.000 A 
ATOM      9  N   UNL     1       7.344   6.621  16.394  0.00  0.00    +0.000 N 
ATOM     10  C   UNL     1       6.935   5.768  15.423  0.00  0.00    +0.000 A 
ATOM     11  N   UNL     1       7.759   5.333  14.457  0.00  0.00    +0.000 NA
ATOM     12  C   UNL     1       7.193   4.402  13.676  0.00  0.00    +0.000 A 
ATOM     13  C   UNL     1       5.862   4.013  13.756  0.00  0.00    +0.000 A 
ATOM     14  C   UNL     1       5.013   4.580  14.734  0.00  0.00    +0.000 A 
ATOM     15  C   UNL     1       5.591   5.461  15.674  0.00  0.00    +0.000 A 
ATOM     16  H   UNL     1       8.222   7.102  16.397  0.00  0.00    +0.000 HD
ENDBRANCH   5   7
BRANCH   4  17
ATOM     17  C   UNL     1       3.503   4.219  18.829  0.00  0.00    +0.000 A 
ATOM     18  C   UNL     1       4.725   3.724  19.393  0.00  0.00    +0.000 A 
ATOM     19  C   UNL     1       4.472   2.457  19.844  0.00  0.00    +0.000 A 
ATOM     20  O   UNL     1       3.178   2.125  19.603  0.00  0.00    +0.000 OA
ATOM     21  C   UNL     1       2.588   3.200  19.001  0.00  0.00    +0.000 A 
ENDBRANCH   4  17
BRANCH   1  22
ATOM     22  O   UNL     1       1.830   9.403  17.637  0.00  0.00    +0.000 OA
BRANCH  22  23
ATOM     23  C   UNL     1       1.365  10.254  18.701  0.00  0.00    +0.000 C 
BRANCH  23  24
ATOM     24  C   UNL     1      -0.123  10.468  18.427  0.00  0.00    +0.000 A 
ATOM     25  C   UNL     1      -0.858  11.429  19.136  0.00  0.00    +0.000 A 
ATOM     26  C   UNL     1      -2.210  11.641  18.831  0.00  0.00    +0.000 A 
ATOM     27  C   UNL     1      -2.841  10.893  17.837  0.00  0.00    +0.000 A 
ATOM     28  C   UNL     1      -2.124   9.930  17.130  0.00  0.00    +0.000 A 
ATOM     29  C   UNL     1      -0.776   9.728  17.426  0.00  0.00    +0.000 A 
ENDBRANCH  23  24
BRANCH  23  30
ATOM     30  C   UNL     1       2.100  11.628  18.692  0.00  0.00    +0.000 C 
BRANCH  30  31
ATOM     31  N   UNL     1       2.495  12.159  17.376  0.00  0.00    +0.000 NA
ATOM     32  H   UNL     1       3.294  12.783  17.500  0.00  0.00    +0.000 HD
ATOM     33  H   UNL     1       2.844  11.409  16.780  0.00  0.00    +0.000 HD
ENDBRANCH  30  31
ENDBRANCH  23  30
ENDBRANCH  22  23
ENDBRANCH   1  22
TORSDOF 7
ENDMDL
MODEL 7
REMARK VINA RESULT:      -7.7      2.561      8.072
REMARK  Name = 
REMARK  7 active torsions:
REMARK  status: ('A' for Active; 'I' for Inactive)
REMARK    1  A    between atoms: N_1  and  C_2
REMARK    2  A    between atoms: C_2  and  C_3
REMARK    3  A    between atoms: C_3  and  O_4
REMARK    4  A    between atoms: C_3  and  C_25
REMARK    5  A    between atoms: O_4  and  C_5
REMARK    6  A    between atoms: C_8  and  C_9
REMARK    7  A    between atoms: C_14  and  C_15
REMARK                            x       y       z     vdW  Elec       q    Type
REMARK                         _______ _______ _______ _____ _____    ______ ____
ROOT
ATOM      1  C   UNL     1       2.227   7.189  19.784  0.00  0.00    +0.000 A 
ATOM      2  C   UNL     1       1.488   6.069  20.065  0.00  0.00    +0.000 A 
ATOM      3  N   UNL     1       1.972   4.818  19.921  0.00  0.00    +0.000 NA
ATOM      4  C   UNL     1       3.219   4.620  19.375  0.00  0.00    +0.000 A 
ATOM      5  C   UNL     1       4.032   5.686  18.967  0.00  0.00    +0.000 A 
ATOM      6  C   UNL     1       3.515   6.977  19.278  0.00  0.00    +0.000 A 
ENDROOT
BRANCH   5   7
ATOM      7  C   UNL     1       5.137   5.633  17.978  0.00  0.00    +0.000 A 
ATOM      8  C   UNL     1       6.403   5.976  18.453  0.00  0.00    +0.000 A 
ATOM      9  N   UNL     1       7.108   6.419  17.374  0.00  0.00    +0.000 N 
ATOM     10  C   UNL     1       6.677   5.709  16.303  0.00  0.00    +0.000 A 
ATOM     11  N   UNL     1       7.428   5.545  15.202  0.00  0.00    +0.000 NA
ATOM     12  C   UNL     1       6.870   4.708  14.317  0.00  0.00    +0.000 A 
ATOM     13  C   UNL     1       5.599   4.163  14.443  0.00  0.00    +0.000 A 
ATOM     14  C   UNL     1       4.812   4.452  15.582  0.00  0.00    +0.000 A 
ATOM     15  C   UNL     1       5.404   5.214  16.612  0.00  0.00    +0.000 A 
ATOM     16  H   UNL     1       7.932   6.988  17.387  0.00  0.00    +0.000 HD
ENDBRANCH   5   7
BRANCH   4  17
ATOM     17  C   UNL     1       3.475   3.190  19.298  0.00  0.00    +0.000 A 
ATOM     18  C   UNL     1       3.090   2.316  18.228  0.00  0.00    +0.000 A 
ATOM     19  C   UNL     1       3.722   1.121  18.442  0.00  0.00    +0.000 A 
ATOM     20  O   UNL     1       4.475   1.186  19.570  0.00  0.00    +0.000 OA
ATOM     21  C   UNL     1       4.336   2.446  20.079  0.00  0.00    +0.000 A 
ENDBRANCH   4  17
BRANCH   1  22
ATOM     22  O   UNL     1       1.867   8.486  19.976  0.00  0.00    +0.000 OA
BRANCH  22  23
ATOM     23  C   UNL     1       0.689   8.804  20.741  0.00  0.00    +0.000 C 
BRANCH  23  24
ATOM     24  C   UNL     1       0.115  10.063  20.092  0.00  0.00    +0.000 A 
ATOM     25  C   UNL     1       0.575  11.337  20.455  0.00  0.00    +0.000 A 
ATOM     26  C   UNL     1       0.068  12.474  19.809  0.00  0.00    +0.000 A 
ATOM     27  C   UNL     1      -0.905  12.354  18.816  0.00  0.00    +0.000 A 
ATOM     28  C   UNL     1      -1.375  11.095  18.452  0.00  0.00    +0.000 A 
ATOM     29  C   UNL     1      -0.862   9.963  19.086  0.00  0.00    +0.000 A 
ENDBRANCH  23  24
BRANCH  23  30
ATOM     30  C   UNL     1       1.040   9.099  22.230  0.00  0.00    +0.000 C 
BRANCH  30  31
ATOM     31  N   UNL     1      -0.089   9.194  23.170  0.00  0.00    +0.000 NA
ATOM     32  H   UNL     1      -0.304  10.181  23.325  0.00  0.00    +0.000 HD
ATOM     33  H   UNL     1      -0.935   8.809  22.751  0.00  0.00    +0.000 HD
ENDBRANCH  30  31
ENDBRANCH  23  30
ENDBRANCH  22  23
ENDBRANCH   1  22
TORSDOF 7
ENDMDL
MODEL 8
REMARK VINA RESULT:      -7.6      2.249      7.832
REMARK  Name = 
REMARK  7 active torsions:
REMARK  status: ('A' for Active; 'I' for Inactive)
REMARK    1  A    between atoms: N_1  and  C_2
REMARK    2  A    between atoms: C_2  and  C_3
REMARK    3  A    between atoms: C_3  and  O_4
REMARK    4  A    between atoms: C_3  and  C_25
REMARK    5  A    between atoms: O_4  and  C_5
REMARK    6  A    between atoms: C_8  and  C_9
REMARK    7  A    between atoms: C_14  and  C_15
REMARK                            x       y       z     vdW  Elec       q    Type
REMARK                         _______ _______ _______ _____ _____    ______ ____
ROOT
ATOM      1  C   UNL     1       1.811   8.506  19.057  0.00  0.00    +0.000 A 
ATOM      2  C   UNL     1       1.101   7.999  20.114  0.00  0.00    +0.000 A 
ATOM      3  N   UNL     1       1.322   6.767  20.620  0.00  0.00    +0.000 NA
ATOM      4  C   UNL     1       2.219   5.922  20.008  0.00  0.00    +0.000 A 
ATOM      5  C   UNL     1       2.939   6.298  18.866  0.00  0.00    +0.000 A 
ATOM      6  C   UNL     1       2.758   7.656  18.474  0.00  0.00    +0.000 A 
ENDROOT
BRANCH   5   7
ATOM      7  C   UNL     1       3.551   5.392  17.863  0.00  0.00    +0.000 A 
ATOM      8  C   UNL     1       2.770   4.308  17.458  0.00  0.00    +0.000 A 
ATOM      9  N   UNL     1       3.641   3.347  17.041  0.00  0.00    +0.000 N 
ATOM     10  C   UNL     1       4.701   3.987  16.490  0.00  0.00    +0.000 A 
ATOM     11  N   UNL     1       5.508   3.397  15.594  0.00  0.00    +0.000 NA
ATOM     12  C   UNL     1       6.414   4.241  15.081  0.00  0.00    +0.000 A 
ATOM     13  C   UNL     1       6.602   5.549  15.510  0.00  0.00    +0.000 A 
ATOM     14  C   UNL     1       5.783   6.086  16.530  0.00  0.00    +0.000 A 
ATOM     15  C   UNL     1       4.720   5.289  17.007  0.00  0.00    +0.000 A 
ATOM     16  H   UNL     1       3.454   2.367  16.947  0.00  0.00    +0.000 HD
ENDBRANCH   5   7
BRANCH   4  17
ATOM     17  C   UNL     1       2.235   4.658  20.727  0.00  0.00    +0.000 A 
ATOM     18  C   UNL     1       1.126   3.763  20.895  0.00  0.00    +0.000 A 
ATOM     19  C   UNL     1       1.625   2.603  21.422  0.00  0.00    +0.000 A 
ATOM     20  O   UNL     1       2.967   2.708  21.595  0.00  0.00    +0.000 OA
ATOM     21  C   UNL     1       3.337   3.949  21.159  0.00  0.00    +0.000 A 
ENDBRANCH   4  17
BRANCH   1  22
ATOM     22  O   UNL     1       1.729   9.758  18.531  0.00  0.00    +0.000 OA
BRANCH  22  23
ATOM     23  C   UNL     1       1.066  10.807  19.261  0.00  0.00    +0.000 C 
BRANCH  23  24
ATOM     24  C   UNL     1      -0.365  10.829  18.725  0.00  0.00    +0.000 A 
ATOM     25  C   UNL     1      -1.331  11.685  19.277  0.00  0.00    +0.000 A 
ATOM     26  C   UNL     1      -2.623  11.723  18.735  0.00  0.00    +0.000 A 
ATOM     27  C   UNL     1      -2.968  10.905  17.658  0.00  0.00    +0.000 A 
ATOM     28  C   UNL     1      -2.021  10.047  17.106  0.00  0.00    +0.000 A 
ATOM     29  C   UNL     1      -0.732  10.017  17.638  0.00  0.00    +0.000 A 
ENDBRANCH  23  24
BRANCH  23  30
ATOM     30  C   UNL     1       1.740  12.189  19.008  0.00  0.00    +0.000 C 
BRANCH  30  31
ATOM     31  N   UNL     1       2.278  12.426  17.658  0.00  0.00    +0.000 NA
ATOM     32  H   UNL     1       1.499  12.614  17.024  0.00  0.00    +0.000 HD
ATOM     33  H   UNL     1       2.836  13.279  17.642  0.00  0.00    +0.000 HD
ENDBRANCH  30  31
ENDBRANCH  23  30
ENDBRANCH  22  23
ENDBRANCH   1  22
TORSDOF 7
ENDMDL
MODEL 9
REMARK VINA RESULT:      -7.6      2.594      7.848
REMARK  Name = 
REMARK  7 active torsions:
REMARK  status: ('A' for Active; 'I' for Inactive)
REMARK    1  A    between atoms: N_1  and  C_2
REMARK    2  A    between atoms: C_2  and  C_3
REMARK    3  A    between atoms: C_3  and  O_4
REMARK    4  A    between atoms: C_3  and  C_25
REMARK    5  A    between atoms: O_4  and  C_5
REMARK    6  A    between atoms: C_8  and  C_9
REMARK    7  A    between atoms: C_14  and  C_15
REMARK                            x       y       z     vdW  Elec       q    Type
REMARK                         _______ _______ _______ _____ _____    ______ ____
ROOT
ATOM      1  C   UNL     1       1.658   7.476  20.464  0.00  0.00    +0.000 A 
ATOM      2  C   UNL     1       1.065   6.292  20.821  0.00  0.00    +0.000 A 
ATOM      3  N   UNL     1       1.563   5.089  20.467  0.00  0.00    +0.000 NA
ATOM      4  C   UNL     1       2.651   5.013  19.628  0.00  0.00    +0.000 A 
ATOM      5  C   UNL     1       3.287   6.158  19.126  0.00  0.00    +0.000 A 
ATOM      6  C   UNL     1       2.794   7.386  19.652  0.00  0.00    +0.000 A 
ENDROOT
BRANCH   5   7
ATOM      7  C   UNL     1       4.122   6.246  17.902  0.00  0.00    +0.000 A 
ATOM      8  C   UNL     1       4.092   7.466  17.226  0.00  0.00    +0.000 A 
ATOM      9  N   UNL     1       4.402   7.189  15.928  0.00  0.00    +0.000 N 
ATOM     10  C   UNL     1       5.279   6.156  15.943  0.00  0.00    +0.000 A 
ATOM     11  N   UNL     1       6.126   5.919  14.930  0.00  0.00    +0.000 NA
ATOM     12  C   UNL     1       6.990   4.931  15.200  0.00  0.00    +0.000 A 
ATOM     13  C   UNL     1       6.947   4.138  16.340  0.00  0.00    +0.000 A 
ATOM     14  C   UNL     1       5.966   4.371  17.331  0.00  0.00    +0.000 A 
ATOM     15  C   UNL     1       5.119   5.489  17.165  0.00  0.00    +0.000 A 
ATOM     16  H   UNL     1       4.210   7.762  15.129  0.00  0.00    +0.000 HD
ENDBRANCH   5   7
BRANCH   4  17
ATOM     17  C   UNL     1       2.953   3.613  19.378  0.00  0.00    +0.000 A 
ATOM     18  C   UNL     1       2.539   2.846  18.239  0.00  0.00    +0.000 A 
ATOM     19  C   UNL     1       3.225   1.662  18.285  0.00  0.00    +0.000 A 
ATOM     20  O   UNL     1       4.039   1.635  19.371  0.00  0.00    +0.000 OA
ATOM     21  C   UNL     1       3.884   2.825  20.024  0.00  0.00    +0.000 A 
ENDBRANCH   4  17
BRANCH   1  22
ATOM     22  O   UNL     1       1.289   8.730  20.839  0.00  0.00    +0.000 OA
BRANCH  22  23
ATOM     23  C   UNL     1      -0.105   9.060  20.987  0.00  0.00    +0.000 C 
BRANCH  23  24
ATOM     24  C   UNL     1      -0.327  10.280  20.093  0.00  0.00    +0.000 A 
ATOM     25  C   UNL     1      -1.137  10.201  18.950  0.00  0.00    +0.000 A 
ATOM     26  C   UNL     1      -1.366  11.346  18.174  0.00  0.00    +0.000 A 
ATOM     27  C   UNL     1      -0.782  12.566  18.517  0.00  0.00    +0.000 A 
ATOM     28  C   UNL     1       0.030  12.656  19.646  0.00  0.00    +0.000 A 
ATOM     29  C   UNL     1       0.248  11.519  20.424  0.00  0.00    +0.000 A 
ENDBRANCH  23  24
BRANCH  23  30
ATOM     30  C   UNL     1      -0.450   9.424  22.462  0.00  0.00    +0.000 C 
BRANCH  30  31
ATOM     31  N   UNL     1       0.685   9.594  23.385  0.00  0.00    +0.000 NA
ATOM     32  H   UNL     1       0.988  10.569  23.355  0.00  0.00    +0.000 HD
ATOM     33  H   UNL     1       0.386   9.447  24.348  0.00  0.00    +0.000 HD
ENDBRANCH  30  31
ENDBRANCH  23  30
ENDBRANCH  22  23
ENDBRANCH   1  22
TORSDOF 7
ENDMDL
