MODEL 1
REMARK VINA RESULT:      -7.9      0.000      0.000
REMARK  Name = 
REMARK  8 active torsions:
REMARK  status: ('A' for Active; 'I' for Inactive)
REMARK    1  A    between atoms: C_1  and  O_2
REMARK    2  A    between atoms: O_2  and  C_3
REMARK    3  A    between atoms: C_5  and  C_6
REMARK    4  A    between atoms: N_7  and  N_8
REMARK    5  A    between atoms: N_8  and  C_9
REMARK    6  A    between atoms: C_20  and  O_21
REMARK    7  A    between atoms: O_21  and  C_22
REMARK    8  A    between atoms: C_23  and  O_24
REMARK                            x       y       z     vdW  Elec       q    Type
REMARK                         _______ _______ _______ _____ _____    ______ ____
ROOT
ATOM      1  C   UNL     1       2.510   7.083  19.106  0.00  0.00    +0.000 C 
ATOM      2  N   UNL     1       1.948   7.680  20.110  0.00  0.00    +0.000 NA
ENDROOT
BRANCH   1   5
ATOM      3  C   UNL     1       3.038   3.408  19.870  0.00  0.00    +0.000 A 
ATOM      4  C   UNL     1       2.437   4.666  19.735  0.00  0.00    +0.000 A 
ATOM      5  C   UNL     1       3.162   5.764  19.267  0.00  0.00    +0.000 A 
ATOM      6  C   UNL     1       4.512   5.616  18.947  0.00  0.00    +0.000 A 
ATOM      7  C   UNL     1       5.133   4.367  19.075  0.00  0.00    +0.000 A 
ATOM      8  C   UNL     1       4.393   3.262  19.536  0.00  0.00    +0.000 A 
BRANCH   3  10
ATOM      9  C   UNL     1       1.518   2.730  21.605  0.00  0.00    +0.000 C 
ATOM     10  O   UNL     1       2.177   2.470  20.375  0.00  0.00    +0.000 OA
ENDBRANCH   3  10
BRANCH   7  11
ATOM     11  O   UNL     1       6.485   4.381  18.834  0.00  0.00    +0.000 OA
ATOM     12  C   UNL     1       7.164   5.625  18.986  0.00  0.00    +0.000 C 
ENDBRANCH   7  11
BRANCH   8  13
ATOM     13  O   UNL     1       5.015   2.059  19.723  0.00  0.00    +0.000 OA
ATOM     14  H   UNL     1       5.833   2.259  20.207  0.00  0.00    +0.000 HD
ENDBRANCH   8  13
ENDBRANCH   1   5
BRANCH   2  15
ATOM     15  N   UNL     1       1.350   8.872  19.821  0.00  0.00    +0.000 N 
ATOM     16  H   UNL     1       0.811   8.946  18.946  0.00  0.00    +0.000 HD
BRANCH  15  17
ATOM     17  C   UNL     1       0.575   9.455  20.873  0.00  0.00    +0.000 A 
ATOM     18  C   UNL     1       0.680   8.959  22.183  0.00  0.00    +0.000 A 
ATOM     19  C   UNL     1      -0.038   9.538  23.224  0.00  0.00    +0.000 A 
ATOM     20  C   UNL     1      -0.860  10.629  22.966  0.00  0.00    +0.000 A 
ATOM     21  C   UNL     1      -0.961  11.157  21.667  0.00  0.00    +0.000 A 
ATOM     22  C   UNL     1      -1.779  12.258  21.401  0.00  0.00    +0.000 A 
ATOM     23  C   UNL     1      -1.861  12.766  20.113  0.00  0.00    +0.000 A 
ATOM     24  C   UNL     1      -1.113  12.153  19.129  0.00  0.00    +0.000 A 
ATOM     25  N   UNL     1      -0.313  11.082  19.340  0.00  0.00    +0.000 NA
ATOM     26  C   UNL     1      -0.229  10.581  20.598  0.00  0.00    +0.000 A 
ENDBRANCH  15  17
ENDBRANCH   2  15
TORSDOF 6
ENDMDL
MODEL 2
REMARK VINA RESULT:      -7.7      1.162      1.165
REMARK  Name = 
REMARK  8 active torsions:
REMARK  status: ('A' for Active; 'I' for Inactive)
REMARK    1  A    between atoms: C_1  and  O_2
REMARK    2  A    between atoms: O_2  and  C_3
REMARK    3  A    between atoms: C_5  and  C_6
REMARK    4  A    between atoms: N_7  and  N_8
REMARK    5  A    between atoms: N_8  and  C_9
REMARK    6  A    between atoms: C_20  and  O_21
REMARK    7  A    between atoms: O_21  and  C_22
REMARK    8  A    between atoms: C_23  and  O_24
REMARK                            x       y       z     vdW  Elec       q    Type
REMARK                         _______ _______ _______ _____ _____    ______ ____
ROOT
ATOM      1  C   UNL     1       2.414   7.431  18.499  0.00  0.00    +0.000 C 
ATOM      2  N   UNL     1       1.966   7.906  19.619  0.00  0.00    +0.000 NA
ENDROOT
BRANCH   1   5
ATOM      3  C   UNL     1       2.601   3.679  17.992  0.00  0.00    +0.000 A 
ATOM      4  C   UNL     1       2.103   4.984  18.102  0.00  0.00    +0.000 A 
ATOM      5  C   UNL     1       2.948   6.053  18.409  0.00  0.00    +0.000 A 
ATOM      6  C   UNL     1       4.305   5.821  18.632  0.00  0.00    +0.000 A 
ATOM      7  C   UNL     1       4.824   4.524  18.529  0.00  0.00    +0.000 A 
ATOM      8  C   UNL     1       3.969   3.453  18.206  0.00  0.00    +0.000 A 
BRANCH   3  10
ATOM      9  C   UNL     1       0.820   2.273  18.785  0.00  0.00    +0.000 C 
ATOM     10  O   UNL     1       1.616   2.767  17.719  0.00  0.00    +0.000 OA
ENDBRANCH   3  10
BRANCH   7  11
ATOM     11  O   UNL     1       6.147   4.415  18.879  0.00  0.00    +0.000 OA
ATOM     12  C   UNL     1       7.115   4.778  17.898  0.00  0.00    +0.000 C 
ENDBRANCH   7  11
BRANCH   8  13
ATOM     13  O   UNL     1       4.463   2.178  18.170  0.00  0.00    +0.000 OA
ATOM     14  H   UNL     1       3.737   1.606  18.467  0.00  0.00    +0.000 HD
ENDBRANCH   8  13
ENDBRANCH   1   5
BRANCH   2  15
ATOM     15  N   UNL     1       1.467   9.174  19.558  0.00  0.00    +0.000 N 
ATOM     16  H   UNL     1       0.969   9.460  18.703  0.00  0.00    +0.000 HD
BRANCH  15  17
ATOM     17  C   UNL     1       0.697   9.599  20.687  0.00  0.00    +0.000 A 
ATOM     18  C   UNL     1       0.858   8.962  21.929  0.00  0.00    +0.000 A 
ATOM     19  C   UNL     1       0.144   9.385  23.044  0.00  0.00    +0.000 A 
ATOM     20  C   UNL     1      -0.729  10.461  22.932  0.00  0.00    +0.000 A 
ATOM     21  C   UNL     1      -0.886  11.129  21.705  0.00  0.00    +0.000 A 
ATOM     22  C   UNL     1      -1.756  12.216  21.585  0.00  0.00    +0.000 A 
ATOM     23  C   UNL     1      -1.894  12.863  20.366  0.00  0.00    +0.000 A 
ATOM     24  C   UNL     1      -1.147  12.400  19.302  0.00  0.00    +0.000 A 
ATOM     25  N   UNL     1      -0.298  11.349  19.371  0.00  0.00    +0.000 NA
ATOM     26  C   UNL     1      -0.160  10.712  20.561  0.00  0.00    +0.000 A 
ENDBRANCH  15  17
ENDBRANCH   2  15
TORSDOF 6
ENDMDL
MODEL 3
REMARK VINA RESULT:      -7.5      0.791      2.618
REMARK  Name = 
REMARK  8 active torsions:
REMARK  status: ('A' for Active; 'I' for Inactive)
REMARK    1  A    between atoms: C_1  and  O_2
REMARK    2  A    between atoms: O_2  and  C_3
REMARK    3  A    between atoms: C_5  and  C_6
REMARK    4  A    between atoms: N_7  and  N_8
REMARK    5  A    between atoms: N_8  and  C_9
REMARK    6  A    between atoms: C_20  and  O_21
REMARK    7  A    between atoms: O_21  and  C_22
REMARK    8  A    between atoms: C_23  and  O_24
REMARK                            x       y       z     vdW  Elec       q    Type
REMARK                         _______ _______ _______ _____ _____    ______ ____
ROOT
ATOM      1  C   UNL     1       2.359   7.320  19.011  0.00  0.00    +0.000 C 
ATOM      2  N   UNL     1       1.907   7.925  20.064  0.00  0.00    +0.000 NA
ENDROOT
BRANCH   1   5
ATOM      3  C   UNL     1       4.866   4.540  18.411  0.00  0.00    +0.000 A 
ATOM      4  C   UNL     1       4.173   5.753  18.305  0.00  0.00    +0.000 A 
ATOM      5  C   UNL     1       3.069   6.025  19.116  0.00  0.00    +0.000 A 
ATOM      6  C   UNL     1       2.631   5.068  20.034  0.00  0.00    +0.000 A 
ATOM      7  C   UNL     1       3.309   3.849  20.155  0.00  0.00    +0.000 A 
ATOM      8  C   UNL     1       4.429   3.587  19.343  0.00  0.00    +0.000 A 
BRANCH   3  10
ATOM      9  C   UNL     1       5.618   3.996  16.194  0.00  0.00    +0.000 C 
ATOM     10  O   UNL     1       5.894   4.446  17.511  0.00  0.00    +0.000 OA
ENDBRANCH   3  10
BRANCH   7  11
ATOM     11  O   UNL     1       2.714   2.956  21.012  0.00  0.00    +0.000 OA
ATOM     12  C   UNL     1       1.292   2.981  21.100  0.00  0.00    +0.000 C 
ENDBRANCH   7  11
BRANCH   8  13
ATOM     13  O   UNL     1       5.050   2.371  19.416  0.00  0.00    +0.000 OA
ATOM     14  H   UNL     1       4.692   1.848  18.680  0.00  0.00    +0.000 HD
ENDBRANCH   8  13
ENDBRANCH   1   5
BRANCH   2  15
ATOM     15  N   UNL     1       1.240   9.092  19.827  0.00  0.00    +0.000 N 
ATOM     16  H   UNL     1       0.673   9.161  18.970  0.00  0.00    +0.000 HD
BRANCH  15  17
ATOM     17  C   UNL     1       0.467   9.603  20.916  0.00  0.00    +0.000 A 
ATOM     18  C   UNL     1       0.600   9.044  22.199  0.00  0.00    +0.000 A 
ATOM     19  C   UNL     1      -0.117   9.553  23.276  0.00  0.00    +0.000 A 
ATOM     20  C   UNL     1      -0.965  10.637  23.084  0.00  0.00    +0.000 A 
ATOM     21  C   UNL     1      -1.094  11.229  21.815  0.00  0.00    +0.000 A 
ATOM     22  C   UNL     1      -1.938  12.324  21.616  0.00  0.00    +0.000 A 
ATOM     23  C   UNL     1      -2.048  12.895  20.356  0.00  0.00    +0.000 A 
ATOM     24  C   UNL     1      -1.300  12.349  19.333  0.00  0.00    +0.000 A 
ATOM     25  N   UNL     1      -0.475  11.287  19.480  0.00  0.00    +0.000 NA
ATOM     26  C   UNL     1      -0.364  10.724  20.709  0.00  0.00    +0.000 A 
ENDBRANCH  15  17
ENDBRANCH   2  15
TORSDOF 6
ENDMDL
MODEL 4
REMARK VINA RESULT:      -7.4      4.232      8.359
REMARK  Name = 
REMARK  8 active torsions:
REMARK  status: ('A' for Active; 'I' for Inactive)
REMARK    1  A    between atoms: C_1  and  O_2
REMARK    2  A    between atoms: O_2  and  C_3
REMARK    3  A    between atoms: C_5  and  C_6
REMARK    4  A    between atoms: N_7  and  N_8
REMARK    5  A    between atoms: N_8  and  C_9
REMARK    6  A    between atoms: C_20  and  O_21
REMARK    7  A    between atoms: O_21  and  C_22
REMARK    8  A    between atoms: C_23  and  O_24
REMARK                            x       y       z     vdW  Elec       q    Type
REMARK                         _______ _______ _______ _____ _____    ______ ____
ROOT
ATOM      1  C   UNL     1       1.430   8.848  19.455  0.00  0.00    +0.000 C 
ATOM      2  N   UNL     1       1.467   7.922  20.361  0.00  0.00    +0.000 NA
ENDROOT
BRANCH   1   5
ATOM      3  C   UNL     1      -1.427  10.994  18.188  0.00  0.00    +0.000 A 
ATOM      4  C   UNL     1      -0.371  10.075  18.232  0.00  0.00    +0.000 A 
ATOM      5  C   UNL     1       0.330   9.839  19.417  0.00  0.00    +0.000 A 
ATOM      6  C   UNL     1      -0.008  10.543  20.573  0.00  0.00    +0.000 A 
ATOM      7  C   UNL     1      -1.060  11.467  20.552  0.00  0.00    +0.000 A 
ATOM      8  C   UNL     1      -1.771  11.690  19.357  0.00  0.00    +0.000 A 
BRANCH   3  10
ATOM      9  C   UNL     1      -2.682  10.016  16.386  0.00  0.00    +0.000 C 
ATOM     10  O   UNL     1      -1.966  11.111  16.934  0.00  0.00    +0.000 OA
ENDBRANCH   3  10
BRANCH   7  11
ATOM     11  O   UNL     1      -1.219  12.169  21.721  0.00  0.00    +0.000 OA
ATOM     12  C   UNL     1      -1.229  11.423  22.935  0.00  0.00    +0.000 C 
ENDBRANCH   7  11
BRANCH   8  13
ATOM     13  O   UNL     1      -2.754  12.640  19.320  0.00  0.00    +0.000 OA
ATOM     14  H   UNL     1      -2.460  13.298  18.669  0.00  0.00    +0.000 HD
ENDBRANCH   8  13
ENDBRANCH   1   5
BRANCH   2  15
ATOM     15  N   UNL     1       2.551   7.096  20.308  0.00  0.00    +0.000 N 
ATOM     16  H   UNL     1       3.191   7.082  21.115  0.00  0.00    +0.000 HD
BRANCH  15  17
ATOM     17  C   UNL     1       2.290   5.743  19.922  0.00  0.00    +0.000 A 
ATOM     18  C   UNL     1       1.311   4.995  20.598  0.00  0.00    +0.000 A 
ATOM     19  C   UNL     1       1.019   3.691  20.212  0.00  0.00    +0.000 A 
ATOM     20  C   UNL     1       1.694   3.127  19.137  0.00  0.00    +0.000 A 
ATOM     21  C   UNL     1       2.660   3.865  18.431  0.00  0.00    +0.000 A 
ATOM     22  C   UNL     1       3.338   3.307  17.344  0.00  0.00    +0.000 A 
ATOM     23  C   UNL     1       4.285   4.056  16.660  0.00  0.00    +0.000 A 
ATOM     24  C   UNL     1       4.518   5.347  17.086  0.00  0.00    +0.000 A 
ATOM     25  N   UNL     1       3.889   5.925  18.135  0.00  0.00    +0.000 NA
ATOM     26  C   UNL     1       2.963   5.198  18.809  0.00  0.00    +0.000 A 
ENDBRANCH  15  17
ENDBRANCH   2  15
TORSDOF 6
ENDMDL
MODEL 5
REMARK VINA RESULT:      -7.4      1.786      2.990
REMARK  Name = 
REMARK  8 active torsions:
REMARK  status: ('A' for Active; 'I' for Inactive)
REMARK    1  A    between atoms: C_1  and  O_2
REMARK    2  A    between atoms: O_2  and  C_3
REMARK    3  A    between atoms: C_5  and  C_6
REMARK    4  A    between atoms: N_7  and  N_8
REMARK    5  A    between atoms: N_8  and  C_9
REMARK    6  A    between atoms: C_20  and  O_21
REMARK    7  A    between atoms: O_21  and  C_22
REMARK    8  A    between atoms: C_23  and  O_24
REMARK                            x       y       z     vdW  Elec       q    Type
REMARK                         _______ _______ _______ _____ _____    ______ ____
ROOT
ATOM      1  C   UNL     1       2.675   7.118  18.085  0.00  0.00    +0.000 C 
ATOM      2  N   UNL     1       2.656   8.411  18.000  0.00  0.00    +0.000 NA
ENDROOT
BRANCH   1   5
ATOM      3  C   UNL     1       5.244   4.412  18.753  0.00  0.00    +0.000 A 
ATOM      4  C   UNL     1       4.048   5.142  18.755  0.00  0.00    +0.000 A 
ATOM      5  C   UNL     1       3.952   6.369  18.095  0.00  0.00    +0.000 A 
ATOM      6  C   UNL     1       5.067   6.892  17.440  0.00  0.00    +0.000 A 
ATOM      7  C   UNL     1       6.273   6.180  17.426  0.00  0.00    +0.000 A 
ATOM      8  C   UNL     1       6.360   4.938  18.083  0.00  0.00    +0.000 A 
BRANCH   3  10
ATOM      9  C   UNL     1       3.869   2.776  19.853  0.00  0.00    +0.000 C 
ATOM     10  O   UNL     1       5.152   3.256  19.481  0.00  0.00    +0.000 OA
ENDBRANCH   3  10
BRANCH   7  11
ATOM     11  O   UNL     1       7.319   6.853  16.844  0.00  0.00    +0.000 OA
ATOM     12  C   UNL     1       7.796   8.021  17.508  0.00  0.00    +0.000 C 
ENDBRANCH   7  11
BRANCH   8  13
ATOM     13  O   UNL     1       7.555   4.275  18.126  0.00  0.00    +0.000 OA
ATOM     14  H   UNL     1       7.837   4.182  17.201  0.00  0.00    +0.000 HD
ENDBRANCH   8  13
ENDBRANCH   1   5
BRANCH   2  15
ATOM     15  N   UNL     1       1.418   8.982  18.038  0.00  0.00    +0.000 N 
ATOM     16  H   UNL     1       0.605   8.369  18.200  0.00  0.00    +0.000 HD
BRANCH  15  17
ATOM     17  C   UNL     1       1.284  10.132  18.878  0.00  0.00    +0.000 A 
ATOM     18  C   UNL     1       1.689  11.395  18.413  0.00  0.00    +0.000 A 
ATOM     19  C   UNL     1       1.532  12.528  19.203  0.00  0.00    +0.000 A 
ATOM     20  C   UNL     1       0.954  12.413  20.461  0.00  0.00    +0.000 A 
ATOM     21  C   UNL     1       0.518  11.163  20.936  0.00  0.00    +0.000 A 
ATOM     22  C   UNL     1      -0.070  11.040  22.197  0.00  0.00    +0.000 A 
ATOM     23  C   UNL     1      -0.497   9.798  22.645  0.00  0.00    +0.000 A 
ATOM     24  C   UNL     1      -0.323   8.716  21.807  0.00  0.00    +0.000 A 
ATOM     25  N   UNL     1       0.247   8.788  20.582  0.00  0.00    +0.000 NA
ATOM     26  C   UNL     1       0.667  10.000  20.140  0.00  0.00    +0.000 A 
ENDBRANCH  15  17
ENDBRANCH   2  15
TORSDOF 6
ENDMDL
MODEL 6
REMARK VINA RESULT:      -7.4      1.643      2.054
REMARK  Name = 
REMARK  8 active torsions:
REMARK  status: ('A' for Active; 'I' for Inactive)
REMARK    1  A    between atoms: C_1  and  O_2
REMARK    2  A    between atoms: O_2  and  C_3
REMARK    3  A    between atoms: C_5  and  C_6
REMARK    4  A    between atoms: N_7  and  N_8
REMARK    5  A    between atoms: N_8  and  C_9
REMARK    6  A    between atoms: C_20  and  O_21
REMARK    7  A    between atoms: O_21  and  C_22
REMARK    8  A    between atoms: C_23  and  O_24
REMARK                            x       y       z     vdW  Elec       q    Type
REMARK                         _______ _______ _______ _____ _____    ______ ____
ROOT
ATOM      1  C   UNL     1       2.903   7.370  17.918  0.00  0.00    +0.000 C 
ATOM      2  N   UNL     1       1.996   7.999  18.596  0.00  0.00    +0.000 NA
ENDROOT
BRANCH   1   5
ATOM      3  C   UNL     1       3.107   3.831  19.261  0.00  0.00    +0.000 A 
ATOM      4  C   UNL     1       2.601   5.066  18.836  0.00  0.00    +0.000 A 
ATOM      5  C   UNL     1       3.453   6.077  18.386  0.00  0.00    +0.000 A 
ATOM      6  C   UNL     1       4.832   5.868  18.378  0.00  0.00    +0.000 A 
ATOM      7  C   UNL     1       5.360   4.641  18.800  0.00  0.00    +0.000 A 
ATOM      8  C   UNL     1       4.495   3.621  19.240  0.00  0.00    +0.000 A 
BRANCH   3  10
ATOM      9  C   UNL     1       1.065   2.644  18.813  0.00  0.00    +0.000 C 
ATOM     10  O   UNL     1       2.122   2.985  19.696  0.00  0.00    +0.000 OA
ENDBRANCH   3  10
BRANCH   7  11
ATOM     11  O   UNL     1       6.732   4.604  18.847  0.00  0.00    +0.000 OA
ATOM     12  C   UNL     1       7.431   4.655  17.606  0.00  0.00    +0.000 C 
ENDBRANCH   7  11
BRANCH   8  13
ATOM     13  O   UNL     1       5.014   2.449  19.713  0.00  0.00    +0.000 OA
ATOM     14  H   UNL     1       5.595   2.115  19.010  0.00  0.00    +0.000 HD
ENDBRANCH   8  13
ENDBRANCH   1   5
BRANCH   2  15
ATOM     15  N   UNL     1       1.547   9.159  18.037  0.00  0.00    +0.000 N 
ATOM     16  H   UNL     1       1.161   9.121  17.082  0.00  0.00    +0.000 HD
BRANCH  15  17
ATOM     17  C   UNL     1       0.663   9.943  18.844  0.00  0.00    +0.000 A 
ATOM     18  C   UNL     1       1.104  10.458  20.075  0.00  0.00    +0.000 A 
ATOM     19  C   UNL     1       0.270  11.252  20.855  0.00  0.00    +0.000 A 
ATOM     20  C   UNL     1      -1.010  11.551  20.404  0.00  0.00    +0.000 A 
ATOM     21  C   UNL     1      -1.463  11.067  19.164  0.00  0.00    +0.000 A 
ATOM     22  C   UNL     1      -2.746  11.370  18.700  0.00  0.00    +0.000 A 
ATOM     23  C   UNL     1      -3.171  10.885  17.471  0.00  0.00    +0.000 A 
ATOM     24  C   UNL     1      -2.290  10.113  16.742  0.00  0.00    +0.000 A 
ATOM     25  N   UNL     1      -1.043   9.791  17.155  0.00  0.00    +0.000 NA
ATOM     26  C   UNL     1      -0.621  10.262  18.356  0.00  0.00    +0.000 A 
ENDBRANCH  15  17
ENDBRANCH   2  15
TORSDOF 6
ENDMDL
MODEL 7
REMARK VINA RESULT:      -7.4      1.341      2.847
REMARK  Name = 
REMARK  8 active torsions:
REMARK  status: ('A' for Active; 'I' for Inactive)
REMARK    1  A    between atoms: C_1  and  O_2
REMARK    2  A    between atoms: O_2  and  C_3
REMARK    3  A    between atoms: C_5  and  C_6
REMARK    4  A    between atoms: N_7  and  N_8
REMARK    5  A    between atoms: N_8  and  C_9
REMARK    6  A    between atoms: C_20  and  O_21
REMARK    7  A    between atoms: O_21  and  C_22
REMARK    8  A    between atoms: C_23  and  O_24
REMARK                            x       y       z     vdW  Elec       q    Type
REMARK                         _______ _______ _______ _____ _____    ______ ____
ROOT
ATOM      1  C   UNL     1       2.276   7.689  18.226  0.00  0.00    +0.000 C 
ATOM      2  N   UNL     1       1.907   8.128  19.388  0.00  0.00    +0.000 NA
ENDROOT
BRANCH   1   5
ATOM      3  C   UNL     1       4.870   4.941  17.920  0.00  0.00    +0.000 A 
ATOM      4  C   UNL     1       4.278   6.205  18.043  0.00  0.00    +0.000 A 
ATOM      5  C   UNL     1       2.889   6.350  18.072  0.00  0.00    +0.000 A 
ATOM      6  C   UNL     1       2.073   5.224  17.956  0.00  0.00    +0.000 A 
ATOM      7  C   UNL     1       2.644   3.951  17.832  0.00  0.00    +0.000 A 
ATOM      8  C   UNL     1       4.045   3.811  17.815  0.00  0.00    +0.000 A 
BRANCH   3  10
ATOM      9  C   UNL     1       6.939   5.541  18.988  0.00  0.00    +0.000 C 
ATOM     10  O   UNL     1       6.237   5.008  17.875  0.00  0.00    +0.000 OA
ENDBRANCH   3  10
BRANCH   7  11
ATOM     11  O   UNL     1       1.736   2.944  17.616  0.00  0.00    +0.000 OA
ATOM     12  C   UNL     1       0.998   2.476  18.741  0.00  0.00    +0.000 C 
ENDBRANCH   7  11
BRANCH   8  13
ATOM     13  O   UNL     1       4.601   2.576  17.627  0.00  0.00    +0.000 OA
ATOM     14  H   UNL     1       3.856   1.955  17.592  0.00  0.00    +0.000 HD
ENDBRANCH   8  13
ENDBRANCH   1   5
BRANCH   2  15
ATOM     15  N   UNL     1       1.322   9.361  19.388  0.00  0.00    +0.000 N 
ATOM     16  H   UNL     1       0.748   9.626  18.575  0.00  0.00    +0.000 HD
BRANCH  15  17
ATOM     17  C   UNL     1       0.606   9.714  20.575  0.00  0.00    +0.000 A 
ATOM     18  C   UNL     1       0.820   9.000  21.766  0.00  0.00    +0.000 A 
ATOM     19  C   UNL     1       0.161   9.353  22.938  0.00  0.00    +0.000 A 
ATOM     20  C   UNL     1      -0.711  10.436  22.933  0.00  0.00    +0.000 A 
ATOM     21  C   UNL     1      -0.922  11.180  21.759  0.00  0.00    +0.000 A 
ATOM     22  C   UNL     1      -1.791  12.274  21.749  0.00  0.00    +0.000 A 
ATOM     23  C   UNL     1      -1.981  12.998  20.580  0.00  0.00    +0.000 A 
ATOM     24  C   UNL     1      -1.286  12.601  19.456  0.00  0.00    +0.000 A 
ATOM     25  N   UNL     1      -0.440  11.546  19.420  0.00  0.00    +0.000 NA
ATOM     26  C   UNL     1      -0.250  10.835  20.560  0.00  0.00    +0.000 A 
ENDBRANCH  15  17
ENDBRANCH   2  15
TORSDOF 6
ENDMDL
MODEL 8
REMARK VINA RESULT:      -7.3      1.721      3.410
REMARK  Name = 
REMARK  8 active torsions:
REMARK  status: ('A' for Active; 'I' for Inactive)
REMARK    1  A    between atoms: C_1  and  O_2
REMARK    2  A    between atoms: O_2  and  C_3
REMARK    3  A    between atoms: C_5  and  C_6
REMARK    4  A    between atoms: N_7  and  N_8
REMARK    5  A    between atoms: N_8  and  C_9
REMARK    6  A    between atoms: C_20  and  O_21
REMARK    7  A    between atoms: O_21  and  C_22
REMARK    8  A    between atoms: C_23  and  O_24
REMARK                            x       y       z     vdW  Elec       q    Type
REMARK                         _______ _______ _______ _____ _____    ______ ____
ROOT
ATOM      1  C   UNL     1       2.884   7.611  17.755  0.00  0.00    +0.000 C 
ATOM      2  N   UNL     1       1.909   8.208  18.366  0.00  0.00    +0.000 NA
ENDROOT
BRANCH   1   5
ATOM      3  C   UNL     1       5.309   4.920  18.872  0.00  0.00    +0.000 A 
ATOM      4  C   UNL     1       4.794   6.129  18.388  0.00  0.00    +0.000 A 
ATOM      5  C   UNL     1       3.417   6.319  18.244  0.00  0.00    +0.000 A 
ATOM      6  C   UNL     1       2.538   5.284  18.564  0.00  0.00    +0.000 A 
ATOM      7  C   UNL     1       3.033   4.065  19.048  0.00  0.00    +0.000 A 
ATOM      8  C   UNL     1       4.421   3.885  19.203  0.00  0.00    +0.000 A 
BRANCH   3  10
ATOM      9  C   UNL     1       7.400   4.682  17.709  0.00  0.00    +0.000 C 
ATOM     10  O   UNL     1       6.678   4.914  18.909  0.00  0.00    +0.000 OA
ENDBRANCH   3  10
BRANCH   7  11
ATOM     11  O   UNL     1       2.075   3.096  19.220  0.00  0.00    +0.000 OA
ATOM     12  C   UNL     1       1.431   3.030  20.489  0.00  0.00    +0.000 C 
ENDBRANCH   7  11
BRANCH   8  13
ATOM     13  O   UNL     1       4.906   2.674  19.612  0.00  0.00    +0.000 OA
ATOM     14  H   UNL     1       5.501   2.377  18.905  0.00  0.00    +0.000 HD
ENDBRANCH   8  13
ENDBRANCH   1   5
BRANCH   2  15
ATOM     15  N   UNL     1       1.487   9.372  17.792  0.00  0.00    +0.000 N 
ATOM     16  H   UNL     1       1.106   9.332  16.836  0.00  0.00    +0.000 HD
BRANCH  15  17
ATOM     17  C   UNL     1       0.613  10.180  18.586  0.00  0.00    +0.000 A 
ATOM     18  C   UNL     1       1.110  10.856  19.714  0.00  0.00    +0.000 A 
ATOM     19  C   UNL     1       0.284  11.674  20.475  0.00  0.00    +0.000 A 
ATOM     20  C   UNL     1      -1.047  11.838  20.108  0.00  0.00    +0.000 A 
ATOM     21  C   UNL     1      -1.558  11.192  18.969  0.00  0.00    +0.000 A 
ATOM     22  C   UNL     1      -2.893  11.357  18.588  0.00  0.00    +0.000 A 
ATOM     23  C   UNL     1      -3.377  10.713  17.458  0.00  0.00    +0.000 A 
ATOM     24  C   UNL     1      -2.500   9.925  16.740  0.00  0.00    +0.000 A 
ATOM     25  N   UNL     1      -1.204   9.732  17.076  0.00  0.00    +0.000 NA
ATOM     26  C   UNL     1      -0.726  10.359  18.180  0.00  0.00    +0.000 A 
ENDBRANCH  15  17
ENDBRANCH   2  15
TORSDOF 6
ENDMDL
MODEL 9
REMARK VINA RESULT:      -7.3      2.013      2.391
REMARK  Name = 
REMARK  8 active torsions:
REMARK  status: ('A' for Active; 'I' for Inactive)
REMARK    1  A    between atoms: C_1  and  O_2
REMARK    2  A    between atoms: O_2  and  C_3
REMARK    3  A    between atoms: C_5  and  C_6
REMARK    4  A    between atoms: N_7  and  N_8
REMARK    5  A    between atoms: N_8  and  C_9
REMARK    6  A    between atoms: C_20  and  O_21
REMARK    7  A    between atoms: O_21  and  C_22
REMARK    8  A    between atoms: C_23  and  O_24
REMARK                            x       y       z     vdW  Elec       q    Type
REMARK                         _______ _______ _______ _____ _____    ______ ____
ROOT
ATOM      1  C   UNL     1       3.190   7.599  17.787  0.00  0.00    +0.000 C 
ATOM      2  N   UNL     1       2.217   8.222  18.375  0.00  0.00    +0.000 NA
ENDROOT
BRANCH   1   5
ATOM      3  C   UNL     1       3.140   4.059  19.142  0.00  0.00    +0.000 A 
ATOM      4  C   UNL     1       2.723   5.327  18.716  0.00  0.00    +0.000 A 
ATOM      5  C   UNL     1       3.645   6.271  18.256  0.00  0.00    +0.000 A 
ATOM      6  C   UNL     1       5.005   5.959  18.238  0.00  0.00    +0.000 A 
ATOM      7  C   UNL     1       5.443   4.697  18.660  0.00  0.00    +0.000 A 
ATOM      8  C   UNL     1       4.507   3.746  19.110  0.00  0.00    +0.000 A 
BRANCH   3  10
ATOM      9  C   UNL     1       1.458   3.637  20.807  0.00  0.00    +0.000 C 
ATOM     10  O   UNL     1       2.098   3.291  19.588  0.00  0.00    +0.000 OA
ENDBRANCH   3  10
BRANCH   7  11
ATOM     11  O   UNL     1       6.808   4.557  18.696  0.00  0.00    +0.000 OA
ATOM     12  C   UNL     1       7.504   4.601  17.453  0.00  0.00    +0.000 C 
ENDBRANCH   7  11
BRANCH   8  13
ATOM     13  O   UNL     1       4.941   2.539  19.584  0.00  0.00    +0.000 OA
ATOM     14  H   UNL     1       4.400   2.355  20.369  0.00  0.00    +0.000 HD
ENDBRANCH   8  13
ENDBRANCH   1   5
BRANCH   2  15
ATOM     15  N   UNL     1       1.871   9.420  17.822  0.00  0.00    +0.000 N 
ATOM     16  H   UNL     1       1.430   9.416  16.891  0.00  0.00    +0.000 HD
BRANCH  15  17
ATOM     17  C   UNL     1       1.127  10.307  18.664  0.00  0.00    +0.000 A 
ATOM     18  C   UNL     1       0.060   9.816  19.436  0.00  0.00    +0.000 A 
ATOM     19  C   UNL     1      -0.649  10.656  20.286  0.00  0.00    +0.000 A 
ATOM     20  C   UNL     1      -0.289  11.995  20.385  0.00  0.00    +0.000 A 
ATOM     21  C   UNL     1       0.791  12.501  19.641  0.00  0.00    +0.000 A 
ATOM     22  C   UNL     1       1.164  13.844  19.740  0.00  0.00    +0.000 A 
ATOM     23  C   UNL     1       2.236  14.323  19.000  0.00  0.00    +0.000 A 
ATOM     24  C   UNL     1       2.905  13.433  18.184  0.00  0.00    +0.000 A 
ATOM     25  N   UNL     1       2.575  12.128  18.054  0.00  0.00    +0.000 NA
ATOM     26  C   UNL     1       1.527  11.654  18.774  0.00  0.00    +0.000 A 
ENDBRANCH  15  17
ENDBRANCH   2  15
TORSDOF 6
ENDMDL
