MODEL 1
REMARK VINA RESULT:      -7.9      0.000      0.000
REMARK  Name = 
REMARK  5 active torsions:
REMARK  status: ('A' for Active; 'I' for Inactive)
REMARK    1  A    between atoms: C_2  and  O_3
REMARK    2  A    between atoms: C_2  and  C_4
REMARK    3  A    between atoms: C_7  and  N_8
REMARK    4  A    between atoms: C_10  and  C_11
REMARK    5  A    between atoms: C_11  and  C_13
REMARK                            x       y       z     vdW  Elec       q    Type
REMARK                         _______ _______ _______ _____ _____    ______ ____
ROOT
ATOM      1  N   UNL     1      -2.634  12.051  19.409  0.00  0.00    +0.000 N 
ATOM      2  C   UNL     1      -1.319  12.496  19.311  0.00  0.00    +0.000 A 
ATOM      3  C   UNL     1      -0.856  12.472  20.595  0.00  0.00    +0.000 A 
ATOM      4  C   UNL     1      -1.948  13.007  21.305  0.00  0.00    +0.000 A 
ATOM      5  C   UNL     1      -2.041  13.707  22.523  0.00  0.00    +0.000 A 
ATOM      6  C   UNL     1      -3.291  13.961  23.069  0.00  0.00    +0.000 A 
ATOM      7  C   UNL     1      -4.425  13.419  22.467  0.00  0.00    +0.000 A 
ATOM      8  C   UNL     1      -4.353  12.711  21.250  0.00  0.00    +0.000 A 
ATOM      9  F   UNL     1      -5.471  12.169  20.754  0.00  0.00    +0.000 F 
ATOM     10  C   UNL     1      -3.113  12.592  20.607  0.00  0.00    +0.000 A 
ENDROOT
BRANCH   1  14
ATOM     11  C   UNL     1      -3.437  10.322  15.706  0.00  0.00    +0.000 A 
ATOM     12  C   UNL     1      -2.451   9.787  16.519  0.00  0.00    +0.000 A 
ATOM     13  C   UNL     1      -2.333  10.268  17.816  0.00  0.00    +0.000 A 
ATOM     14  C   UNL     1      -3.160  11.315  18.302  0.00  0.00    +0.000 A 
ATOM     15  C   UNL     1      -4.279  11.686  17.572  0.00  0.00    +0.000 A 
ATOM     16  C   UNL     1      -4.399  11.194  16.254  0.00  0.00    +0.000 A 
BRANCH  11  18
ATOM     17  O   UNL     1      -2.449   9.865  13.590  0.00  0.00    +0.000 OA
ATOM     18  C   UNL     1      -3.460  10.015  14.261  0.00  0.00    +0.000 C 
BRANCH  18  19
ATOM     19  O   UNL     1      -4.712   9.840  13.760  0.00  0.00    +0.000 OA
ATOM     20  H   UNL     1      -5.040   8.927  13.763  0.00  0.00    +0.000 HD
ENDBRANCH  18  19
ENDBRANCH  11  18
ENDBRANCH   1  14
BRANCH   3  21
ATOM     21  C   UNL     1       0.460  12.007  20.983  0.00  0.00    +0.000 C 
ATOM     22  O   UNL     1       1.357  12.792  21.277  0.00  0.00    +0.000 OA
BRANCH  21  23
ATOM     23  C   UNL     1       0.763  10.560  20.847  0.00  0.00    +0.000 A 
ATOM     24  C   UNL     1       1.345  10.101  19.659  0.00  0.00    +0.000 A 
ATOM     25 CL   UNL     1       1.741  11.139  18.334  0.00  0.00    +0.000 Cl
ATOM     26  C   UNL     1       1.663   8.747  19.507  0.00  0.00    +0.000 A 
ATOM     27  C   UNL     1       1.447   7.847  20.546  0.00  0.00    +0.000 A 
ATOM     28  C   UNL     1       0.852   8.285  21.723  0.00  0.00    +0.000 A 
ATOM     29  C   UNL     1       0.463   9.623  21.859  0.00  0.00    +0.000 A 
ATOM     30 CL   UNL     1      -0.474   9.982  23.272  0.00  0.00    +0.000 Cl
ENDBRANCH  21  23
ENDBRANCH   3  21
TORSDOF 5
ENDMDL
MODEL 2
REMARK VINA RESULT:      -7.9      0.317      1.733
REMARK  Name = 
REMARK  5 active torsions:
REMARK  status: ('A' for Active; 'I' for Inactive)
REMARK    1  A    between atoms: C_2  and  O_3
REMARK    2  A    between atoms: C_2  and  C_4
REMARK    3  A    between atoms: C_7  and  N_8
REMARK    4  A    between atoms: C_10  and  C_11
REMARK    5  A    between atoms: C_11  and  C_13
REMARK                            x       y       z     vdW  Elec       q    Type
REMARK                         _______ _______ _______ _____ _____    ______ ____
ROOT
ATOM      1  N   UNL     1      -2.870  12.096  19.450  0.00  0.00    +0.000 N 
ATOM      2  C   UNL     1      -1.569  12.586  19.400  0.00  0.00    +0.000 A 
ATOM      3  C   UNL     1      -1.156  12.588  20.701  0.00  0.00    +0.000 A 
ATOM      4  C   UNL     1      -2.294  13.089  21.363  0.00  0.00    +0.000 A 
ATOM      5  C   UNL     1      -2.460  13.795  22.570  0.00  0.00    +0.000 A 
ATOM      6  C   UNL     1      -3.739  14.008  23.064  0.00  0.00    +0.000 A 
ATOM      7  C   UNL     1      -4.827  13.422  22.423  0.00  0.00    +0.000 A 
ATOM      8  C   UNL     1      -4.683  12.708  21.216  0.00  0.00    +0.000 A 
ATOM      9  F   UNL     1      -5.761  12.123  20.681  0.00  0.00    +0.000 F 
ATOM     10  C   UNL     1      -3.415  12.628  20.623  0.00  0.00    +0.000 A 
ENDROOT
BRANCH   1  14
ATOM     11  C   UNL     1      -3.483  10.333  15.726  0.00  0.00    +0.000 A 
ATOM     12  C   UNL     1      -2.485   9.856  16.561  0.00  0.00    +0.000 A 
ATOM     13  C   UNL     1      -2.426  10.339  17.861  0.00  0.00    +0.000 A 
ATOM     14  C   UNL     1      -3.326  11.332  18.330  0.00  0.00    +0.000 A 
ATOM     15  C   UNL     1      -4.448  11.638  17.575  0.00  0.00    +0.000 A 
ATOM     16  C   UNL     1      -4.508  11.144  16.254  0.00  0.00    +0.000 A 
BRANCH  11  18
ATOM     17  O   UNL     1      -2.421   9.884  13.645  0.00  0.00    +0.000 OA
ATOM     18  C   UNL     1      -3.455  10.031  14.280  0.00  0.00    +0.000 C 
BRANCH  18  19
ATOM     19  O   UNL     1      -4.688   9.854  13.736  0.00  0.00    +0.000 OA
ATOM     20  H   UNL     1      -5.053  10.623  13.268  0.00  0.00    +0.000 HD
ENDBRANCH  18  19
ENDBRANCH  11  18
ENDBRANCH   1  14
BRANCH   3  21
ATOM     21  C   UNL     1       0.159  12.173  21.145  0.00  0.00    +0.000 C 
ATOM     22  O   UNL     1       0.946  12.968  21.650  0.00  0.00    +0.000 OA
BRANCH  21  23
ATOM     23  C   UNL     1       0.611  10.798  20.815  0.00  0.00    +0.000 A 
ATOM     24  C   UNL     1       0.410   9.778  21.754  0.00  0.00    +0.000 A 
ATOM     25 CL   UNL     1      -0.351  10.037  23.285  0.00  0.00    +0.000 Cl
ATOM     26  C   UNL     1       0.804   8.467  21.466  0.00  0.00    +0.000 A 
ATOM     27  C   UNL     1       1.361   8.149  20.231  0.00  0.00    +0.000 A 
ATOM     28  C   UNL     1       1.584   9.154  19.298  0.00  0.00    +0.000 A 
ATOM     29  C   UNL     1       1.261  10.481  19.603  0.00  0.00    +0.000 A 
ATOM     30 CL   UNL     1       1.805  11.659  18.453  0.00  0.00    +0.000 Cl
ENDBRANCH  21  23
ENDBRANCH   3  21
TORSDOF 5
ENDMDL
MODEL 3
REMARK VINA RESULT:      -7.8      6.165      9.652
REMARK  Name = 
REMARK  5 active torsions:
REMARK  status: ('A' for Active; 'I' for Inactive)
REMARK    1  A    between atoms: C_2  and  O_3
REMARK    2  A    between atoms: C_2  and  C_4
REMARK    3  A    between atoms: C_7  and  N_8
REMARK    4  A    between atoms: C_10  and  C_11
REMARK    5  A    between atoms: C_11  and  C_13
REMARK                            x       y       z     vdW  Elec       q    Type
REMARK                         _______ _______ _______ _____ _____    ______ ____
ROOT
ATOM      1  N   UNL     1       3.671   6.080  17.685  0.00  0.00    +0.000 N 
ATOM      2  C   UNL     1       2.840   4.999  17.407  0.00  0.00    +0.000 A 
ATOM      3  C   UNL     1       3.668   3.914  17.451  0.00  0.00    +0.000 A 
ATOM      4  C   UNL     1       4.803   4.390  16.767  0.00  0.00    +0.000 A 
ATOM      5  C   UNL     1       5.810   3.743  16.027  0.00  0.00    +0.000 A 
ATOM      6  C   UNL     1       6.918   4.464  15.607  0.00  0.00    +0.000 A 
ATOM      7  C   UNL     1       7.074   5.784  16.023  0.00  0.00    +0.000 A 
ATOM      8  C   UNL     1       6.080   6.450  16.769  0.00  0.00    +0.000 A 
ATOM      9  F   UNL     1       6.317   7.700  17.185  0.00  0.00    +0.000 F 
ATOM     10  C   UNL     1       4.883   5.778  17.056  0.00  0.00    +0.000 A 
ENDROOT
BRANCH   1  14
ATOM     11  C   UNL     1       1.188   8.766  19.676  0.00  0.00    +0.000 A 
ATOM     12  C   UNL     1       1.734   7.693  20.361  0.00  0.00    +0.000 A 
ATOM     13  C   UNL     1       2.698   6.925  19.722  0.00  0.00    +0.000 A 
ATOM     14  C   UNL     1       3.094   7.186  18.384  0.00  0.00    +0.000 A 
ATOM     15  C   UNL     1       2.717   8.381  17.788  0.00  0.00    +0.000 A 
ATOM     16  C   UNL     1       1.738   9.162  18.441  0.00  0.00    +0.000 A 
BRANCH  11  18
ATOM     17  O   UNL     1      -0.621  10.309  19.585  0.00  0.00    +0.000 OA
ATOM     18  C   UNL     1       0.006   9.471  20.215  0.00  0.00    +0.000 C 
BRANCH  18  19
ATOM     19  O   UNL     1      -0.365   9.046  21.453  0.00  0.00    +0.000 OA
ATOM     20  H   UNL     1       0.347   8.675  21.999  0.00  0.00    +0.000 HD
ENDBRANCH  18  19
ENDBRANCH  11  18
ENDBRANCH   1  14
BRANCH   3  21
ATOM     21  C   UNL     1       3.324   2.646  18.062  0.00  0.00    +0.000 C 
ATOM     22  O   UNL     1       3.435   1.588  17.448  0.00  0.00    +0.000 OA
BRANCH  21  23
ATOM     23  C   UNL     1       2.665   2.661  19.392  0.00  0.00    +0.000 A 
ATOM     24  C   UNL     1       3.427   2.350  20.526  0.00  0.00    +0.000 A 
ATOM     25 CL   UNL     1       5.110   1.954  20.458  0.00  0.00    +0.000 Cl
ATOM     26  C   UNL     1       2.842   2.376  21.796  0.00  0.00    +0.000 A 
ATOM     27  C   UNL     1       1.512   2.752  21.957  0.00  0.00    +0.000 A 
ATOM     28  C   UNL     1       0.740   3.044  20.840  0.00  0.00    +0.000 A 
ATOM     29  C   UNL     1       1.295   2.951  19.558  0.00  0.00    +0.000 A 
ATOM     30 CL   UNL     1       0.168   3.110  18.251  0.00  0.00    +0.000 Cl
ENDBRANCH  21  23
ENDBRANCH   3  21
TORSDOF 5
ENDMDL
MODEL 4
REMARK VINA RESULT:      -7.5      6.050      9.559
REMARK  Name = 
REMARK  5 active torsions:
REMARK  status: ('A' for Active; 'I' for Inactive)
REMARK    1  A    between atoms: C_2  and  O_3
REMARK    2  A    between atoms: C_2  and  C_4
REMARK    3  A    between atoms: C_7  and  N_8
REMARK    4  A    between atoms: C_10  and  C_11
REMARK    5  A    between atoms: C_11  and  C_13
REMARK                            x       y       z     vdW  Elec       q    Type
REMARK                         _______ _______ _______ _____ _____    ______ ____
ROOT
ATOM      1  N   UNL     1       3.548   6.190  17.673  0.00  0.00    +0.000 N 
ATOM      2  C   UNL     1       2.681   5.164  17.310  0.00  0.00    +0.000 A 
ATOM      3  C   UNL     1       3.449   4.036  17.355  0.00  0.00    +0.000 A 
ATOM      4  C   UNL     1       4.642   4.477  16.750  0.00  0.00    +0.000 A 
ATOM      5  C   UNL     1       5.654   3.805  16.039  0.00  0.00    +0.000 A 
ATOM      6  C   UNL     1       6.817   4.482  15.705  0.00  0.00    +0.000 A 
ATOM      7  C   UNL     1       7.017   5.777  16.179  0.00  0.00    +0.000 A 
ATOM      8  C   UNL     1       6.019   6.467  16.897  0.00  0.00    +0.000 A 
ATOM      9  F   UNL     1       6.295   7.686  17.373  0.00  0.00    +0.000 F 
ATOM     10  C   UNL     1       4.776   5.848  17.096  0.00  0.00    +0.000 A 
ENDROOT
BRANCH   1  14
ATOM     11  C   UNL     1       1.118   8.888  19.712  0.00  0.00    +0.000 A 
ATOM     12  C   UNL     1       1.673   7.811  20.386  0.00  0.00    +0.000 A 
ATOM     13  C   UNL     1       2.620   7.039  19.728  0.00  0.00    +0.000 A 
ATOM     14  C   UNL     1       2.991   7.299  18.382  0.00  0.00    +0.000 A 
ATOM     15  C   UNL     1       2.608   8.495  17.794  0.00  0.00    +0.000 A 
ATOM     16  C   UNL     1       1.646   9.281  18.466  0.00  0.00    +0.000 A 
BRANCH  11  18
ATOM     17  O   UNL     1      -0.715  10.402  19.640  0.00  0.00    +0.000 OA
ATOM     18  C   UNL     1      -0.049   9.598  20.274  0.00  0.00    +0.000 C 
BRANCH  18  19
ATOM     19  O   UNL     1      -0.360   9.218  21.542  0.00  0.00    +0.000 OA
ATOM     20  H   UNL     1      -1.299   9.289  21.782  0.00  0.00    +0.000 HD
ENDBRANCH  18  19
ENDBRANCH  11  18
ENDBRANCH   1  14
BRANCH   3  21
ATOM     21  C   UNL     1       3.011   2.767  17.898  0.00  0.00    +0.000 C 
ATOM     22  O   UNL     1       2.834   1.788  17.178  0.00  0.00    +0.000 OA
BRANCH  21  23
ATOM     23  C   UNL     1       2.605   2.714  19.325  0.00  0.00    +0.000 A 
ATOM     24  C   UNL     1       1.253   2.889  19.649  0.00  0.00    +0.000 A 
ATOM     25 CL   UNL     1       0.021   3.156  18.465  0.00  0.00    +0.000 Cl
ATOM     26  C   UNL     1       0.835   2.824  20.982  0.00  0.00    +0.000 A 
ATOM     27  C   UNL     1       1.743   2.543  21.998  0.00  0.00    +0.000 A 
ATOM     28  C   UNL     1       3.089   2.387  21.693  0.00  0.00    +0.000 A 
ATOM     29  C   UNL     1       3.531   2.522  20.372  0.00  0.00    +0.000 A 
ATOM     30 CL   UNL     1       5.252   2.539  20.165  0.00  0.00    +0.000 Cl
ENDBRANCH  21  23
ENDBRANCH   3  21
TORSDOF 5
ENDMDL
MODEL 5
REMARK VINA RESULT:      -7.4      3.235      5.986
REMARK  Name = 
REMARK  5 active torsions:
REMARK  status: ('A' for Active; 'I' for Inactive)
REMARK    1  A    between atoms: C_2  and  O_3
REMARK    2  A    between atoms: C_2  and  C_4
REMARK    3  A    between atoms: C_7  and  N_8
REMARK    4  A    between atoms: C_10  and  C_11
REMARK    5  A    between atoms: C_11  and  C_13
REMARK                            x       y       z     vdW  Elec       q    Type
REMARK                         _______ _______ _______ _____ _____    ______ ____
ROOT
ATOM      1  N   UNL     1       0.283  10.379  19.665  0.00  0.00    +0.000 N 
ATOM      2  C   UNL     1       0.607  11.405  20.547  0.00  0.00    +0.000 A 
ATOM      3  C   UNL     1      -0.578  11.732  21.139  0.00  0.00    +0.000 A 
ATOM      4  C   UNL     1      -1.461  11.719  20.042  0.00  0.00    +0.000 A 
ATOM      5  C   UNL     1      -2.672  12.390  19.786  0.00  0.00    +0.000 A 
ATOM      6  C   UNL     1      -3.421  12.041  18.672  0.00  0.00    +0.000 A 
ATOM      7  C   UNL     1      -3.026  10.957  17.892  0.00  0.00    +0.000 A 
ATOM      8  C   UNL     1      -1.820  10.268  18.133  0.00  0.00    +0.000 A 
ATOM      9  F   UNL     1      -1.527   9.201  17.382  0.00  0.00    +0.000 F 
ATOM     10  C   UNL     1      -0.975  10.720  19.157  0.00  0.00    +0.000 A 
ENDROOT
BRANCH   1  14
ATOM     11  C   UNL     1       2.497   7.082  18.411  0.00  0.00    +0.000 A 
ATOM     12  C   UNL     1       2.388   8.193  17.591  0.00  0.00    +0.000 A 
ATOM     13  C   UNL     1       1.802   9.340  18.108  0.00  0.00    +0.000 A 
ATOM     14  C   UNL     1       1.278   9.380  19.428  0.00  0.00    +0.000 A 
ATOM     15  C   UNL     1       1.588   8.355  20.309  0.00  0.00    +0.000 A 
ATOM     16  C   UNL     1       2.186   7.190  19.781  0.00  0.00    +0.000 A 
BRANCH  11  18
ATOM     17  O   UNL     1       4.040   5.518  17.495  0.00  0.00    +0.000 OA
ATOM     18  C   UNL     1       2.898   5.776  17.848  0.00  0.00    +0.000 C 
BRANCH  18  19
ATOM     19  O   UNL     1       1.894   4.859  17.829  0.00  0.00    +0.000 OA
ATOM     20  H   UNL     1       1.826   4.330  17.017  0.00  0.00    +0.000 HD
ENDBRANCH  18  19
ENDBRANCH  11  18
ENDBRANCH   1  14
BRANCH   3  21
ATOM     21  C   UNL     1      -0.738  12.017  22.551  0.00  0.00    +0.000 C 
ATOM     22  O   UNL     1      -0.621  11.138  23.400  0.00  0.00    +0.000 OA
BRANCH  21  23
ATOM     23  C   UNL     1      -1.224  13.363  22.946  0.00  0.00    +0.000 A 
ATOM     24  C   UNL     1      -2.523  13.488  23.457  0.00  0.00    +0.000 A 
ATOM     25 CL   UNL     1      -3.594  12.146  23.663  0.00  0.00    +0.000 Cl
ATOM     26  C   UNL     1      -3.004  14.738  23.859  0.00  0.00    +0.000 A 
ATOM     27  C   UNL     1      -2.190  15.865  23.798  0.00  0.00    +0.000 A 
ATOM     28  C   UNL     1      -0.907  15.759  23.274  0.00  0.00    +0.000 A 
ATOM     29  C   UNL     1      -0.440  14.527  22.801  0.00  0.00    +0.000 A 
ATOM     30 CL   UNL     1       1.076  14.582  21.963  0.00  0.00    +0.000 Cl
ENDBRANCH  21  23
ENDBRANCH   3  21
TORSDOF 5
ENDMDL
MODEL 6
REMARK VINA RESULT:      -7.4      3.696      5.892
REMARK  Name = 
REMARK  5 active torsions:
REMARK  status: ('A' for Active; 'I' for Inactive)
REMARK    1  A    between atoms: C_2  and  O_3
REMARK    2  A    between atoms: C_2  and  C_4
REMARK    3  A    between atoms: C_7  and  N_8
REMARK    4  A    between atoms: C_10  and  C_11
REMARK    5  A    between atoms: C_11  and  C_13
REMARK                            x       y       z     vdW  Elec       q    Type
REMARK                         _______ _______ _______ _____ _____    ______ ____
ROOT
ATOM      1  N   UNL     1       0.448   9.778  20.001  0.00  0.00    +0.000 N 
ATOM      2  C   UNL     1      -0.165  10.429  18.934  0.00  0.00    +0.000 A 
ATOM      3  C   UNL     1      -0.419  11.686  19.404  0.00  0.00    +0.000 A 
ATOM      4  C   UNL     1      -0.894  11.417  20.702  0.00  0.00    +0.000 A 
ATOM      5  C   UNL     1      -1.761  12.117  21.562  0.00  0.00    +0.000 A 
ATOM      6  C   UNL     1      -1.912  11.689  22.873  0.00  0.00    +0.000 A 
ATOM      7  C   UNL     1      -1.118  10.649  23.350  0.00  0.00    +0.000 A 
ATOM      8  C   UNL     1      -0.240   9.938  22.507  0.00  0.00    +0.000 A 
ATOM      9  F   UNL     1       0.535   8.987  23.041  0.00  0.00    +0.000 F 
ATOM     10  C   UNL     1      -0.203  10.257  21.142  0.00  0.00    +0.000 A 
ENDROOT
BRANCH   1  14
ATOM     11  C   UNL     1       2.610   6.560  18.478  0.00  0.00    +0.000 A 
ATOM     12  C   UNL     1       2.538   7.745  17.763  0.00  0.00    +0.000 A 
ATOM     13  C   UNL     1       1.968   8.852  18.376  0.00  0.00    +0.000 A 
ATOM     14  C   UNL     1       1.425   8.783  19.686  0.00  0.00    +0.000 A 
ATOM     15  C   UNL     1       1.698   7.674  20.473  0.00  0.00    +0.000 A 
ATOM     16  C   UNL     1       2.279   6.549  19.848  0.00  0.00    +0.000 A 
BRANCH  11  18
ATOM     17  O   UNL     1       4.133   5.051  17.447  0.00  0.00    +0.000 OA
ATOM     18  C   UNL     1       2.992   5.303  17.803  0.00  0.00    +0.000 C 
BRANCH  18  19
ATOM     19  O   UNL     1       1.967   4.417  17.681  0.00  0.00    +0.000 OA
ATOM     20  H   UNL     1       1.103   4.731  17.993  0.00  0.00    +0.000 HD
ENDBRANCH  18  19
ENDBRANCH  11  18
ENDBRANCH   1  14
BRANCH   3  21
ATOM     21  C   UNL     1      -0.223  12.901  18.639  0.00  0.00    +0.000 C 
ATOM     22  O   UNL     1      -0.803  13.089  17.574  0.00  0.00    +0.000 OA
BRANCH  21  23
ATOM     23  C   UNL     1       0.833  13.847  19.080  0.00  0.00    +0.000 A 
ATOM     24  C   UNL     1       0.450  15.038  19.711  0.00  0.00    +0.000 A 
ATOM     25 CL   UNL     1      -1.198  15.464  20.013  0.00  0.00    +0.000 Cl
ATOM     26  C   UNL     1       1.421  15.941  20.158  0.00  0.00    +0.000 A 
ATOM     27  C   UNL     1       2.775  15.652  20.023  0.00  0.00    +0.000 A 
ATOM     28  C   UNL     1       3.168  14.484  19.382  0.00  0.00    +0.000 A 
ATOM     29  C   UNL     1       2.206  13.607  18.865  0.00  0.00    +0.000 A 
ATOM     30 CL   UNL     1       2.828  12.317  17.890  0.00  0.00    +0.000 Cl
ENDBRANCH  21  23
ENDBRANCH   3  21
TORSDOF 5
ENDMDL
MODEL 7
REMARK VINA RESULT:      -7.3      3.706      5.795
REMARK  Name = 
REMARK  5 active torsions:
REMARK  status: ('A' for Active; 'I' for Inactive)
REMARK    1  A    between atoms: C_2  and  O_3
REMARK    2  A    between atoms: C_2  and  C_4
REMARK    3  A    between atoms: C_7  and  N_8
REMARK    4  A    between atoms: C_10  and  C_11
REMARK    5  A    between atoms: C_11  and  C_13
REMARK                            x       y       z     vdW  Elec       q    Type
REMARK                         _______ _______ _______ _____ _____    ______ ____
ROOT
ATOM      1  N   UNL     1       0.441   9.773  19.963  0.00  0.00    +0.000 N 
ATOM      2  C   UNL     1      -0.218  10.385  18.902  0.00  0.00    +0.000 A 
ATOM      3  C   UNL     1      -0.491  11.645  19.351  0.00  0.00    +0.000 A 
ATOM      4  C   UNL     1      -0.922  11.393  20.668  0.00  0.00    +0.000 A 
ATOM      5  C   UNL     1      -1.782  12.089  21.538  0.00  0.00    +0.000 A 
ATOM      6  C   UNL     1      -1.885  11.686  22.861  0.00  0.00    +0.000 A 
ATOM      7  C   UNL     1      -1.051  10.677  23.337  0.00  0.00    +0.000 A 
ATOM      8  C   UNL     1      -0.180   9.970  22.485  0.00  0.00    +0.000 A 
ATOM      9  F   UNL     1       0.634   9.050  23.015  0.00  0.00    +0.000 F 
ATOM     10  C   UNL     1      -0.190  10.260  21.113  0.00  0.00    +0.000 A 
ENDROOT
BRANCH   1  14
ATOM     11  C   UNL     1       2.642   6.579  18.444  0.00  0.00    +0.000 A 
ATOM     12  C   UNL     1       2.522   7.748  17.709  0.00  0.00    +0.000 A 
ATOM     13  C   UNL     1       1.941   8.852  18.317  0.00  0.00    +0.000 A 
ATOM     14  C   UNL     1       1.434   8.795  19.642  0.00  0.00    +0.000 A 
ATOM     15  C   UNL     1       1.755   7.709  20.442  0.00  0.00    +0.000 A 
ATOM     16  C   UNL     1       2.347   6.586  19.823  0.00  0.00    +0.000 A 
BRANCH  11  18
ATOM     17  O   UNL     1       4.190   5.053  17.477  0.00  0.00    +0.000 OA
ATOM     18  C   UNL     1       3.037   5.319  17.783  0.00  0.00    +0.000 C 
BRANCH  18  19
ATOM     19  O   UNL     1       2.007   4.446  17.613  0.00  0.00    +0.000 OA
ATOM     20  H   UNL     1       1.333   4.716  16.968  0.00  0.00    +0.000 HD
ENDBRANCH  18  19
ENDBRANCH  11  18
ENDBRANCH   1  14
BRANCH   3  21
ATOM     21  C   UNL     1      -0.348  12.847  18.556  0.00  0.00    +0.000 C 
ATOM     22  O   UNL     1      -0.866  12.949  17.448  0.00  0.00    +0.000 OA
BRANCH  21  23
ATOM     23  C   UNL     1       0.589  13.897  19.031  0.00  0.00    +0.000 A 
ATOM     24  C   UNL     1       1.962  13.720  18.820  0.00  0.00    +0.000 A 
ATOM     25 CL   UNL     1       2.629  12.338  18.022  0.00  0.00    +0.000 Cl
ATOM     26  C   UNL     1       2.870  14.700  19.235  0.00  0.00    +0.000 A 
ATOM     27  C   UNL     1       2.422  15.880  19.822  0.00  0.00    +0.000 A 
ATOM     28  C   UNL     1       1.064  16.059  20.055  0.00  0.00    +0.000 A 
ATOM     29  C   UNL     1       0.153  15.054  19.710  0.00  0.00    +0.000 A 
ATOM     30 CL   UNL     1      -1.470  15.304  20.266  0.00  0.00    +0.000 Cl
ENDBRANCH  21  23
ENDBRANCH   3  21
TORSDOF 5
ENDMDL
MODEL 8
REMARK VINA RESULT:      -7.3      3.278      5.849
REMARK  Name = 
REMARK  5 active torsions:
REMARK  status: ('A' for Active; 'I' for Inactive)
REMARK    1  A    between atoms: C_2  and  O_3
REMARK    2  A    between atoms: C_2  and  C_4
REMARK    3  A    between atoms: C_7  and  N_8
REMARK    4  A    between atoms: C_10  and  C_11
REMARK    5  A    between atoms: C_11  and  C_13
REMARK                            x       y       z     vdW  Elec       q    Type
REMARK                         _______ _______ _______ _____ _____    ______ ____
ROOT
ATOM      1  N   UNL     1       0.327  10.343  19.599  0.00  0.00    +0.000 N 
ATOM      2  C   UNL     1       0.638  11.373  20.481  0.00  0.00    +0.000 A 
ATOM      3  C   UNL     1      -0.556  11.706  21.051  0.00  0.00    +0.000 A 
ATOM      4  C   UNL     1      -1.421  11.688  19.940  0.00  0.00    +0.000 A 
ATOM      5  C   UNL     1      -2.626  12.360  19.660  0.00  0.00    +0.000 A 
ATOM      6  C   UNL     1      -3.358  12.006  18.537  0.00  0.00    +0.000 A 
ATOM      7  C   UNL     1      -2.953  10.916  17.770  0.00  0.00    +0.000 A 
ATOM      8  C   UNL     1      -1.753  10.226  18.035  0.00  0.00    +0.000 A 
ATOM      9  F   UNL     1      -1.449   9.154  17.295  0.00  0.00    +0.000 F 
ATOM     10  C   UNL     1      -0.923  10.683  19.070  0.00  0.00    +0.000 A 
ENDROOT
BRANCH   1  14
ATOM     11  C   UNL     1       2.559   7.041  18.391  0.00  0.00    +0.000 A 
ATOM     12  C   UNL     1       2.475   8.155  17.573  0.00  0.00    +0.000 A 
ATOM     13  C   UNL     1       1.881   9.303  18.079  0.00  0.00    +0.000 A 
ATOM     14  C   UNL     1       1.323   9.340  19.385  0.00  0.00    +0.000 A 
ATOM     15  C   UNL     1       1.605   8.311  20.270  0.00  0.00    +0.000 A 
ATOM     16  C   UNL     1       2.212   7.145  19.753  0.00  0.00    +0.000 A 
BRANCH  11  18
ATOM     17  O   UNL     1       4.051   5.543  17.300  0.00  0.00    +0.000 OA
ATOM     18  C   UNL     1       2.969   5.735  17.834  0.00  0.00    +0.000 C 
BRANCH  18  19
ATOM     19  O   UNL     1       2.059   4.745  18.038  0.00  0.00    +0.000 OA
ATOM     20  H   UNL     1       2.044   4.369  18.933  0.00  0.00    +0.000 HD
ENDBRANCH  18  19
ENDBRANCH  11  18
ENDBRANCH   1  14
BRANCH   3  21
ATOM     21  C   UNL     1      -0.738  12.001  22.458  0.00  0.00    +0.000 C 
ATOM     22  O   UNL     1      -0.551  11.148  23.321  0.00  0.00    +0.000 OA
BRANCH  21  23
ATOM     23  C   UNL     1      -1.329  13.310  22.832  0.00  0.00    +0.000 A 
ATOM     24  C   UNL     1      -0.567  14.471  22.647  0.00  0.00    +0.000 A 
ATOM     25 CL   UNL     1       1.034  14.461  21.992  0.00  0.00    +0.000 Cl
ATOM     26  C   UNL     1      -1.102  15.723  22.969  0.00  0.00    +0.000 A 
ATOM     27  C   UNL     1      -2.408  15.839  23.435  0.00  0.00    +0.000 A 
ATOM     28  C   UNL     1      -3.167  14.694  23.642  0.00  0.00    +0.000 A 
ATOM     29  C   UNL     1      -2.618  13.431  23.392  0.00  0.00    +0.000 A 
ATOM     30 CL   UNL     1      -3.583  12.088  23.913  0.00  0.00    +0.000 Cl
ENDBRANCH  21  23
ENDBRANCH   3  21
TORSDOF 5
ENDMDL
MODEL 9
REMARK VINA RESULT:      -7.3      5.714      9.095
REMARK  Name = 
REMARK  5 active torsions:
REMARK  status: ('A' for Active; 'I' for Inactive)
REMARK    1  A    between atoms: C_2  and  O_3
REMARK    2  A    between atoms: C_2  and  C_4
REMARK    3  A    between atoms: C_7  and  N_8
REMARK    4  A    between atoms: C_10  and  C_11
REMARK    5  A    between atoms: C_11  and  C_13
REMARK                            x       y       z     vdW  Elec       q    Type
REMARK                         _______ _______ _______ _____ _____    ______ ____
ROOT
ATOM      1  N   UNL     1       2.925   5.607  19.283  0.00  0.00    +0.000 N 
ATOM      2  C   UNL     1       4.296   5.749  19.478  0.00  0.00    +0.000 A 
ATOM      3  C   UNL     1       4.848   4.717  18.776  0.00  0.00    +0.000 A 
ATOM      4  C   UNL     1       3.986   3.652  19.103  0.00  0.00    +0.000 A 
ATOM      5  C   UNL     1       4.173   2.258  19.158  0.00  0.00    +0.000 A 
ATOM      6  C   UNL     1       3.076   1.430  19.347  0.00  0.00    +0.000 A 
ATOM      7  C   UNL     1       1.797   1.981  19.361  0.00  0.00    +0.000 A 
ATOM      8  C   UNL     1       1.587   3.373  19.303  0.00  0.00    +0.000 A 
ATOM      9  F   UNL     1       0.331   3.834  19.264  0.00  0.00    +0.000 F 
ATOM     10  C   UNL     1       2.699   4.226  19.278  0.00  0.00    +0.000 A 
ENDROOT
BRANCH   1  14
ATOM     11  C   UNL     1       1.499   9.515  19.080  0.00  0.00    +0.000 A 
ATOM     12  C   UNL     1       1.800   8.827  17.915  0.00  0.00    +0.000 A 
ATOM     13  C   UNL     1       2.096   7.474  18.005  0.00  0.00    +0.000 A 
ATOM     14  C   UNL     1       2.141   6.802  19.255  0.00  0.00    +0.000 A 
ATOM     15  C   UNL     1       1.625   7.430  20.379  0.00  0.00    +0.000 A 
ATOM     16  C   UNL     1       1.323   8.806  20.285  0.00  0.00    +0.000 A 
BRANCH  11  18
ATOM     17  O   UNL     1       0.969  11.639  20.012  0.00  0.00    +0.000 OA
ATOM     18  C   UNL     1       1.403  10.989  19.072  0.00  0.00    +0.000 C 
BRANCH  18  19
ATOM     19  O   UNL     1       1.913  11.563  17.950  0.00  0.00    +0.000 OA
ATOM     20  H   UNL     1       2.006  12.529  17.979  0.00  0.00    +0.000 HD
ENDBRANCH  18  19
ENDBRANCH  11  18
ENDBRANCH   1  14
BRANCH   3  21
ATOM     21  C   UNL     1       6.038   4.828  17.957  0.00  0.00    +0.000 C 
ATOM     22  O   UNL     1       6.518   3.851  17.388  0.00  0.00    +0.000 OA
BRANCH  21  23
ATOM     23  C   UNL     1       6.775   6.116  17.958  0.00  0.00    +0.000 A 
ATOM     24  C   UNL     1       6.401   7.108  17.042  0.00  0.00    +0.000 A 
ATOM     25 CL   UNL     1       5.111   6.913  15.908  0.00  0.00    +0.000 Cl
ATOM     26  C   UNL     1       7.061   8.342  17.032  0.00  0.00    +0.000 A 
ATOM     27  C   UNL     1       8.065   8.617  17.955  0.00  0.00    +0.000 A 
ATOM     28  C   UNL     1       8.460   7.636  18.855  0.00  0.00    +0.000 A 
ATOM     29  C   UNL     1       7.857   6.373  18.828  0.00  0.00    +0.000 A 
ATOM     30 CL   UNL     1       8.599   5.176  19.838  0.00  0.00    +0.000 Cl
ENDBRANCH  21  23
ENDBRANCH   3  21
TORSDOF 5
ENDMDL
