MODEL 1
REMARK VINA RESULT:      -8.6      0.000      0.000
REMARK  Name = 
REMARK  5 active torsions:
REMARK  status: ('A' for Active; 'I' for Inactive)
REMARK    1  A    between atoms: S_2  and  N_4
REMARK    2  A    between atoms: S_2  and  C_20
REMARK    3  A    between atoms: N_4  and  C_5
REMARK    4  A    between atoms: C_11  and  C_12
REMARK    5  A    between atoms: C_12  and  C_13
REMARK                            x       y       z     vdW  Elec       q    Type
REMARK                         _______ _______ _______ _____ _____    ______ ____
ROOT
ATOM      1  C   UNL     1       2.940   6.693  19.338  0.00  0.00    +0.000 A 
ATOM      2  C   UNL     1       3.404   7.038  18.071  0.00  0.00    +0.000 A 
ATOM      3  C   UNL     1       2.915   8.170  17.411  0.00  0.00    +0.000 A 
ATOM      4  C   UNL     1       1.960   8.948  18.076  0.00  0.00    +0.000 A 
ATOM      5  N   UNL     1       1.303  10.082  17.665  0.00  0.00    +0.000 N 
ATOM      6  C   UNL     1       0.453  10.516  18.645  0.00  0.00    +0.000 A 
ATOM      7  C   UNL     1       0.525   9.640  19.712  0.00  0.00    +0.000 A 
ATOM      8  C   UNL     1       1.492   8.640  19.355  0.00  0.00    +0.000 A 
ATOM      9  C   UNL     1       1.996   7.485  19.995  0.00  0.00    +0.000 A 
ATOM     10  H   UNL     1       1.423  10.520  16.761  0.00  0.00    +0.000 HD
ENDROOT
BRANCH   1  11
ATOM     11  N   UNL     1       3.404   5.497  19.950  0.00  0.00    +0.000 N 
ATOM     12  H   UNL     1       4.148   5.578  20.640  0.00  0.00    +0.000 HD
BRANCH  11  14
ATOM     13  O   UNL     1       3.658   3.006  20.057  0.00  0.00    +0.000 OA
ATOM     14  S   UNL     1       3.444   4.056  19.084  0.00  0.00    +0.000 S 
ATOM     15  O   UNL     1       2.325   4.007  18.168  0.00  0.00    +0.000 OA
BRANCH  14  16
ATOM     16  C   UNL     1       4.936   4.172  18.117  0.00  0.00    +0.000 A 
ATOM     17  C   UNL     1       6.108   4.645  18.711  0.00  0.00    +0.000 A 
ATOM     18  C   UNL     1       7.244   4.854  17.926  0.00  0.00    +0.000 A 
ATOM     19  C   UNL     1       7.199   4.604  16.553  0.00  0.00    +0.000 A 
ATOM     20  C   UNL     1       6.024   4.134  15.968  0.00  0.00    +0.000 A 
ATOM     21 CL   UNL     1       5.971   3.851  14.270  0.00  0.00    +0.000 Cl
ATOM     22  C   UNL     1       4.887   3.914  16.740  0.00  0.00    +0.000 A 
ENDBRANCH  14  16
ENDBRANCH  11  14
ENDBRANCH   1  11
BRANCH   7  23
ATOM     23  C   UNL     1      -0.298   9.712  20.965  0.00  0.00    +0.000 C 
BRANCH  23  24
ATOM     24  C   UNL     1       0.149  10.789  21.980  0.00  0.00    +0.000 C 
ATOM     25  C   UNL     1      -0.209  12.217  21.596  0.00  0.00    +0.000 C 
ATOM     26  C   UNL     1      -1.649  12.357  22.046  0.00  0.00    +0.000 C 
ATOM     27  C   UNL     1      -1.758  11.432  23.249  0.00  0.00    +0.000 C 
ATOM     28  N   UNL     1      -0.525  10.641  23.284  0.00  0.00    +0.000 NA
ATOM     29  H   UNL     1      -0.724   9.665  23.503  0.00  0.00    +0.000 HD
ENDBRANCH  23  24
ENDBRANCH   7  23
TORSDOF 5
ENDMDL
MODEL 2
REMARK VINA RESULT:      -8.3      3.932      8.709
REMARK  Name = 
REMARK  5 active torsions:
REMARK  status: ('A' for Active; 'I' for Inactive)
REMARK    1  A    between atoms: S_2  and  N_4
REMARK    2  A    between atoms: S_2  and  C_20
REMARK    3  A    between atoms: N_4  and  C_5
REMARK    4  A    between atoms: C_11  and  C_12
REMARK    5  A    between atoms: C_12  and  C_13
REMARK                            x       y       z     vdW  Elec       q    Type
REMARK                         _______ _______ _______ _____ _____    ______ ____
ROOT
ATOM      1  C   UNL     1       4.974   4.182  18.721  0.00  0.00    +0.000 A 
ATOM      2  C   UNL     1       5.799   5.186  19.223  0.00  0.00    +0.000 A 
ATOM      3  C   UNL     1       6.712   5.845  18.396  0.00  0.00    +0.000 A 
ATOM      4  C   UNL     1       6.753   5.474  17.047  0.00  0.00    +0.000 A 
ATOM      5  N   UNL     1       7.553   5.932  16.028  0.00  0.00    +0.000 N 
ATOM      6  C   UNL     1       7.247   5.288  14.861  0.00  0.00    +0.000 A 
ATOM      7  C   UNL     1       6.247   4.367  15.114  0.00  0.00    +0.000 A 
ATOM      8  C   UNL     1       5.924   4.487  16.509  0.00  0.00    +0.000 A 
ATOM      9  C   UNL     1       5.016   3.830  17.369  0.00  0.00    +0.000 A 
ATOM     10  H   UNL     1       8.275   6.633  16.135  0.00  0.00    +0.000 HD
ENDROOT
BRANCH   1  11
ATOM     11  N   UNL     1       4.108   3.481  19.603  0.00  0.00    +0.000 N 
ATOM     12  H   UNL     1       4.405   2.561  19.923  0.00  0.00    +0.000 HD
BRANCH  11  14
ATOM     13  O   UNL     1       2.082   3.044  18.194  0.00  0.00    +0.000 OA
ATOM     14  S   UNL     1       2.439   3.639  19.464  0.00  0.00    +0.000 S 
ATOM     15  O   UNL     1       1.807   3.213  20.693  0.00  0.00    +0.000 OA
BRANCH  14  16
ATOM     16  C   UNL     1       2.183   5.395  19.300  0.00  0.00    +0.000 A 
ATOM     17  C   UNL     1       2.410   6.013  18.068  0.00  0.00    +0.000 A 
ATOM     18  C   UNL     1       2.329   7.403  17.969  0.00  0.00    +0.000 A 
ATOM     19  C   UNL     1       2.037   8.168  19.100  0.00  0.00    +0.000 A 
ATOM     20  C   UNL     1       1.814   7.543  20.326  0.00  0.00    +0.000 A 
ATOM     21 CL   UNL     1       1.478   8.495  21.721  0.00  0.00    +0.000 Cl
ATOM     22  C   UNL     1       1.884   6.157  20.437  0.00  0.00    +0.000 A 
ENDBRANCH  14  16
ENDBRANCH  11  14
ENDBRANCH   1  11
BRANCH   7  23
ATOM     23  C   UNL     1       5.667   3.404  14.120  0.00  0.00    +0.000 C 
BRANCH  23  24
ATOM     24  C   UNL     1       5.698   3.882  12.651  0.00  0.00    +0.000 C 
ATOM     25  C   UNL     1       7.012   3.632  11.925  0.00  0.00    +0.000 C 
ATOM     26  C   UNL     1       6.902   2.189  11.477  0.00  0.00    +0.000 C 
ATOM     27  C   UNL     1       5.412   1.977  11.256  0.00  0.00    +0.000 C 
ATOM     28  N   UNL     1       4.734   3.153  11.806  0.00  0.00    +0.000 NA
ATOM     29  H   UNL     1       3.899   2.883  12.324  0.00  0.00    +0.000 HD
ENDBRANCH  23  24
ENDBRANCH   7  23
TORSDOF 5
ENDMDL
MODEL 3
REMARK VINA RESULT:      -8.2      3.759      5.969
REMARK  Name = 
REMARK  5 active torsions:
REMARK  status: ('A' for Active; 'I' for Inactive)
REMARK    1  A    between atoms: S_2  and  N_4
REMARK    2  A    between atoms: S_2  and  C_20
REMARK    3  A    between atoms: N_4  and  C_5
REMARK    4  A    between atoms: C_11  and  C_12
REMARK    5  A    between atoms: C_12  and  C_13
REMARK                            x       y       z     vdW  Elec       q    Type
REMARK                         _______ _______ _______ _____ _____    ______ ____
ROOT
ATOM      1  C   UNL     1       4.227   6.402  17.196  0.00  0.00    +0.000 A 
ATOM      2  C   UNL     1       3.614   7.638  17.385  0.00  0.00    +0.000 A 
ATOM      3  C   UNL     1       2.770   7.862  18.477  0.00  0.00    +0.000 A 
ATOM      4  C   UNL     1       2.580   6.807  19.377  0.00  0.00    +0.000 A 
ATOM      5  N   UNL     1       1.802   6.740  20.508  0.00  0.00    +0.000 N 
ATOM      6  C   UNL     1       1.921   5.509  21.090  0.00  0.00    +0.000 A 
ATOM      7  C   UNL     1       2.769   4.736  20.320  0.00  0.00    +0.000 A 
ATOM      8  C   UNL     1       3.198   5.564  19.227  0.00  0.00    +0.000 A 
ATOM      9  C   UNL     1       4.039   5.362  18.110  0.00  0.00    +0.000 A 
ATOM     10  H   UNL     1       1.214   7.491  20.846  0.00  0.00    +0.000 HD
ENDROOT
BRANCH   1  11
ATOM     11  N   UNL     1       5.021   6.185  16.038  0.00  0.00    +0.000 N 
ATOM     12  H   UNL     1       4.536   6.022  15.157  0.00  0.00    +0.000 HD
BRANCH  11  14
ATOM     13  O   UNL     1       7.475   6.388  16.504  0.00  0.00    +0.000 OA
ATOM     14  S   UNL     1       6.495   5.383  16.152  0.00  0.00    +0.000 S 
ATOM     15  O   UNL     1       6.337   4.184  16.947  0.00  0.00    +0.000 OA
BRANCH  14  16
ATOM     16  C   UNL     1       6.848   4.884  14.478  0.00  0.00    +0.000 A 
ATOM     17  C   UNL     1       7.814   5.573  13.743  0.00  0.00    +0.000 A 
ATOM     18  C   UNL     1       8.004   5.264  12.394  0.00  0.00    +0.000 A 
ATOM     19  C   UNL     1       7.221   4.282  11.785  0.00  0.00    +0.000 A 
ATOM     20  C   UNL     1       6.257   3.601  12.527  0.00  0.00    +0.000 A 
ATOM     21 CL   UNL     1       5.278   2.407  11.763  0.00  0.00    +0.000 Cl
ATOM     22  C   UNL     1       6.062   3.893  13.874  0.00  0.00    +0.000 A 
ENDBRANCH  14  16
ENDBRANCH  11  14
ENDBRANCH   1  11
BRANCH   7  23
ATOM     23  C   UNL     1       3.116   3.297  20.568  0.00  0.00    +0.000 C 
BRANCH  23  24
ATOM     24  C   UNL     1       2.080   2.275  20.047  0.00  0.00    +0.000 C 
ATOM     25  C   UNL     1       0.825   2.890  19.443  0.00  0.00    +0.000 C 
ATOM     26  C   UNL     1       1.241   3.228  18.025  0.00  0.00    +0.000 C 
ATOM     27  C   UNL     1       2.282   2.175  17.678  0.00  0.00    +0.000 C 
ATOM     28  N   UNL     1       2.603   1.473  18.925  0.00  0.00    +0.000 NA
ATOM     29  H   UNL     1       3.606   1.313  19.005  0.00  0.00    +0.000 HD
ENDBRANCH  23  24
ENDBRANCH   7  23
TORSDOF 5
ENDMDL
MODEL 4
REMARK VINA RESULT:      -8.2      2.986      4.913
REMARK  Name = 
REMARK  5 active torsions:
REMARK  status: ('A' for Active; 'I' for Inactive)
REMARK    1  A    between atoms: S_2  and  N_4
REMARK    2  A    between atoms: S_2  and  C_20
REMARK    3  A    between atoms: N_4  and  C_5
REMARK    4  A    between atoms: C_11  and  C_12
REMARK    5  A    between atoms: C_12  and  C_13
REMARK                            x       y       z     vdW  Elec       q    Type
REMARK                         _______ _______ _______ _____ _____    ______ ____
ROOT
ATOM      1  C   UNL     1       3.740   3.862  17.294  0.00  0.00    +0.000 A 
ATOM      2  C   UNL     1       4.077   2.564  17.669  0.00  0.00    +0.000 A 
ATOM      3  C   UNL     1       3.638   2.031  18.885  0.00  0.00    +0.000 A 
ATOM      4  C   UNL     1       2.836   2.841  19.698  0.00  0.00    +0.000 A 
ATOM      5  N   UNL     1       2.290   2.588  20.933  0.00  0.00    +0.000 N 
ATOM      6  C   UNL     1       1.567   3.668  21.359  0.00  0.00    +0.000 A 
ATOM      7  C   UNL     1       1.658   4.664  20.405  0.00  0.00    +0.000 A 
ATOM      8  C   UNL     1       2.463   4.138  19.339  0.00  0.00    +0.000 A 
ATOM      9  C   UNL     1       2.928   4.655  18.109  0.00  0.00    +0.000 A 
ATOM     10  H   UNL     1       2.421   1.731  21.454  0.00  0.00    +0.000 HD
ENDROOT
BRANCH   1  11
ATOM     11  N   UNL     1       4.262   4.399  16.086  0.00  0.00    +0.000 N 
ATOM     12  H   UNL     1       4.009   3.935  15.215  0.00  0.00    +0.000 HD
BRANCH  11  14
ATOM     13  O   UNL     1       5.575   6.533  16.045  0.00  0.00    +0.000 OA
ATOM     14  S   UNL     1       5.790   5.101  16.056  0.00  0.00    +0.000 S 
ATOM     15  O   UNL     1       6.631   4.480  17.055  0.00  0.00    +0.000 OA
BRANCH  14  16
ATOM     16  C   UNL     1       6.434   4.666  14.452  0.00  0.00    +0.000 A 
ATOM     17  C   UNL     1       7.470   5.420  13.898  0.00  0.00    +0.000 A 
ATOM     18  C   UNL     1       7.891   5.158  12.592  0.00  0.00    +0.000 A 
ATOM     19  C   UNL     1       7.268   4.156  11.845  0.00  0.00    +0.000 A 
ATOM     20  C   UNL     1       6.233   3.410  12.407  0.00  0.00    +0.000 A 
ATOM     21 CL   UNL     1       5.454   2.192  11.471  0.00  0.00    +0.000 Cl
ATOM     22  C   UNL     1       5.808   3.656  13.710  0.00  0.00    +0.000 A 
ENDBRANCH  14  16
ENDBRANCH  11  14
ENDBRANCH   1  11
BRANCH   7  23
ATOM     23  C   UNL     1       1.066   6.040  20.513  0.00  0.00    +0.000 C 
BRANCH  23  24
ATOM     24  C   UNL     1       2.094   7.194  20.532  0.00  0.00    +0.000 C 
ATOM     25  C   UNL     1       2.090   8.073  19.290  0.00  0.00    +0.000 C 
ATOM     26  C   UNL     1       0.957   9.046  19.546  0.00  0.00    +0.000 C 
ATOM     27  C   UNL     1       0.929   9.200  21.059  0.00  0.00    +0.000 C 
ATOM     28  N   UNL     1       1.818   8.170  21.603  0.00  0.00    +0.000 NA
ATOM     29  H   UNL     1       1.406   7.730  22.424  0.00  0.00    +0.000 HD
ENDBRANCH  23  24
ENDBRANCH   7  23
TORSDOF 5
ENDMDL
MODEL 5
REMARK VINA RESULT:      -8.1      2.634      4.086
REMARK  Name = 
REMARK  5 active torsions:
REMARK  status: ('A' for Active; 'I' for Inactive)
REMARK    1  A    between atoms: S_2  and  N_4
REMARK    2  A    between atoms: S_2  and  C_20
REMARK    3  A    between atoms: N_4  and  C_5
REMARK    4  A    between atoms: C_11  and  C_12
REMARK    5  A    between atoms: C_12  and  C_13
REMARK                            x       y       z     vdW  Elec       q    Type
REMARK                         _______ _______ _______ _____ _____    ______ ____
ROOT
ATOM      1  C   UNL     1       4.006   4.871  17.575  0.00  0.00    +0.000 A 
ATOM      2  C   UNL     1       3.897   3.909  18.576  0.00  0.00    +0.000 A 
ATOM      3  C   UNL     1       3.248   4.195  19.780  0.00  0.00    +0.000 A 
ATOM      4  C   UNL     1       2.698   5.473  19.934  0.00  0.00    +0.000 A 
ATOM      5  N   UNL     1       2.033   6.026  21.001  0.00  0.00    +0.000 N 
ATOM      6  C   UNL     1       1.664   7.311  20.713  0.00  0.00    +0.000 A 
ATOM      7  C   UNL     1       2.115   7.626  19.445  0.00  0.00    +0.000 A 
ATOM      8  C   UNL     1       2.771   6.452  18.941  0.00  0.00    +0.000 A 
ATOM      9  C   UNL     1       3.441   6.139  17.737  0.00  0.00    +0.000 A 
ATOM     10  H   UNL     1       1.860   5.552  21.878  0.00  0.00    +0.000 HD
ENDROOT
BRANCH   1  11
ATOM     11  N   UNL     1       4.735   4.572  16.393  0.00  0.00    +0.000 N 
ATOM     12  H   UNL     1       4.545   3.683  15.933  0.00  0.00    +0.000 HD
BRANCH  11  14
ATOM     13  O   UNL     1       6.287   6.538  16.311  0.00  0.00    +0.000 OA
ATOM     14  S   UNL     1       6.324   5.094  16.216  0.00  0.00    +0.000 S 
ATOM     15  O   UNL     1       7.191   4.312  17.069  0.00  0.00    +0.000 OA
BRANCH  14  16
ATOM     16  C   UNL     1       6.724   4.701  14.524  0.00  0.00    +0.000 A 
ATOM     17  C   UNL     1       7.683   5.457  13.848  0.00  0.00    +0.000 A 
ATOM     18  C   UNL     1       7.907   5.229  12.489  0.00  0.00    +0.000 A 
ATOM     19  C   UNL     1       7.165   4.261  11.810  0.00  0.00    +0.000 A 
ATOM     20  C   UNL     1       6.207   3.513  12.493  0.00  0.00    +0.000 A 
ATOM     21 CL   UNL     1       5.278   2.337  11.644  0.00  0.00    +0.000 Cl
ATOM     22  C   UNL     1       5.978   3.723  13.850  0.00  0.00    +0.000 A 
ENDBRANCH  14  16
ENDBRANCH  11  14
ENDBRANCH   1  11
BRANCH   7  23
ATOM     23  C   UNL     1       1.980   8.960  18.770  0.00  0.00    +0.000 C 
BRANCH  23  24
ATOM     24  C   UNL     1       0.606   9.645  18.944  0.00  0.00    +0.000 C 
ATOM     25  C   UNL     1       0.351  10.223  20.329  0.00  0.00    +0.000 C 
ATOM     26  C   UNL     1       1.043  11.570  20.286  0.00  0.00    +0.000 C 
ATOM     27  C   UNL     1       0.943  11.998  18.829  0.00  0.00    +0.000 C 
ATOM     28  N   UNL     1       0.461  10.833  18.081  0.00  0.00    +0.000 NA
ATOM     29  H   UNL     1       0.966  10.730  17.202  0.00  0.00    +0.000 HD
ENDBRANCH  23  24
ENDBRANCH   7  23
TORSDOF 5
ENDMDL
MODEL 6
REMARK VINA RESULT:      -8.1      2.963      4.168
REMARK  Name = 
REMARK  5 active torsions:
REMARK  status: ('A' for Active; 'I' for Inactive)
REMARK    1  A    between atoms: S_2  and  N_4
REMARK    2  A    between atoms: S_2  and  C_20
REMARK    3  A    between atoms: N_4  and  C_5
REMARK    4  A    between atoms: C_11  and  C_12
REMARK    5  A    between atoms: C_12  and  C_13
REMARK                            x       y       z     vdW  Elec       q    Type
REMARK                         _______ _______ _______ _____ _____    ______ ____
ROOT
ATOM      1  C   UNL     1       4.073   4.687  17.387  0.00  0.00    +0.000 A 
ATOM      2  C   UNL     1       4.003   3.749  18.414  0.00  0.00    +0.000 A 
ATOM      3  C   UNL     1       3.398   4.064  19.634  0.00  0.00    +0.000 A 
ATOM      4  C   UNL     1       2.851   5.345  19.777  0.00  0.00    +0.000 A 
ATOM      5  N   UNL     1       2.225   5.923  20.854  0.00  0.00    +0.000 N 
ATOM      6  C   UNL     1       1.842   7.200  20.548  0.00  0.00    +0.000 A 
ATOM      7  C   UNL     1       2.245   7.484  19.257  0.00  0.00    +0.000 A 
ATOM      8  C   UNL     1       2.885   6.299  18.758  0.00  0.00    +0.000 A 
ATOM      9  C   UNL     1       3.511   5.957  17.538  0.00  0.00    +0.000 A 
ATOM     10  H   UNL     1       2.085   5.471  21.749  0.00  0.00    +0.000 HD
ENDROOT
BRANCH   1  11
ATOM     11  N   UNL     1       4.758   4.360  16.186  0.00  0.00    +0.000 N 
ATOM     12  H   UNL     1       5.004   3.383  16.034  0.00  0.00    +0.000 HD
BRANCH  11  14
ATOM     13  O   UNL     1       6.669   4.670  14.594  0.00  0.00    +0.000 OA
ATOM     14  S   UNL     1       5.852   5.442  15.506  0.00  0.00    +0.000 S 
ATOM     15  O   UNL     1       5.151   6.627  15.061  0.00  0.00    +0.000 OA
BRANCH  14  16
ATOM     16  C   UNL     1       6.903   5.909  16.868  0.00  0.00    +0.000 A 
ATOM     17  C   UNL     1       7.223   4.966  17.846  0.00  0.00    +0.000 A 
ATOM     18  C   UNL     1       7.943   5.362  18.976  0.00  0.00    +0.000 A 
ATOM     19  C   UNL     1       8.325   6.696  19.129  0.00  0.00    +0.000 A 
ATOM     20  C   UNL     1       7.998   7.631  18.147  0.00  0.00    +0.000 A 
ATOM     21 CL   UNL     1       8.452   9.279  18.355  0.00  0.00    +0.000 Cl
ATOM     22  C   UNL     1       7.288   7.249  17.013  0.00  0.00    +0.000 A 
ENDBRANCH  14  16
ENDBRANCH  11  14
ENDBRANCH   1  11
BRANCH   7  23
ATOM     23  C   UNL     1       2.082   8.801  18.555  0.00  0.00    +0.000 C 
BRANCH  23  24
ATOM     24  C   UNL     1       0.706   9.479  18.748  0.00  0.00    +0.000 C 
ATOM     25  C   UNL     1       0.441   9.997  20.154  0.00  0.00    +0.000 C 
ATOM     26  C   UNL     1       1.134  11.344  20.174  0.00  0.00    +0.000 C 
ATOM     27  C   UNL     1       1.045  11.834  18.736  0.00  0.00    +0.000 C 
ATOM     28  N   UNL     1       0.569  10.702  17.935  0.00  0.00    +0.000 NA
ATOM     29  H   UNL     1       1.080  10.637  17.056  0.00  0.00    +0.000 HD
ENDBRANCH  23  24
ENDBRANCH   7  23
TORSDOF 5
ENDMDL
MODEL 7
REMARK VINA RESULT:      -8.1      1.430      1.781
REMARK  Name = 
REMARK  5 active torsions:
REMARK  status: ('A' for Active; 'I' for Inactive)
REMARK    1  A    between atoms: S_2  and  N_4
REMARK    2  A    between atoms: S_2  and  C_20
REMARK    3  A    between atoms: N_4  and  C_5
REMARK    4  A    between atoms: C_11  and  C_12
REMARK    5  A    between atoms: C_12  and  C_13
REMARK                            x       y       z     vdW  Elec       q    Type
REMARK                         _______ _______ _______ _____ _____    ______ ____
ROOT
ATOM      1  C   UNL     1       2.284   7.189  19.694  0.00  0.00    +0.000 A 
ATOM      2  C   UNL     1       2.711   7.409  18.387  0.00  0.00    +0.000 A 
ATOM      3  C   UNL     1       2.313   8.549  17.683  0.00  0.00    +0.000 A 
ATOM      4  C   UNL     1       1.488   9.467  18.345  0.00  0.00    +0.000 A 
ATOM      5  N   UNL     1       0.938  10.643  17.898  0.00  0.00    +0.000 N 
ATOM      6  C   UNL     1       0.197  11.224  18.889  0.00  0.00    +0.000 A 
ATOM      7  C   UNL     1       0.232  10.407  20.003  0.00  0.00    +0.000 A 
ATOM      8  C   UNL     1       1.062   9.286  19.662  0.00  0.00    +0.000 A 
ATOM      9  C   UNL     1       1.471   8.120  20.347  0.00  0.00    +0.000 A 
ATOM     10  H   UNL     1       1.054  11.013  16.963  0.00  0.00    +0.000 HD
ENDROOT
BRANCH   1  11
ATOM     11  N   UNL     1       2.646   5.986  20.355  0.00  0.00    +0.000 N 
ATOM     12  H   UNL     1       3.321   6.049  21.116  0.00  0.00    +0.000 HD
BRANCH  11  14
ATOM     13  O   UNL     1       2.942   3.501  20.494  0.00  0.00    +0.000 OA
ATOM     14  S   UNL     1       2.726   4.536  19.506  0.00  0.00    +0.000 S 
ATOM     15  O   UNL     1       1.624   4.458  18.572  0.00  0.00    +0.000 OA
BRANCH  14  16
ATOM     16  C   UNL     1       4.232   4.669  18.562  0.00  0.00    +0.000 A 
ATOM     17  C   UNL     1       4.274   4.174  17.257  0.00  0.00    +0.000 A 
ATOM     18  C   UNL     1       5.486   4.166  16.562  0.00  0.00    +0.000 A 
ATOM     19  C   UNL     1       6.647   4.637  17.177  0.00  0.00    +0.000 A 
ATOM     20  C   UNL     1       6.595   5.127  18.481  0.00  0.00    +0.000 A 
ATOM     21 CL   UNL     1       8.037   5.685  19.241  0.00  0.00    +0.000 Cl
ATOM     22  C   UNL     1       5.393   5.149  19.183  0.00  0.00    +0.000 A 
ENDBRANCH  14  16
ENDBRANCH  11  14
ENDBRANCH   1  11
BRANCH   7  23
ATOM     23  C   UNL     1      -0.507  10.642  21.289  0.00  0.00    +0.000 C 
BRANCH  23  24
ATOM     24  C   UNL     1      -0.628  12.124  21.712  0.00  0.00    +0.000 C 
ATOM     25  C   UNL     1      -1.833  12.856  21.138  0.00  0.00    +0.000 C 
ATOM     26  C   UNL     1      -2.962  12.472  22.073  0.00  0.00    +0.000 C 
ATOM     27  C   UNL     1      -2.281  12.263  23.417  0.00  0.00    +0.000 C 
ATOM     28  N   UNL     1      -0.838  12.274  23.165  0.00  0.00    +0.000 NA
ATOM     29  H   UNL     1      -0.369  11.541  23.696  0.00  0.00    +0.000 HD
ENDBRANCH  23  24
ENDBRANCH   7  23
TORSDOF 5
ENDMDL
MODEL 8
REMARK VINA RESULT:      -8.1      2.899      4.336
REMARK  Name = 
REMARK  5 active torsions:
REMARK  status: ('A' for Active; 'I' for Inactive)
REMARK    1  A    between atoms: S_2  and  N_4
REMARK    2  A    between atoms: S_2  and  C_20
REMARK    3  A    between atoms: N_4  and  C_5
REMARK    4  A    between atoms: C_11  and  C_12
REMARK    5  A    between atoms: C_12  and  C_13
REMARK                            x       y       z     vdW  Elec       q    Type
REMARK                         _______ _______ _______ _____ _____    ______ ____
ROOT
ATOM      1  C   UNL     1       4.137   5.315  17.080  0.00  0.00    +0.000 A 
ATOM      2  C   UNL     1       3.833   3.959  16.976  0.00  0.00    +0.000 A 
ATOM      3  C   UNL     1       2.974   3.343  17.891  0.00  0.00    +0.000 A 
ATOM      4  C   UNL     1       2.420   4.141  18.899  0.00  0.00    +0.000 A 
ATOM      5  N   UNL     1       1.574   3.803  19.928  0.00  0.00    +0.000 N 
ATOM      6  C   UNL     1       1.280   4.907  20.679  0.00  0.00    +0.000 A 
ATOM      7  C   UNL     1       1.962   5.990  20.157  0.00  0.00    +0.000 A 
ATOM      8  C   UNL     1       2.687   5.506  19.016  0.00  0.00    +0.000 A 
ATOM      9  C   UNL     1       3.566   6.101  18.083  0.00  0.00    +0.000 A 
ATOM     10  H   UNL     1       1.235   2.867  20.109  0.00  0.00    +0.000 HD
ENDROOT
BRANCH   1  11
ATOM     11  N   UNL     1       5.070   5.893  16.178  0.00  0.00    +0.000 N 
ATOM     12  H   UNL     1       4.725   6.186  15.265  0.00  0.00    +0.000 HD
BRANCH  11  14
ATOM     13  O   UNL     1       7.478   6.555  16.391  0.00  0.00    +0.000 OA
ATOM     14  S   UNL     1       6.670   5.376  16.158  0.00  0.00    +0.000 S 
ATOM     15  O   UNL     1       6.812   4.199  16.986  0.00  0.00    +0.000 OA
BRANCH  14  16
ATOM     16  C   UNL     1       6.947   4.889  14.466  0.00  0.00    +0.000 A 
ATOM     17  C   UNL     1       7.879   5.583  13.692  0.00  0.00    +0.000 A 
ATOM     18  C   UNL     1       8.007   5.283  12.334  0.00  0.00    +0.000 A 
ATOM     19  C   UNL     1       7.197   4.305  11.755  0.00  0.00    +0.000 A 
ATOM     20  C   UNL     1       6.268   3.619  12.536  0.00  0.00    +0.000 A 
ATOM     21 CL   UNL     1       5.255   2.430  11.809  0.00  0.00    +0.000 Cl
ATOM     22  C   UNL     1       6.134   3.902  13.892  0.00  0.00    +0.000 A 
ENDBRANCH  14  16
ENDBRANCH  11  14
ENDBRANCH   1  11
BRANCH   7  23
ATOM     23  C   UNL     1       1.970   7.380  20.725  0.00  0.00    +0.000 C 
BRANCH  23  24
ATOM     24  C   UNL     1       0.694   8.207  20.448  0.00  0.00    +0.000 C 
ATOM     25  C   UNL     1      -0.201   8.427  21.659  0.00  0.00    +0.000 C 
ATOM     26  C   UNL     1       0.438   9.605  22.366  0.00  0.00    +0.000 C 
ATOM     27  C   UNL     1       1.070  10.417  21.245  0.00  0.00    +0.000 C 
ATOM     28  N   UNL     1       1.004   9.590  20.037  0.00  0.00    +0.000 NA
ATOM     29  H   UNL     1       1.874   9.646  19.510  0.00  0.00    +0.000 HD
ENDBRANCH  23  24
ENDBRANCH   7  23
TORSDOF 5
ENDMDL
MODEL 9
REMARK VINA RESULT:      -8.0      4.690      8.736
REMARK  Name = 
REMARK  5 active torsions:
REMARK  status: ('A' for Active; 'I' for Inactive)
REMARK    1  A    between atoms: S_2  and  N_4
REMARK    2  A    between atoms: S_2  and  C_20
REMARK    3  A    between atoms: N_4  and  C_5
REMARK    4  A    between atoms: C_11  and  C_12
REMARK    5  A    between atoms: C_12  and  C_13
REMARK                            x       y       z     vdW  Elec       q    Type
REMARK                         _______ _______ _______ _____ _____    ______ ____
ROOT
ATOM      1  C   UNL     1       0.843   8.656  20.180  0.00  0.00    +0.000 A 
ATOM      2  C   UNL     1       0.898   9.513  19.083  0.00  0.00    +0.000 A 
ATOM      3  C   UNL     1       1.773   9.265  18.022  0.00  0.00    +0.000 A 
ATOM      4  C   UNL     1       2.574   8.119  18.094  0.00  0.00    +0.000 A 
ATOM      5  N   UNL     1       3.522   7.648  17.218  0.00  0.00    +0.000 N 
ATOM      6  C   UNL     1       4.060   6.482  17.689  0.00  0.00    +0.000 A 
ATOM      7  C   UNL     1       3.481   6.189  18.909  0.00  0.00    +0.000 A 
ATOM      8  C   UNL     1       2.526   7.230  19.169  0.00  0.00    +0.000 A 
ATOM      9  C   UNL     1       1.639   7.509  20.233  0.00  0.00    +0.000 A 
ATOM     10  H   UNL     1       3.791   8.110  16.359  0.00  0.00    +0.000 HD
ENDROOT
BRANCH   1  11
ATOM     11  N   UNL     1      -0.004   8.975  21.275  0.00  0.00    +0.000 N 
ATOM     12  H   UNL     1      -0.996   8.765  21.182  0.00  0.00    +0.000 HD
BRANCH  11  14
ATOM     13  O   UNL     1       0.386   9.839  23.595  0.00  0.00    +0.000 OA
ATOM     14  S   UNL     1       0.311  10.322  22.233  0.00  0.00    +0.000 S 
ATOM     15  O   UNL     1       1.391  11.090  21.652  0.00  0.00    +0.000 OA
BRANCH  14  16
ATOM     16  C   UNL     1      -1.177  11.295  22.113  0.00  0.00    +0.000 A 
ATOM     17  C   UNL     1      -1.445  12.004  20.941  0.00  0.00    +0.000 A 
ATOM     18  C   UNL     1      -2.545  12.864  20.891  0.00  0.00    +0.000 A 
ATOM     19  C   UNL     1      -3.360  13.021  22.013  0.00  0.00    +0.000 A 
ATOM     20  C   UNL     1      -3.082  12.311  23.181  0.00  0.00    +0.000 A 
ATOM     21 CL   UNL     1      -4.079  12.528  24.569  0.00  0.00    +0.000 Cl
ATOM     22  C   UNL     1      -1.994  11.445  23.242  0.00  0.00    +0.000 A 
ENDBRANCH  14  16
ENDBRANCH  11  14
ENDBRANCH   1  11
BRANCH   7  23
ATOM     23  C   UNL     1       3.838   5.031  19.796  0.00  0.00    +0.000 C 
BRANCH  23  24
ATOM     24  C   UNL     1       3.124   3.703  19.457  0.00  0.00    +0.000 C 
ATOM     25  C   UNL     1       2.962   2.748  20.631  0.00  0.00    +0.000 C 
ATOM     26  C   UNL     1       1.725   3.260  21.339  0.00  0.00    +0.000 C 
ATOM     27  C   UNL     1       0.879   3.864  20.229  0.00  0.00    +0.000 C 
ATOM     28  N   UNL     1       1.726   3.913  19.034  0.00  0.00    +0.000 NA
ATOM     29  H   UNL     1       1.606   4.795  18.538  0.00  0.00    +0.000 HD
ENDBRANCH  23  24
ENDBRANCH   7  23
TORSDOF 5
ENDMDL
