MODEL 1
REMARK VINA RESULT:      -8.0      0.000      0.000
REMARK  Name = 
REMARK  6 active torsions:
REMARK  status: ('A' for Active; 'I' for Inactive)
REMARK    1  A    between atoms: C_1  and  C_2
REMARK    2  A    between atoms: C_2  and  C_3
REMARK    3  A    between atoms: C_12  and  C_13
REMARK    4  A    between atoms: C_21  and  O_22
REMARK    5  A    between atoms: O_22  and  C_23
REMARK    6  A    between atoms: C_23  and  C_24
REMARK                            x       y       z     vdW  Elec       q    Type
REMARK                         _______ _______ _______ _____ _____    ______ ____
ROOT
ATOM      1  C   UNL     1       2.953   2.131  19.292  0.00  0.00    +0.000 C 
ATOM      2  O   UNL     1       3.682   1.403  18.616  0.00  0.00    +0.000 OA
ATOM      3  N   UNL     1       3.449   3.238  19.973  0.00  0.00    +0.000 N 
ATOM      4  C   UNL     1       2.642   4.162  20.775  0.00  0.00    +0.000 C 
ATOM      5  C   UNL     1       2.291   5.431  20.007  0.00  0.00    +0.000 C 
ATOM      6  O   UNL     1       3.475   6.218  19.790  0.00  0.00    +0.000 OA
ATOM      7  C   UNL     1       4.049   5.914  18.581  0.00  0.00    +0.000 A 
ATOM      8  C   UNL     1       4.727   4.689  18.460  0.00  0.00    +0.000 A 
ATOM      9  C   UNL     1       5.330   4.360  17.235  0.00  0.00    +0.000 A 
ATOM     10  C   UNL     1       5.264   5.215  16.120  0.00  0.00    +0.000 A 
ATOM     11  C   UNL     1       4.595   6.444  16.292  0.00  0.00    +0.000 A 
ATOM     12  C   UNL     1       3.998   6.816  17.507  0.00  0.00    +0.000 A 
ATOM     13  C   UNL     1       4.786   3.711  19.615  0.00  0.00    +0.000 C 
ENDROOT
BRANCH  10  14
ATOM     14  C   UNL     1       5.848   4.821  14.812  0.00  0.00    +0.000 A 
ATOM     15  C   UNL     1       7.150   5.204  14.434  0.00  0.00    +0.000 A 
ATOM     16  C   UNL     1       7.681   4.869  13.183  0.00  0.00    +0.000 A 
ATOM     17  C   UNL     1       6.926   4.125  12.281  0.00  0.00    +0.000 A 
ATOM     18  C   UNL     1       5.646   3.717  12.638  0.00  0.00    +0.000 A 
ATOM     19 CL   UNL     1       4.709   2.788  11.532  0.00  0.00    +0.000 Cl
ATOM     20  C   UNL     1       5.110   4.062  13.882  0.00  0.00    +0.000 A 
ENDBRANCH  10  14
BRANCH   1  22
ATOM     21  C   UNL     1       0.663   2.676  18.374  0.00  0.00    +0.000 C 
ATOM     22  C   UNL     1       1.457   1.875  19.392  0.00  0.00    +0.000 C 
ENDBRANCH   1  22
BRANCH  12  23
ATOM     23  O   UNL     1       3.405   8.055  17.462  0.00  0.00    +0.000 OA
BRANCH  23  24
ATOM     24  C   UNL     1       2.117   8.186  18.059  0.00  0.00    +0.000 C 
BRANCH  24  25
ATOM     25  C   UNL     1       2.015   9.440  18.940  0.00  0.00    +0.000 C 
ATOM     26  C   UNL     1       1.426   9.179  20.329  0.00  0.00    +0.000 C 
ATOM     27  C   UNL     1      -0.072   8.898  20.269  0.00  0.00    +0.000 C 
ATOM     28  C   UNL     1      -0.790   9.974  19.463  0.00  0.00    +0.000 C 
ATOM     29  C   UNL     1      -0.118  10.202  18.117  0.00  0.00    +0.000 C 
ATOM     30  O   UNL     1       1.275  10.479  18.274  0.00  0.00    +0.000 OA
ENDBRANCH  24  25
ENDBRANCH  23  24
ENDBRANCH  12  23
TORSDOF 5
ENDMDL
MODEL 2
REMARK VINA RESULT:      -7.6      3.158      7.098
REMARK  Name = 
REMARK  6 active torsions:
REMARK  status: ('A' for Active; 'I' for Inactive)
REMARK    1  A    between atoms: C_1  and  C_2
REMARK    2  A    between atoms: C_2  and  C_3
REMARK    3  A    between atoms: C_12  and  C_13
REMARK    4  A    between atoms: C_21  and  O_22
REMARK    5  A    between atoms: O_22  and  C_23
REMARK    6  A    between atoms: C_23  and  C_24
REMARK                            x       y       z     vdW  Elec       q    Type
REMARK                         _______ _______ _______ _____ _____    ______ ____
ROOT
ATOM      1  C   UNL     1       1.218   2.886  20.062  0.00  0.00    +0.000 C 
ATOM      2  O   UNL     1       0.286   3.632  20.370  0.00  0.00    +0.000 OA
ATOM      3  N   UNL     1       1.639   2.745  18.744  0.00  0.00    +0.000 N 
ATOM      4  C   UNL     1       2.753   1.899  18.305  0.00  0.00    +0.000 C 
ATOM      5  C   UNL     1       4.032   2.701  18.091  0.00  0.00    +0.000 C 
ATOM      6  O   UNL     1       3.883   3.571  16.955  0.00  0.00    +0.000 OA
ATOM      7  C   UNL     1       3.438   4.809  17.343  0.00  0.00    +0.000 A 
ATOM      8  C   UNL     1       2.095   4.937  17.736  0.00  0.00    +0.000 A 
ATOM      9  C   UNL     1       1.615   6.197  18.128  0.00  0.00    +0.000 A 
ATOM     10  C   UNL     1       2.442   7.334  18.153  0.00  0.00    +0.000 A 
ATOM     11  C   UNL     1       3.776   7.167  17.729  0.00  0.00    +0.000 A 
ATOM     12  C   UNL     1       4.286   5.927  17.310  0.00  0.00    +0.000 A 
ATOM     13  C   UNL     1       1.174   3.734  17.773  0.00  0.00    +0.000 C 
ENDROOT
BRANCH  10  14
ATOM     14  C   UNL     1       1.936   8.644  18.637  0.00  0.00    +0.000 A 
ATOM     15  C   UNL     1       2.124   9.830  17.902  0.00  0.00    +0.000 A 
ATOM     16  C   UNL     1       1.684  11.070  18.381  0.00  0.00    +0.000 A 
ATOM     17  C   UNL     1       1.029  11.152  19.605  0.00  0.00    +0.000 A 
ATOM     18  C   UNL     1       0.813   9.993  20.341  0.00  0.00    +0.000 A 
ATOM     19 CL   UNL     1      -0.006  10.084  21.853  0.00  0.00    +0.000 Cl
ATOM     20  C   UNL     1       1.262   8.757  19.869  0.00  0.00    +0.000 A 
ENDBRANCH  10  14
BRANCH   1  22
ATOM     21  C   UNL     1       3.248   2.816  21.565  0.00  0.00    +0.000 C 
ATOM     22  C   UNL     1       1.982   2.103  21.118  0.00  0.00    +0.000 C 
ENDBRANCH   1  22
BRANCH  12  23
ATOM     23  O   UNL     1       5.606   5.985  16.933  0.00  0.00    +0.000 OA
BRANCH  23  24
ATOM     24  C   UNL     1       5.895   5.874  15.541  0.00  0.00    +0.000 C 
BRANCH  24  25
ATOM     25  C   UNL     1       6.903   4.752  15.248  0.00  0.00    +0.000 C 
ATOM     26  C   UNL     1       7.956   5.119  14.199  0.00  0.00    +0.000 C 
ATOM     27  C   UNL     1       7.363   5.178  12.795  0.00  0.00    +0.000 C 
ATOM     28  C   UNL     1       6.572   3.911  12.490  0.00  0.00    +0.000 C 
ATOM     29  C   UNL     1       5.580   3.594  13.600  0.00  0.00    +0.000 C 
ATOM     30  O   UNL     1       6.228   3.538  14.873  0.00  0.00    +0.000 OA
ENDBRANCH  24  25
ENDBRANCH  23  24
ENDBRANCH  12  23
TORSDOF 5
ENDMDL
MODEL 3
REMARK VINA RESULT:      -7.6      1.007      1.328
REMARK  Name = 
REMARK  6 active torsions:
REMARK  status: ('A' for Active; 'I' for Inactive)
REMARK    1  A    between atoms: C_1  and  C_2
REMARK    2  A    between atoms: C_2  and  C_3
REMARK    3  A    between atoms: C_12  and  C_13
REMARK    4  A    between atoms: C_21  and  O_22
REMARK    5  A    between atoms: O_22  and  C_23
REMARK    6  A    between atoms: C_23  and  C_24
REMARK                            x       y       z     vdW  Elec       q    Type
REMARK                         _______ _______ _______ _____ _____    ______ ____
ROOT
ATOM      1  C   UNL     1       2.852   2.106  19.350  0.00  0.00    +0.000 C 
ATOM      2  O   UNL     1       3.584   1.391  18.662  0.00  0.00    +0.000 OA
ATOM      3  N   UNL     1       3.346   3.197  20.056  0.00  0.00    +0.000 N 
ATOM      4  C   UNL     1       2.536   4.106  20.873  0.00  0.00    +0.000 C 
ATOM      5  C   UNL     1       2.192   5.392  20.129  0.00  0.00    +0.000 C 
ATOM      6  O   UNL     1       3.378   6.181  19.935  0.00  0.00    +0.000 OA
ATOM      7  C   UNL     1       3.958   5.901  18.724  0.00  0.00    +0.000 A 
ATOM      8  C   UNL     1       4.634   4.678  18.581  0.00  0.00    +0.000 A 
ATOM      9  C   UNL     1       5.244   4.374  17.353  0.00  0.00    +0.000 A 
ATOM     10  C   UNL     1       5.186   5.251  16.256  0.00  0.00    +0.000 A 
ATOM     11  C   UNL     1       4.519   6.478  16.449  0.00  0.00    +0.000 A 
ATOM     12  C   UNL     1       3.915   6.826  17.669  0.00  0.00    +0.000 A 
ATOM     13  C   UNL     1       4.686   3.675  19.716  0.00  0.00    +0.000 C 
ENDROOT
BRANCH  10  14
ATOM     14  C   UNL     1       5.777   4.884  14.943  0.00  0.00    +0.000 A 
ATOM     15  C   UNL     1       5.188   3.913  14.109  0.00  0.00    +0.000 A 
ATOM     16  C   UNL     1       5.771   3.538  12.893  0.00  0.00    +0.000 A 
ATOM     17  C   UNL     1       6.952   4.138  12.471  0.00  0.00    +0.000 A 
ATOM     18  C   UNL     1       7.542   5.114  13.265  0.00  0.00    +0.000 A 
ATOM     19 CL   UNL     1       9.000   5.869  12.746  0.00  0.00    +0.000 Cl
ATOM     20  C   UNL     1       6.968   5.481  14.485  0.00  0.00    +0.000 A 
ENDBRANCH  10  14
BRANCH   1  22
ATOM     21  C   UNL     1       0.568   2.673  18.428  0.00  0.00    +0.000 C 
ATOM     22  C   UNL     1       1.355   1.851  19.435  0.00  0.00    +0.000 C 
ENDBRANCH   1  22
BRANCH  12  23
ATOM     23  O   UNL     1       3.324   8.066  17.646  0.00  0.00    +0.000 OA
BRANCH  23  24
ATOM     24  C   UNL     1       2.041   8.192  18.255  0.00  0.00    +0.000 C 
BRANCH  24  25
ATOM     25  C   UNL     1       1.925   9.471  19.097  0.00  0.00    +0.000 C 
ATOM     26  C   UNL     1       1.274   9.258  20.467  0.00  0.00    +0.000 C 
ATOM     27  C   UNL     1      -0.225   9.000  20.351  0.00  0.00    +0.000 C 
ATOM     28  C   UNL     1      -0.890  10.065  19.487  0.00  0.00    +0.000 C 
ATOM     29  C   UNL     1      -0.158  10.245  18.165  0.00  0.00    +0.000 C 
ATOM     30  O   UNL     1       1.232  10.503  18.372  0.00  0.00    +0.000 OA
ENDBRANCH  24  25
ENDBRANCH  23  24
ENDBRANCH  12  23
TORSDOF 5
ENDMDL
MODEL 4
REMARK VINA RESULT:      -7.5      2.968      7.058
REMARK  Name = 
REMARK  6 active torsions:
REMARK  status: ('A' for Active; 'I' for Inactive)
REMARK    1  A    between atoms: C_1  and  C_2
REMARK    2  A    between atoms: C_2  and  C_3
REMARK    3  A    between atoms: C_12  and  C_13
REMARK    4  A    between atoms: C_21  and  O_22
REMARK    5  A    between atoms: O_22  and  C_23
REMARK    6  A    between atoms: C_23  and  C_24
REMARK                            x       y       z     vdW  Elec       q    Type
REMARK                         _______ _______ _______ _____ _____    ______ ____
ROOT
ATOM      1  C   UNL     1       1.264   2.977  19.882  0.00  0.00    +0.000 C 
ATOM      2  O   UNL     1       0.341   3.716  20.231  0.00  0.00    +0.000 OA
ATOM      3  N   UNL     1       1.665   2.882  18.554  0.00  0.00    +0.000 N 
ATOM      4  C   UNL     1       2.767   2.046  18.068  0.00  0.00    +0.000 C 
ATOM      5  C   UNL     1       4.047   2.850  17.863  0.00  0.00    +0.000 C 
ATOM      6  O   UNL     1       3.887   3.760  16.762  0.00  0.00    +0.000 OA
ATOM      7  C   UNL     1       3.454   4.986  17.201  0.00  0.00    +0.000 A 
ATOM      8  C   UNL     1       2.118   5.106  17.619  0.00  0.00    +0.000 A 
ATOM      9  C   UNL     1       1.650   6.353  18.063  0.00  0.00    +0.000 A 
ATOM     10  C   UNL     1       2.484   7.485  18.117  0.00  0.00    +0.000 A 
ATOM     11  C   UNL     1       3.810   7.327  17.667  0.00  0.00    +0.000 A 
ATOM     12  C   UNL     1       4.307   6.100  17.196  0.00  0.00    +0.000 A 
ATOM     13  C   UNL     1       1.191   3.908  17.626  0.00  0.00    +0.000 C 
ENDROOT
BRANCH  10  14
ATOM     14  C   UNL     1       1.992   8.779  18.655  0.00  0.00    +0.000 A 
ATOM     15  C   UNL     1       1.165   8.844  19.793  0.00  0.00    +0.000 A 
ATOM     16  C   UNL     1       0.668  10.062  20.272  0.00  0.00    +0.000 A 
ATOM     17  C   UNL     1       0.999  11.251  19.632  0.00  0.00    +0.000 A 
ATOM     18  C   UNL     1       1.831  11.216  18.518  0.00  0.00    +0.000 A 
ATOM     19 CL   UNL     1       2.255  12.685  17.726  0.00  0.00    +0.000 Cl
ATOM     20  C   UNL     1       2.318  10.000  18.032  0.00  0.00    +0.000 A 
ENDBRANCH  10  14
BRANCH   1  22
ATOM     21  C   UNL     1       2.220   2.881  22.219  0.00  0.00    +0.000 C 
ATOM     22  C   UNL     1       2.040   2.153  20.897  0.00  0.00    +0.000 C 
ENDBRANCH   1  22
BRANCH  12  23
ATOM     23  O   UNL     1       5.622   6.165  16.801  0.00  0.00    +0.000 OA
BRANCH  23  24
ATOM     24  C   UNL     1       5.900   5.977  15.415  0.00  0.00    +0.000 C 
BRANCH  24  25
ATOM     25  C   UNL     1       6.915   4.849  15.178  0.00  0.00    +0.000 C 
ATOM     26  C   UNL     1       7.987   5.185  14.137  0.00  0.00    +0.000 C 
ATOM     27  C   UNL     1       7.421   5.197  12.721  0.00  0.00    +0.000 C 
ATOM     28  C   UNL     1       6.638   3.919  12.442  0.00  0.00    +0.000 C 
ATOM     29  C   UNL     1       5.626   3.636  13.543  0.00  0.00    +0.000 C 
ATOM     30  O   UNL     1       6.249   3.622  14.829  0.00  0.00    +0.000 OA
ENDBRANCH  24  25
ENDBRANCH  23  24
ENDBRANCH  12  23
TORSDOF 5
ENDMDL
MODEL 5
REMARK VINA RESULT:      -7.5      3.213      7.015
REMARK  Name = 
REMARK  6 active torsions:
REMARK  status: ('A' for Active; 'I' for Inactive)
REMARK    1  A    between atoms: C_1  and  C_2
REMARK    2  A    between atoms: C_2  and  C_3
REMARK    3  A    between atoms: C_12  and  C_13
REMARK    4  A    between atoms: C_21  and  O_22
REMARK    5  A    between atoms: O_22  and  C_23
REMARK    6  A    between atoms: C_23  and  C_24
REMARK                            x       y       z     vdW  Elec       q    Type
REMARK                         _______ _______ _______ _____ _____    ______ ____
ROOT
ATOM      1  C   UNL     1       5.543   5.786  15.166  0.00  0.00    +0.000 C 
ATOM      2  O   UNL     1       5.149   6.902  14.821  0.00  0.00    +0.000 OA
ATOM      3  N   UNL     1       6.205   5.582  16.371  0.00  0.00    +0.000 N 
ATOM      4  C   UNL     1       6.680   4.284  16.859  0.00  0.00    +0.000 C 
ATOM      5  C   UNL     1       5.720   3.667  17.870  0.00  0.00    +0.000 C 
ATOM      6  O   UNL     1       5.723   4.435  19.086  0.00  0.00    +0.000 OA
ATOM      7  C   UNL     1       4.734   5.386  19.065  0.00  0.00    +0.000 A 
ATOM      8  C   UNL     1       4.914   6.511  18.242  0.00  0.00    +0.000 A 
ATOM      9  C   UNL     1       3.920   7.501  18.211  0.00  0.00    +0.000 A 
ATOM     10  C   UNL     1       2.741   7.396  18.970  0.00  0.00    +0.000 A 
ATOM     11  C   UNL     1       2.611   6.264  19.800  0.00  0.00    +0.000 A 
ATOM     12  C   UNL     1       3.593   5.263  19.873  0.00  0.00    +0.000 A 
ATOM     13  C   UNL     1       6.145   6.651  17.368  0.00  0.00    +0.000 C 
ENDROOT
BRANCH  10  14
ATOM     14  C   UNL     1       1.668   8.419  18.873  0.00  0.00    +0.000 A 
ATOM     15  C   UNL     1       1.185   8.874  17.631  0.00  0.00    +0.000 A 
ATOM     16  C   UNL     1       0.205   9.870  17.543  0.00  0.00    +0.000 A 
ATOM     17  C   UNL     1      -0.330  10.426  18.699  0.00  0.00    +0.000 A 
ATOM     18  C   UNL     1       0.114   9.979  19.939  0.00  0.00    +0.000 A 
ATOM     19 CL   UNL     1      -0.551  10.655  21.376  0.00  0.00    +0.000 Cl
ATOM     20  C   UNL     1       1.101   8.994  20.028  0.00  0.00    +0.000 A 
ENDBRANCH  10  14
BRANCH   1  22
ATOM     21  C   UNL     1       6.478   4.228  13.409  0.00  0.00    +0.000 C 
ATOM     22  C   UNL     1       5.293   4.560  14.301  0.00  0.00    +0.000 C 
ENDBRANCH   1  22
BRANCH  12  23
ATOM     23  O   UNL     1       3.272   4.251  20.746  0.00  0.00    +0.000 OA
BRANCH  23  24
ATOM     24  C   UNL     1       1.902   4.117  21.117  0.00  0.00    +0.000 C 
BRANCH  24  25
ATOM     25  C   UNL     1       1.316   2.766  20.681  0.00  0.00    +0.000 C 
ATOM     26  C   UNL     1       2.371   1.701  20.369  0.00  0.00    +0.000 C 
ATOM     27  C   UNL     1       3.104   1.992  19.063  0.00  0.00    +0.000 C 
ATOM     28  C   UNL     1       2.113   2.259  17.936  0.00  0.00    +0.000 C 
ATOM     29  C   UNL     1       1.075   3.295  18.342  0.00  0.00    +0.000 C 
ATOM     30  O   UNL     1       0.426   2.928  19.561  0.00  0.00    +0.000 OA
ENDBRANCH  24  25
ENDBRANCH  23  24
ENDBRANCH  12  23
TORSDOF 5
ENDMDL
MODEL 6
REMARK VINA RESULT:      -7.5      0.769      1.131
REMARK  Name = 
REMARK  6 active torsions:
REMARK  status: ('A' for Active; 'I' for Inactive)
REMARK    1  A    between atoms: C_1  and  C_2
REMARK    2  A    between atoms: C_2  and  C_3
REMARK    3  A    between atoms: C_12  and  C_13
REMARK    4  A    between atoms: C_21  and  O_22
REMARK    5  A    between atoms: O_22  and  C_23
REMARK    6  A    between atoms: C_23  and  C_24
REMARK                            x       y       z     vdW  Elec       q    Type
REMARK                         _______ _______ _______ _____ _____    ______ ____
ROOT
ATOM      1  C   UNL     1       3.071   2.080  19.255  0.00  0.00    +0.000 C 
ATOM      2  O   UNL     1       3.836   1.368  18.601  0.00  0.00    +0.000 OA
ATOM      3  N   UNL     1       3.517   3.217  19.920  0.00  0.00    +0.000 N 
ATOM      4  C   UNL     1       2.666   4.124  20.697  0.00  0.00    +0.000 C 
ATOM      5  C   UNL     1       2.277   5.365  19.900  0.00  0.00    +0.000 C 
ATOM      6  O   UNL     1       3.433   6.193  19.682  0.00  0.00    +0.000 OA
ATOM      7  C   UNL     1       4.033   5.888  18.486  0.00  0.00    +0.000 A 
ATOM      8  C   UNL     1       4.757   4.688  18.396  0.00  0.00    +0.000 A 
ATOM      9  C   UNL     1       5.387   4.360  17.184  0.00  0.00    +0.000 A 
ATOM     10  C   UNL     1       5.303   5.191  16.053  0.00  0.00    +0.000 A 
ATOM     11  C   UNL     1       4.587   6.397  16.194  0.00  0.00    +0.000 A 
ATOM     12  C   UNL     1       3.961   6.768  17.395  0.00  0.00    +0.000 A 
ATOM     13  C   UNL     1       4.840   3.734  19.570  0.00  0.00    +0.000 C 
ENDROOT
BRANCH  10  14
ATOM     14  C   UNL     1       5.918   4.796  14.759  0.00  0.00    +0.000 A 
ATOM     15  C   UNL     1       7.184   5.268  14.363  0.00  0.00    +0.000 A 
ATOM     16  C   UNL     1       7.741   4.929  13.124  0.00  0.00    +0.000 A 
ATOM     17  C   UNL     1       7.049   4.093  12.254  0.00  0.00    +0.000 A 
ATOM     18  C   UNL     1       5.806   3.596  12.630  0.00  0.00    +0.000 A 
ATOM     19 CL   UNL     1       4.948   2.552  11.564  0.00  0.00    +0.000 Cl
ATOM     20  C   UNL     1       5.244   3.944  13.861  0.00  0.00    +0.000 A 
ENDBRANCH  10  14
BRANCH   1  22
ATOM     21  C   UNL     1       0.767   2.561  18.336  0.00  0.00    +0.000 C 
ATOM     22  C   UNL     1       1.585   1.769  19.342  0.00  0.00    +0.000 C 
ENDBRANCH   1  22
BRANCH  12  23
ATOM     23  O   UNL     1       3.322   7.983  17.320  0.00  0.00    +0.000 OA
BRANCH  23  24
ATOM     24  C   UNL     1       2.888   8.572  18.544  0.00  0.00    +0.000 C 
BRANCH  24  25
ATOM     25  C   UNL     1       1.365   8.766  18.582  0.00  0.00    +0.000 C 
ATOM     26  C   UNL     1       0.892  10.093  17.982  0.00  0.00    +0.000 C 
ATOM     27  C   UNL     1       1.232  11.278  18.881  0.00  0.00    +0.000 C 
ATOM     28  C   UNL     1       0.767  11.021  20.309  0.00  0.00    +0.000 C 
ATOM     29  C   UNL     1       1.243   9.667  20.814  0.00  0.00    +0.000 C 
ATOM     30  O   UNL     1       0.860   8.618  19.922  0.00  0.00    +0.000 OA
ENDBRANCH  24  25
ENDBRANCH  23  24
ENDBRANCH  12  23
TORSDOF 5
ENDMDL
MODEL 7
REMARK VINA RESULT:      -7.4      3.131      6.734
REMARK  Name = 
REMARK  6 active torsions:
REMARK  status: ('A' for Active; 'I' for Inactive)
REMARK    1  A    between atoms: C_1  and  C_2
REMARK    2  A    between atoms: C_2  and  C_3
REMARK    3  A    between atoms: C_12  and  C_13
REMARK    4  A    between atoms: C_21  and  O_22
REMARK    5  A    between atoms: O_22  and  C_23
REMARK    6  A    between atoms: C_23  and  C_24
REMARK                            x       y       z     vdW  Elec       q    Type
REMARK                         _______ _______ _______ _____ _____    ______ ____
ROOT
ATOM      1  C   UNL     1       1.028   2.802  19.928  0.00  0.00    +0.000 C 
ATOM      2  O   UNL     1       0.046   3.548  19.939  0.00  0.00    +0.000 OA
ATOM      3  N   UNL     1       1.803   2.627  18.787  0.00  0.00    +0.000 N 
ATOM      4  C   UNL     1       2.995   1.779  18.703  0.00  0.00    +0.000 C 
ATOM      5  C   UNL     1       4.282   2.587  18.833  0.00  0.00    +0.000 C 
ATOM      6  O   UNL     1       4.458   3.422  17.675  0.00  0.00    +0.000 OA
ATOM      7  C   UNL     1       3.921   4.667  17.885  0.00  0.00    +0.000 A 
ATOM      8  C   UNL     1       2.521   4.793  17.881  0.00  0.00    +0.000 A 
ATOM      9  C   UNL     1       1.949   6.059  18.084  0.00  0.00    +0.000 A 
ATOM     10  C   UNL     1       2.734   7.204  18.306  0.00  0.00    +0.000 A 
ATOM     11  C   UNL     1       4.134   7.038  18.278  0.00  0.00    +0.000 A 
ATOM     12  C   UNL     1       4.742   5.791  18.057  0.00  0.00    +0.000 A 
ATOM     13  C   UNL     1       1.628   3.583  17.694  0.00  0.00    +0.000 C 
ENDROOT
BRANCH  10  14
ATOM     14  C   UNL     1       2.112   8.523  18.588  0.00  0.00    +0.000 A 
ATOM     15  C   UNL     1       2.283   9.625  17.728  0.00  0.00    +0.000 A 
ATOM     16  C   UNL     1       1.731  10.878  18.019  0.00  0.00    +0.000 A 
ATOM     17  C   UNL     1       0.978  11.057  19.175  0.00  0.00    +0.000 A 
ATOM     18  C   UNL     1       0.777   9.980  20.030  0.00  0.00    +0.000 A 
ATOM     19 CL   UNL     1      -0.163  10.190  21.458  0.00  0.00    +0.000 Cl
ATOM     20  C   UNL     1       1.337   8.732  19.747  0.00  0.00    +0.000 A 
ENDBRANCH  10  14
BRANCH   1  22
ATOM     21  C   UNL     1       2.229   2.947  22.147  0.00  0.00    +0.000 C 
ATOM     22  C   UNL     1       1.466   2.057  21.179  0.00  0.00    +0.000 C 
ENDBRANCH   1  22
BRANCH  12  23
ATOM     23  O   UNL     1       6.116   5.850  18.064  0.00  0.00    +0.000 OA
BRANCH  23  24
ATOM     24  C   UNL     1       6.804   5.223  16.984  0.00  0.00    +0.000 C 
BRANCH  24  25
ATOM     25  C   UNL     1       6.651   6.004  15.671  0.00  0.00    +0.000 C 
ATOM     26  C   UNL     1       5.283   5.837  15.003  0.00  0.00    +0.000 C 
ATOM     27  C   UNL     1       5.115   4.451  14.390  0.00  0.00    +0.000 C 
ATOM     28  C   UNL     1       6.305   4.106  13.503  0.00  0.00    +0.000 C 
ATOM     29  C   UNL     1       7.623   4.340  14.226  0.00  0.00    +0.000 C 
ATOM     30  O   UNL     1       7.700   5.668  14.746  0.00  0.00    +0.000 OA
ENDBRANCH  24  25
ENDBRANCH  23  24
ENDBRANCH  12  23
TORSDOF 5
ENDMDL
MODEL 8
REMARK VINA RESULT:      -7.4      2.876      6.552
REMARK  Name = 
REMARK  6 active torsions:
REMARK  status: ('A' for Active; 'I' for Inactive)
REMARK    1  A    between atoms: C_1  and  C_2
REMARK    2  A    between atoms: C_2  and  C_3
REMARK    3  A    between atoms: C_12  and  C_13
REMARK    4  A    between atoms: C_21  and  O_22
REMARK    5  A    between atoms: O_22  and  C_23
REMARK    6  A    between atoms: C_23  and  C_24
REMARK                            x       y       z     vdW  Elec       q    Type
REMARK                         _______ _______ _______ _____ _____    ______ ____
ROOT
ATOM      1  C   UNL     1       2.102  11.992  18.814  0.00  0.00    +0.000 C 
ATOM      2  O   UNL     1       2.769  11.990  17.777  0.00  0.00    +0.000 OA
ATOM      3  N   UNL     1       0.981  11.183  18.967  0.00  0.00    +0.000 N 
ATOM      4  C   UNL     1       0.154  11.113  20.175  0.00  0.00    +0.000 C 
ATOM      5  C   UNL     1       0.509   9.909  21.042  0.00  0.00    +0.000 C 
ATOM      6  O   UNL     1       0.126   8.693  20.376  0.00  0.00    +0.000 OA
ATOM      7  C   UNL     1       1.170   8.189  19.643  0.00  0.00    +0.000 A 
ATOM      8  C   UNL     1       1.518   8.844  18.450  0.00  0.00    +0.000 A 
ATOM      9  C   UNL     1       2.578   8.340  17.678  0.00  0.00    +0.000 A 
ATOM     10  C   UNL     1       3.311   7.206  18.070  0.00  0.00    +0.000 A 
ATOM     11  C   UNL     1       2.913   6.565  19.261  0.00  0.00    +0.000 A 
ATOM     12  C   UNL     1       1.846   7.028  20.048  0.00  0.00    +0.000 A 
ATOM     13  C   UNL     1       0.792  10.097  18.005  0.00  0.00    +0.000 C 
ENDROOT
BRANCH  10  14
ATOM     14  C   UNL     1       4.473   6.727  17.277  0.00  0.00    +0.000 A 
ATOM     15  C   UNL     1       4.579   6.971  15.894  0.00  0.00    +0.000 A 
ATOM     16  C   UNL     1       5.653   6.481  15.142  0.00  0.00    +0.000 A 
ATOM     17  C   UNL     1       6.660   5.746  15.759  0.00  0.00    +0.000 A 
ATOM     18  C   UNL     1       6.589   5.509  17.127  0.00  0.00    +0.000 A 
ATOM     19 CL   UNL     1       7.835   4.609  17.902  0.00  0.00    +0.000 Cl
ATOM     20  C   UNL     1       5.511   5.988  17.877  0.00  0.00    +0.000 A 
ENDBRANCH  10  14
BRANCH   1  22
ATOM     21  C   UNL     1       2.914  14.258  19.582  0.00  0.00    +0.000 C 
ATOM     22  C   UNL     1       2.493  12.859  20.001  0.00  0.00    +0.000 C 
ENDBRANCH   1  22
BRANCH  12  23
ATOM     23  O   UNL     1       1.622   6.256  21.163  0.00  0.00    +0.000 OA
BRANCH  23  24
ATOM     24  C   UNL     1       2.340   5.028  21.266  0.00  0.00    +0.000 C 
BRANCH  24  25
ATOM     25  C   UNL     1       1.407   3.809  21.226  0.00  0.00    +0.000 C 
ATOM     26  C   UNL     1       2.134   2.466  21.336  0.00  0.00    +0.000 C 
ATOM     27  C   UNL     1       2.900   2.128  20.061  0.00  0.00    +0.000 C 
ATOM     28  C   UNL     1       2.002   2.270  18.838  0.00  0.00    +0.000 C 
ATOM     29  C   UNL     1       1.286   3.613  18.827  0.00  0.00    +0.000 C 
ATOM     30  O   UNL     1       0.579   3.832  20.050  0.00  0.00    +0.000 OA
ENDBRANCH  24  25
ENDBRANCH  23  24
ENDBRANCH  12  23
TORSDOF 5
ENDMDL
MODEL 9
REMARK VINA RESULT:      -7.3      2.577      6.356
REMARK  Name = 
REMARK  6 active torsions:
REMARK  status: ('A' for Active; 'I' for Inactive)
REMARK    1  A    between atoms: C_1  and  C_2
REMARK    2  A    between atoms: C_2  and  C_3
REMARK    3  A    between atoms: C_12  and  C_13
REMARK    4  A    between atoms: C_21  and  O_22
REMARK    5  A    between atoms: O_22  and  C_23
REMARK    6  A    between atoms: C_23  and  C_24
REMARK                            x       y       z     vdW  Elec       q    Type
REMARK                         _______ _______ _______ _____ _____    ______ ____
ROOT
ATOM      1  C   UNL     1       2.193  11.968  18.633  0.00  0.00    +0.000 C 
ATOM      2  O   UNL     1       2.890  11.958  17.616  0.00  0.00    +0.000 OA
ATOM      3  N   UNL     1       1.094  11.128  18.777  0.00  0.00    +0.000 N 
ATOM      4  C   UNL     1       0.234  11.066  19.962  0.00  0.00    +0.000 C 
ATOM      5  C   UNL     1       0.601   9.900  20.875  0.00  0.00    +0.000 C 
ATOM      6  O   UNL     1       0.277   8.653  20.235  0.00  0.00    +0.000 OA
ATOM      7  C   UNL     1       1.359   8.162  19.548  0.00  0.00    +0.000 A 
ATOM      8  C   UNL     1       1.721   8.793  18.346  0.00  0.00    +0.000 A 
ATOM      9  C   UNL     1       2.819   8.303  17.621  0.00  0.00    +0.000 A 
ATOM     10  C   UNL     1       3.576   7.205  18.068  0.00  0.00    +0.000 A 
ATOM     11  C   UNL     1       3.164   6.587  19.266  0.00  0.00    +0.000 A 
ATOM     12  C   UNL     1       2.059   7.037  20.008  0.00  0.00    +0.000 A 
ATOM     13  C   UNL     1       0.969  10.009  17.843  0.00  0.00    +0.000 C 
ENDROOT
BRANCH  10  14
ATOM     14  C   UNL     1       4.776   6.742  17.325  0.00  0.00    +0.000 A 
ATOM     15  C   UNL     1       6.067   7.214  17.631  0.00  0.00    +0.000 A 
ATOM     16  C   UNL     1       7.191   6.810  16.899  0.00  0.00    +0.000 A 
ATOM     17  C   UNL     1       7.052   5.907  15.850  0.00  0.00    +0.000 A 
ATOM     18  C   UNL     1       5.791   5.410  15.542  0.00  0.00    +0.000 A 
ATOM     19 CL   UNL     1       5.611   4.284  14.251  0.00  0.00    +0.000 Cl
ATOM     20  C   UNL     1       4.667   5.823  16.263  0.00  0.00    +0.000 A 
ENDBRANCH  10  14
BRANCH   1  22
ATOM     21  C   UNL     1       2.956  14.267  19.353  0.00  0.00    +0.000 C 
ATOM     22  C   UNL     1       2.519  12.882  19.803  0.00  0.00    +0.000 C 
ENDBRANCH   1  22
BRANCH  12  23
ATOM     23  O   UNL     1       1.826   6.291  21.138  0.00  0.00    +0.000 OA
BRANCH  23  24
ATOM     24  C   UNL     1       2.292   4.943  21.142  0.00  0.00    +0.000 C 
BRANCH  24  25
ATOM     25  C   UNL     1       1.165   3.943  20.843  0.00  0.00    +0.000 C 
ATOM     26  C   UNL     1       1.525   2.488  21.158  0.00  0.00    +0.000 C 
ATOM     27  C   UNL     1       2.522   1.918  20.154  0.00  0.00    +0.000 C 
ATOM     28  C   UNL     1       2.049   2.164  18.726  0.00  0.00    +0.000 C 
ATOM     29  C   UNL     1       1.672   3.622  18.509  0.00  0.00    +0.000 C 
ATOM     30  O   UNL     1       0.720   4.061  19.480  0.00  0.00    +0.000 OA
ENDBRANCH  24  25
ENDBRANCH  23  24
ENDBRANCH  12  23
TORSDOF 5
ENDMDL
