MODEL 1
REMARK VINA RESULT:      -8.6      0.000      0.000
REMARK  Name = 
REMARK  7 active torsions:
REMARK  status: ('A' for Active; 'I' for Inactive)
REMARK    1  A    between atoms: C_1  and  N_2
REMARK    2  A    between atoms: N_2  and  C_3
REMARK    3  A    between atoms: C_12  and  N_13
REMARK    4  A    between atoms: N_13  and  C_14
REMARK    5  A    between atoms: C_14  and  C_15
REMARK    6  A    between atoms: C_15  and  C_16
REMARK    7  A    between atoms: C_16  and  O_18
REMARK                            x       y       z     vdW  Elec       q    Type
REMARK                         _______ _______ _______ _____ _____    ______ ____
ROOT
ATOM      1  C   UNL     1       0.409  13.255  18.550  0.00  0.00    +0.000 C 
ATOM      2  N   UNL     1      -0.108  12.355  19.624  0.00  0.00    +0.000 N 
ATOM      3  C   UNL     1      -1.015  13.053  20.605  0.00  0.00    +0.000 C 
ATOM      4  C   UNL     1       0.202  11.094  19.778  0.00  0.00    +0.000 A 
ATOM      5  C   UNL     1      -0.386  10.286  20.896  0.00  0.00    +0.000 A 
ATOM      6  C   UNL     1      -0.007   9.038  21.160  0.00  0.00    +0.000 A 
ATOM      7  C   UNL     1       1.008   8.337  20.359  0.00  0.00    +0.000 A 
ATOM      8  N   UNL     1       1.340   7.134  20.694  0.00  0.00    +0.000 NA
ATOM      9  C   UNL     1       2.301   6.480  19.887  0.00  0.00    +0.000 A 
ATOM     10  C   UNL     1       2.878   7.132  18.792  0.00  0.00    +0.000 A 
ATOM     11  C   UNL     1       3.839   6.485  18.011  0.00  0.00    +0.000 A 
ATOM     12  C   UNL     1       4.248   5.162  18.283  0.00  0.00    +0.000 A 
ATOM     13  C   UNL     1       3.633   4.468  19.374  0.00  0.00    +0.000 A 
ATOM     14  C   UNL     1       3.933   3.122  19.713  0.00  0.00    +0.000 A 
ATOM     15  C   UNL     1       3.324   2.460  20.780  0.00  0.00    +0.000 A 
ATOM     16  C   UNL     1       2.388   3.123  21.553  0.00  0.00    +0.000 A 
ATOM     17  C   UNL     1       2.070   4.447  21.254  0.00  0.00    +0.000 A 
ATOM     18  C   UNL     1       2.669   5.141  20.178  0.00  0.00    +0.000 A 
ATOM     19  O   UNL     1       2.513   8.412  18.412  0.00  0.00    +0.000 OA
ATOM     20  C   UNL     1       1.564   9.068  19.193  0.00  0.00    +0.000 A 
ATOM     21  C   UNL     1       1.158  10.320  18.909  0.00  0.00    +0.000 A 
ENDROOT
BRANCH  12  22
ATOM     22  N   UNL     1       5.151   4.499  17.432  0.00  0.00    +0.000 N 
ATOM     23  H   UNL     1       6.113   4.805  17.514  0.00  0.00    +0.000 HD
BRANCH  22  24
ATOM     24  C   UNL     1       4.804   4.128  16.058  0.00  0.00    +0.000 C 
BRANCH  24  25
ATOM     25  C   UNL     1       6.042   3.944  15.204  0.00  0.00    +0.000 C 
BRANCH  25  26
ATOM     26  C   UNL     1       7.182   4.735  15.778  0.00  0.00    +0.000 C 
ATOM     27  O   UNL     1       7.482   5.861  15.408  0.00  0.00    +0.000 OA
BRANCH  26  28
ATOM     28  O   UNL     1       7.865   4.084  16.745  0.00  0.00    +0.000 OA
ATOM     29  H   UNL     1       7.935   3.115  16.634  0.00  0.00    +0.000 HD
ENDBRANCH  26  28
ENDBRANCH  25  26
ENDBRANCH  24  25
ENDBRANCH  22  24
ENDBRANCH  12  22
TORSDOF 5
ENDMDL
MODEL 2
REMARK VINA RESULT:      -8.5      0.957      1.153
REMARK  Name = 
REMARK  7 active torsions:
REMARK  status: ('A' for Active; 'I' for Inactive)
REMARK    1  A    between atoms: C_1  and  N_2
REMARK    2  A    between atoms: N_2  and  C_3
REMARK    3  A    between atoms: C_12  and  N_13
REMARK    4  A    between atoms: N_13  and  C_14
REMARK    5  A    between atoms: C_14  and  C_15
REMARK    6  A    between atoms: C_15  and  C_16
REMARK    7  A    between atoms: C_16  and  O_18
REMARK                            x       y       z     vdW  Elec       q    Type
REMARK                         _______ _______ _______ _____ _____    ______ ____
ROOT
ATOM      1  C   UNL     1      -0.019  13.476  19.340  0.00  0.00    +0.000 C 
ATOM      2  N   UNL     1      -0.375  12.484  20.398  0.00  0.00    +0.000 N 
ATOM      3  C   UNL     1      -1.163  13.080  21.536  0.00  0.00    +0.000 C 
ATOM      4  C   UNL     1      -0.022  11.225  20.414  0.00  0.00    +0.000 A 
ATOM      5  C   UNL     1      -0.445  10.319  21.531  0.00  0.00    +0.000 A 
ATOM      6  C   UNL     1      -0.010   9.067  21.649  0.00  0.00    +0.000 A 
ATOM      7  C   UNL     1       0.908   8.458  20.675  0.00  0.00    +0.000 A 
ATOM      8  N   UNL     1       1.305   7.244  20.872  0.00  0.00    +0.000 NA
ATOM      9  C   UNL     1       2.167   6.681  19.902  0.00  0.00    +0.000 A 
ATOM     10  C   UNL     1       2.586   7.428  18.796  0.00  0.00    +0.000 A 
ATOM     11  C   UNL     1       3.452   6.870  17.853  0.00  0.00    +0.000 A 
ATOM     12  C   UNL     1       3.919   5.544  17.968  0.00  0.00    +0.000 A 
ATOM     13  C   UNL     1       3.463   4.753  19.071  0.00  0.00    +0.000 A 
ATOM     14  C   UNL     1       3.832   3.395  19.265  0.00  0.00    +0.000 A 
ATOM     15  C   UNL     1       3.378   2.638  20.347  0.00  0.00    +0.000 A 
ATOM     16  C   UNL     1       2.535   3.214  21.280  0.00  0.00    +0.000 A 
ATOM     17  C   UNL     1       2.155   4.546  21.126  0.00  0.00    +0.000 A 
ATOM     18  C   UNL     1       2.597   5.336  20.040  0.00  0.00    +0.000 A 
ATOM     19  O   UNL     1       2.149   8.722  18.565  0.00  0.00    +0.000 OA
ATOM     20  C   UNL     1       1.294   9.289  19.507  0.00  0.00    +0.000 A 
ATOM     21  C   UNL     1       0.830  10.546  19.374  0.00  0.00    +0.000 A 
ENDROOT
BRANCH  12  22
ATOM     22  N   UNL     1       4.718   4.973  16.961  0.00  0.00    +0.000 N 
ATOM     23  H   UNL     1       5.065   4.045  17.171  0.00  0.00    +0.000 HD
BRANCH  22  24
ATOM     24  C   UNL     1       5.678   5.759  16.183  0.00  0.00    +0.000 C 
BRANCH  24  25
ATOM     25  C   UNL     1       6.857   6.193  17.031  0.00  0.00    +0.000 C 
BRANCH  25  26
ATOM     26  C   UNL     1       7.475   4.998  17.696  0.00  0.00    +0.000 C 
ATOM     27  O   UNL     1       8.110   4.141  17.100  0.00  0.00    +0.000 OA
BRANCH  26  28
ATOM     28  O   UNL     1       7.256   4.942  19.029  0.00  0.00    +0.000 OA
ATOM     29  H   UNL     1       6.319   4.896  19.302  0.00  0.00    +0.000 HD
ENDBRANCH  26  28
ENDBRANCH  25  26
ENDBRANCH  24  25
ENDBRANCH  22  24
ENDBRANCH  12  22
TORSDOF 5
ENDMDL
MODEL 3
REMARK VINA RESULT:      -8.3      2.356      4.093
REMARK  Name = 
REMARK  7 active torsions:
REMARK  status: ('A' for Active; 'I' for Inactive)
REMARK    1  A    between atoms: C_1  and  N_2
REMARK    2  A    between atoms: N_2  and  C_3
REMARK    3  A    between atoms: C_12  and  N_13
REMARK    4  A    between atoms: N_13  and  C_14
REMARK    5  A    between atoms: C_14  and  C_15
REMARK    6  A    between atoms: C_15  and  C_16
REMARK    7  A    between atoms: C_16  and  O_18
REMARK                            x       y       z     vdW  Elec       q    Type
REMARK                         _______ _______ _______ _____ _____    ______ ____
ROOT
ATOM      1  C   UNL     1      -0.957  10.407  22.337  0.00  0.00    +0.000 C 
ATOM      2  N   UNL     1      -0.470  10.786  20.977  0.00  0.00    +0.000 N 
ATOM      3  C   UNL     1      -1.147  12.012  20.419  0.00  0.00    +0.000 C 
ATOM      4  C   UNL     1       0.414  10.129  20.272  0.00  0.00    +0.000 A 
ATOM      5  C   UNL     1       0.831  10.610  18.915  0.00  0.00    +0.000 A 
ATOM      6  C   UNL     1       1.634   9.911  18.116  0.00  0.00    +0.000 A 
ATOM      7  C   UNL     1       2.200   8.613  18.511  0.00  0.00    +0.000 A 
ATOM      8  N   UNL     1       2.952   7.983  17.670  0.00  0.00    +0.000 NA
ATOM      9  C   UNL     1       3.500   6.748  18.092  0.00  0.00    +0.000 A 
ATOM     10  C   UNL     1       3.209   6.232  19.359  0.00  0.00    +0.000 A 
ATOM     11  C   UNL     1       3.740   5.004  19.761  0.00  0.00    +0.000 A 
ATOM     12  C   UNL     1       4.592   4.255  18.922  0.00  0.00    +0.000 A 
ATOM     13  C   UNL     1       4.934   4.792  17.641  0.00  0.00    +0.000 A 
ATOM     14  C   UNL     1       5.816   4.148  16.732  0.00  0.00    +0.000 A 
ATOM     15  C   UNL     1       6.139   4.687  15.485  0.00  0.00    +0.000 A 
ATOM     16  C   UNL     1       5.588   5.895  15.098  0.00  0.00    +0.000 A 
ATOM     17  C   UNL     1       4.715   6.555  15.961  0.00  0.00    +0.000 A 
ATOM     18  C   UNL     1       4.372   6.035  17.230  0.00  0.00    +0.000 A 
ATOM     19  O   UNL     1       2.422   6.910  20.275  0.00  0.00    +0.000 OA
ATOM     20  C   UNL     1       1.880   8.129  19.878  0.00  0.00    +0.000 A 
ATOM     21  C   UNL     1       1.091   8.852  20.695  0.00  0.00    +0.000 A 
ENDROOT
BRANCH  12  22
ATOM     22  N   UNL     1       5.187   3.065  19.381  0.00  0.00    +0.000 N 
ATOM     23  H   UNL     1       6.073   2.839  18.945  0.00  0.00    +0.000 HD
BRANCH  22  24
ATOM     24  C   UNL     1       4.403   1.868  19.694  0.00  0.00    +0.000 C 
BRANCH  24  25
ATOM     25  C   UNL     1       3.668   1.351  18.473  0.00  0.00    +0.000 C 
BRANCH  25  26
ATOM     26  C   UNL     1       2.294   1.951  18.412  0.00  0.00    +0.000 C 
ATOM     27  O   UNL     1       1.483   1.886  19.325  0.00  0.00    +0.000 OA
BRANCH  26  28
ATOM     28  O   UNL     1       2.020   2.569  17.242  0.00  0.00    +0.000 OA
ATOM     29  H   UNL     1       2.756   3.078  16.850  0.00  0.00    +0.000 HD
ENDBRANCH  26  28
ENDBRANCH  25  26
ENDBRANCH  24  25
ENDBRANCH  22  24
ENDBRANCH  12  22
TORSDOF 5
ENDMDL
MODEL 4
REMARK VINA RESULT:      -8.3      1.166      1.338
REMARK  Name = 
REMARK  7 active torsions:
REMARK  status: ('A' for Active; 'I' for Inactive)
REMARK    1  A    between atoms: C_1  and  N_2
REMARK    2  A    between atoms: N_2  and  C_3
REMARK    3  A    between atoms: C_12  and  N_13
REMARK    4  A    between atoms: N_13  and  C_14
REMARK    5  A    between atoms: C_14  and  C_15
REMARK    6  A    between atoms: C_15  and  C_16
REMARK    7  A    between atoms: C_16  and  O_18
REMARK                            x       y       z     vdW  Elec       q    Type
REMARK                         _______ _______ _______ _____ _____    ______ ____
ROOT
ATOM      1  C   UNL     1      -0.089  13.485  20.308  0.00  0.00    +0.000 C 
ATOM      2  N   UNL     1      -0.363  12.417  21.315  0.00  0.00    +0.000 N 
ATOM      3  C   UNL     1      -1.030  12.931  22.565  0.00  0.00    +0.000 C 
ATOM      4  C   UNL     1      -0.032  11.157  21.201  0.00  0.00    +0.000 A 
ATOM      5  C   UNL     1      -0.365  10.171  22.281  0.00  0.00    +0.000 A 
ATOM      6  C   UNL     1       0.056   8.909  22.260  0.00  0.00    +0.000 A 
ATOM      7  C   UNL     1       0.868   8.368  21.160  0.00  0.00    +0.000 A 
ATOM      8  N   UNL     1       1.260   7.139  21.225  0.00  0.00    +0.000 NA
ATOM      9  C   UNL     1       2.018   6.644  20.138  0.00  0.00    +0.000 A 
ATOM     10  C   UNL     1       2.345   7.471  19.058  0.00  0.00    +0.000 A 
ATOM     11  C   UNL     1       3.110   6.979  17.997  0.00  0.00    +0.000 A 
ATOM     12  C   UNL     1       3.562   5.643  17.966  0.00  0.00    +0.000 A 
ATOM     13  C   UNL     1       3.197   4.774  19.043  0.00  0.00    +0.000 A 
ATOM     14  C   UNL     1       3.558   3.400  19.096  0.00  0.00    +0.000 A 
ATOM     15  C   UNL     1       3.193   2.566  20.155  0.00  0.00    +0.000 A 
ATOM     16  C   UNL     1       2.451   3.076  21.204  0.00  0.00    +0.000 A 
ATOM     17  C   UNL     1       2.082   4.420  21.190  0.00  0.00    +0.000 A 
ATOM     18  C   UNL     1       2.435   5.288  20.131  0.00  0.00    +0.000 A 
ATOM     19  O   UNL     1       1.912   8.783  18.969  0.00  0.00    +0.000 OA
ATOM     20  C   UNL     1       1.159   9.284  20.029  0.00  0.00    +0.000 A 
ATOM     21  C   UNL     1       0.707  10.552  20.037  0.00  0.00    +0.000 A 
ENDROOT
BRANCH  12  22
ATOM     22  N   UNL     1       4.254   5.144  16.847  0.00  0.00    +0.000 N 
ATOM     23  H   UNL     1       4.490   4.161  16.899  0.00  0.00    +0.000 HD
BRANCH  22  24
ATOM     24  C   UNL     1       5.279   5.923  16.149  0.00  0.00    +0.000 C 
BRANCH  24  25
ATOM     25  C   UNL     1       6.603   5.186  16.107  0.00  0.00    +0.000 C 
BRANCH  25  26
ATOM     26  C   UNL     1       6.923   4.792  14.694  0.00  0.00    +0.000 C 
ATOM     27  O   UNL     1       6.389   3.860  14.111  0.00  0.00    +0.000 OA
BRANCH  26  28
ATOM     28  O   UNL     1       7.875   5.558  14.116  0.00  0.00    +0.000 OA
ATOM     29  H   UNL     1       7.697   6.519  14.107  0.00  0.00    +0.000 HD
ENDBRANCH  26  28
ENDBRANCH  25  26
ENDBRANCH  24  25
ENDBRANCH  22  24
ENDBRANCH  12  22
TORSDOF 5
ENDMDL
MODEL 5
REMARK VINA RESULT:      -8.2      1.322      1.721
REMARK  Name = 
REMARK  7 active torsions:
REMARK  status: ('A' for Active; 'I' for Inactive)
REMARK    1  A    between atoms: C_1  and  N_2
REMARK    2  A    between atoms: N_2  and  C_3
REMARK    3  A    between atoms: C_12  and  N_13
REMARK    4  A    between atoms: N_13  and  C_14
REMARK    5  A    between atoms: C_14  and  C_15
REMARK    6  A    between atoms: C_15  and  C_16
REMARK    7  A    between atoms: C_16  and  O_18
REMARK                            x       y       z     vdW  Elec       q    Type
REMARK                         _______ _______ _______ _____ _____    ______ ____
ROOT
ATOM      1  C   UNL     1      -0.471  13.908  20.892  0.00  0.00    +0.000 C 
ATOM      2  N   UNL     1      -0.718  12.761  21.817  0.00  0.00    +0.000 N 
ATOM      3  C   UNL     1      -1.395  13.165  23.101  0.00  0.00    +0.000 C 
ATOM      4  C   UNL     1      -0.357  11.522  21.609  0.00  0.00    +0.000 A 
ATOM      5  C   UNL     1      -0.665  10.451  22.612  0.00  0.00    +0.000 A 
ATOM      6  C   UNL     1      -0.214   9.204  22.499  0.00  0.00    +0.000 A 
ATOM      7  C   UNL     1       0.609   8.766  21.361  0.00  0.00    +0.000 A 
ATOM      8  N   UNL     1       1.030   7.545  21.334  0.00  0.00    +0.000 NA
ATOM      9  C   UNL     1       1.798   7.150  20.213  0.00  0.00    +0.000 A 
ATOM     10  C   UNL     1       2.104   8.063  19.198  0.00  0.00    +0.000 A 
ATOM     11  C   UNL     1       2.877   7.670  18.103  0.00  0.00    +0.000 A 
ATOM     12  C   UNL     1       3.361   6.351  17.973  0.00  0.00    +0.000 A 
ATOM     13  C   UNL     1       3.019   5.395  18.983  0.00  0.00    +0.000 A 
ATOM     14  C   UNL     1       3.412   4.031  18.933  0.00  0.00    +0.000 A 
ATOM     15  C   UNL     1       3.069   3.112  19.927  0.00  0.00    +0.000 A 
ATOM     16  C   UNL     1       2.318   3.525  21.012  0.00  0.00    +0.000 A 
ATOM     17  C   UNL     1       1.916   4.857  21.097  0.00  0.00    +0.000 A 
ATOM     18  C   UNL     1       2.247   5.809  20.106  0.00  0.00    +0.000 A 
ATOM     19  O   UNL     1       1.639   9.367  19.207  0.00  0.00    +0.000 OA
ATOM     20  C   UNL     1       0.876   9.770  20.301  0.00  0.00    +0.000 A 
ATOM     21  C   UNL     1       0.394  11.023  20.403  0.00  0.00    +0.000 A 
ENDROOT
BRANCH  12  22
ATOM     22  N   UNL     1       4.063   5.953  16.820  0.00  0.00    +0.000 N 
ATOM     23  H   UNL     1       4.032   4.960  16.627  0.00  0.00    +0.000 HD
BRANCH  22  24
ATOM     24  C   UNL     1       5.344   6.552  16.438  0.00  0.00    +0.000 C 
BRANCH  24  25
ATOM     25  C   UNL     1       6.465   6.092  17.348  0.00  0.00    +0.000 C 
BRANCH  25  26
ATOM     26  C   UNL     1       7.390   5.177  16.598  0.00  0.00    +0.000 C 
ATOM     27  O   UNL     1       7.985   4.242  17.113  0.00  0.00    +0.000 OA
BRANCH  26  28
ATOM     28  O   UNL     1       7.520   5.486  15.289  0.00  0.00    +0.000 OA
ATOM     29  H   UNL     1       7.323   4.763  14.662  0.00  0.00    +0.000 HD
ENDBRANCH  26  28
ENDBRANCH  25  26
ENDBRANCH  24  25
ENDBRANCH  22  24
ENDBRANCH  12  22
TORSDOF 5
ENDMDL
MODEL 6
REMARK VINA RESULT:      -8.0      1.000      1.058
REMARK  Name = 
REMARK  7 active torsions:
REMARK  status: ('A' for Active; 'I' for Inactive)
REMARK    1  A    between atoms: C_1  and  N_2
REMARK    2  A    between atoms: N_2  and  C_3
REMARK    3  A    between atoms: C_12  and  N_13
REMARK    4  A    between atoms: N_13  and  C_14
REMARK    5  A    between atoms: C_14  and  C_15
REMARK    6  A    between atoms: C_15  and  C_16
REMARK    7  A    between atoms: C_16  and  O_18
REMARK                            x       y       z     vdW  Elec       q    Type
REMARK                         _______ _______ _______ _____ _____    ______ ____
ROOT
ATOM      1  C   UNL     1       0.992  13.532  18.226  0.00  0.00    +0.000 C 
ATOM      2  N   UNL     1       0.460  12.720  19.361  0.00  0.00    +0.000 N 
ATOM      3  C   UNL     1      -0.318  13.532  20.364  0.00  0.00    +0.000 C 
ATOM      4  C   UNL     1       0.662  11.441  19.545  0.00  0.00    +0.000 A 
ATOM      5  C   UNL     1       0.070  10.729  20.724  0.00  0.00    +0.000 A 
ATOM      6  C   UNL     1       0.348   9.460  21.015  0.00  0.00    +0.000 A 
ATOM      7  C   UNL     1       1.244   8.641  20.185  0.00  0.00    +0.000 A 
ATOM      8  N   UNL     1       1.483   7.424  20.546  0.00  0.00    +0.000 NA
ATOM      9  C   UNL     1       2.329   6.657  19.711  0.00  0.00    +0.000 A 
ATOM     10  C   UNL     1       2.897   7.215  18.561  0.00  0.00    +0.000 A 
ATOM     11  C   UNL     1       3.745   6.455  17.751  0.00  0.00    +0.000 A 
ATOM     12  C   UNL     1       4.047   5.109  18.050  0.00  0.00    +0.000 A 
ATOM     13  C   UNL     1       3.437   4.513  19.200  0.00  0.00    +0.000 A 
ATOM     14  C   UNL     1       3.632   3.155  19.572  0.00  0.00    +0.000 A 
ATOM     15  C   UNL     1       3.029   2.589  20.697  0.00  0.00    +0.000 A 
ATOM     16  C   UNL     1       2.207   3.362  21.496  0.00  0.00    +0.000 A 
ATOM     17  C   UNL     1       1.995   4.699  21.165  0.00  0.00    +0.000 A 
ATOM     18  C   UNL     1       2.590   5.299  20.031  0.00  0.00    +0.000 A 
ATOM     19  O   UNL     1       2.629   8.511  18.154  0.00  0.00    +0.000 OA
ATOM     20  C   UNL     1       1.793   9.278  18.961  0.00  0.00    +0.000 A 
ATOM     21  C   UNL     1       1.488  10.552  18.653  0.00  0.00    +0.000 A 
ENDROOT
BRANCH  12  22
ATOM     22  N   UNL     1       4.832   4.337  17.175  0.00  0.00    +0.000 N 
ATOM     23  H   UNL     1       4.469   3.411  16.986  0.00  0.00    +0.000 HD
BRANCH  22  24
ATOM     24  C   UNL     1       6.296   4.362  17.207  0.00  0.00    +0.000 C 
BRANCH  24  25
ATOM     25  C   UNL     1       6.880   4.429  15.809  0.00  0.00    +0.000 C 
BRANCH  25  26
ATOM     26  C   UNL     1       5.898   5.074  14.875  0.00  0.00    +0.000 C 
ATOM     27  O   UNL     1       5.560   6.247  14.949  0.00  0.00    +0.000 OA
BRANCH  26  28
ATOM     28  O   UNL     1       5.402   4.235  13.940  0.00  0.00    +0.000 OA
ATOM     29  H   UNL     1       5.819   4.290  13.057  0.00  0.00    +0.000 HD
ENDBRANCH  26  28
ENDBRANCH  25  26
ENDBRANCH  24  25
ENDBRANCH  22  24
ENDBRANCH  12  22
TORSDOF 5
ENDMDL
MODEL 7
REMARK VINA RESULT:      -7.9      1.479      1.666
REMARK  Name = 
REMARK  7 active torsions:
REMARK  status: ('A' for Active; 'I' for Inactive)
REMARK    1  A    between atoms: C_1  and  N_2
REMARK    2  A    between atoms: N_2  and  C_3
REMARK    3  A    between atoms: C_12  and  N_13
REMARK    4  A    between atoms: N_13  and  C_14
REMARK    5  A    between atoms: C_14  and  C_15
REMARK    6  A    between atoms: C_15  and  C_16
REMARK    7  A    between atoms: C_16  and  O_18
REMARK                            x       y       z     vdW  Elec       q    Type
REMARK                         _______ _______ _______ _____ _____    ______ ____
ROOT
ATOM      1  C   UNL     1       0.071  13.032  20.604  0.00  0.00    +0.000 C 
ATOM      2  N   UNL     1      -0.276  11.839  21.433  0.00  0.00    +0.000 N 
ATOM      3  C   UNL     1      -1.070  12.180  22.669  0.00  0.00    +0.000 C 
ATOM      4  C   UNL     1       0.090  10.608  21.190  0.00  0.00    +0.000 A 
ATOM      5  C   UNL     1      -0.324   9.486  22.096  0.00  0.00    +0.000 A 
ATOM      6  C   UNL     1       0.123   8.241  21.953  0.00  0.00    +0.000 A 
ATOM      7  C   UNL     1       1.047   7.855  20.877  0.00  0.00    +0.000 A 
ATOM      8  N   UNL     1       1.456   6.631  20.820  0.00  0.00    +0.000 NA
ATOM      9  C   UNL     1       2.325   6.288  19.757  0.00  0.00    +0.000 A 
ATOM     10  C   UNL     1       2.736   7.252  18.830  0.00  0.00    +0.000 A 
ATOM     11  C   UNL     1       3.608   6.909  17.793  0.00  0.00    +0.000 A 
ATOM     12  C   UNL     1       4.089   5.592  17.634  0.00  0.00    +0.000 A 
ATOM     13  C   UNL     1       3.641   4.587  18.549  0.00  0.00    +0.000 A 
ATOM     14  C   UNL     1       4.023   3.221  18.459  0.00  0.00    +0.000 A 
ATOM     15  C   UNL     1       3.576   2.253  19.360  0.00  0.00    +0.000 A 
ATOM     16  C   UNL     1       2.728   2.616  20.390  0.00  0.00    +0.000 A 
ATOM     17  C   UNL     1       2.334   3.947  20.513  0.00  0.00    +0.000 A 
ATOM     18  C   UNL     1       2.768   4.948  19.615  0.00  0.00    +0.000 A 
ATOM     19  O   UNL     1       2.286   8.561  18.870  0.00  0.00    +0.000 OA
ATOM     20  C   UNL     1       1.426   8.913  19.907  0.00  0.00    +0.000 A 
ATOM     21  C   UNL     1       0.949  10.166  20.035  0.00  0.00    +0.000 A 
ENDROOT
BRANCH  12  22
ATOM     22  N   UNL     1       4.894   5.250  16.533  0.00  0.00    +0.000 N 
ATOM     23  H   UNL     1       4.473   4.593  15.887  0.00  0.00    +0.000 HD
BRANCH  22  24
ATOM     24  C   UNL     1       6.341   5.057  16.650  0.00  0.00    +0.000 C 
BRANCH  24  25
ATOM     25  C   UNL     1       6.860   5.549  17.987  0.00  0.00    +0.000 C 
BRANCH  25  26
ATOM     26  C   UNL     1       7.465   6.913  17.831  0.00  0.00    +0.000 C 
ATOM     27  O   UNL     1       7.187   7.679  16.919  0.00  0.00    +0.000 OA
BRANCH  26  28
ATOM     28  O   UNL     1       8.365   7.225  18.789  0.00  0.00    +0.000 OA
ATOM     29  H   UNL     1       8.810   8.089  18.687  0.00  0.00    +0.000 HD
ENDBRANCH  26  28
ENDBRANCH  25  26
ENDBRANCH  24  25
ENDBRANCH  22  24
ENDBRANCH  12  22
TORSDOF 5
ENDMDL
MODEL 8
REMARK VINA RESULT:      -7.8      2.412      4.032
REMARK  Name = 
REMARK  7 active torsions:
REMARK  status: ('A' for Active; 'I' for Inactive)
REMARK    1  A    between atoms: C_1  and  N_2
REMARK    2  A    between atoms: N_2  and  C_3
REMARK    3  A    between atoms: C_12  and  N_13
REMARK    4  A    between atoms: N_13  and  C_14
REMARK    5  A    between atoms: C_14  and  C_15
REMARK    6  A    between atoms: C_15  and  C_16
REMARK    7  A    between atoms: C_16  and  O_18
REMARK                            x       y       z     vdW  Elec       q    Type
REMARK                         _______ _______ _______ _____ _____    ______ ____
ROOT
ATOM      1  C   UNL     1      -2.246  11.824  22.960  0.00  0.00    +0.000 C 
ATOM      2  N   UNL     1      -1.494  12.207  21.728  0.00  0.00    +0.000 N 
ATOM      3  C   UNL     1      -1.880  13.561  21.189  0.00  0.00    +0.000 C 
ATOM      4  C   UNL     1      -0.617  11.463  21.106  0.00  0.00    +0.000 A 
ATOM      5  C   UNL     1       0.081  11.958  19.875  0.00  0.00    +0.000 A 
ATOM      6  C   UNL     1       0.888  11.192  19.145  0.00  0.00    +0.000 A 
ATOM      7  C   UNL     1       1.181   9.796  19.501  0.00  0.00    +0.000 A 
ATOM      8  N   UNL     1       1.956   9.109  18.728  0.00  0.00    +0.000 NA
ATOM      9  C   UNL     1       2.237   7.777  19.114  0.00  0.00    +0.000 A 
ATOM     10  C   UNL     1       1.672   7.232  20.271  0.00  0.00    +0.000 A 
ATOM     11  C   UNL     1       1.941   5.910  20.635  0.00  0.00    +0.000 A 
ATOM     12  C   UNL     1       2.794   5.089  19.868  0.00  0.00    +0.000 A 
ATOM     13  C   UNL     1       3.415   5.648  18.706  0.00  0.00    +0.000 A 
ATOM     14  C   UNL     1       4.325   4.930  17.884  0.00  0.00    +0.000 A 
ATOM     15  C   UNL     1       4.922   5.490  16.753  0.00  0.00    +0.000 A 
ATOM     16  C   UNL     1       4.629   6.794  16.399  0.00  0.00    +0.000 A 
ATOM     17  C   UNL     1       3.737   7.530  17.179  0.00  0.00    +0.000 A 
ATOM     18  C   UNL     1       3.119   6.989  18.330  0.00  0.00    +0.000 A 
ATOM     19  O   UNL     1       0.858   7.967  21.118  0.00  0.00    +0.000 OA
ATOM     20  C   UNL     1       0.576   9.282  20.755  0.00  0.00    +0.000 A 
ATOM     21  C   UNL     1      -0.216  10.068  21.509  0.00  0.00    +0.000 A 
ENDROOT
BRANCH  12  22
ATOM     22  N   UNL     1       3.122   3.791  20.300  0.00  0.00    +0.000 N 
ATOM     23  H   UNL     1       3.801   3.311  19.723  0.00  0.00    +0.000 HD
BRANCH  22  24
ATOM     24  C   UNL     1       2.123   2.876  20.857  0.00  0.00    +0.000 C 
BRANCH  24  25
ATOM     25  C   UNL     1       1.224   2.310  19.775  0.00  0.00    +0.000 C 
BRANCH  25  26
ATOM     26  C   UNL     1       2.000   2.148  18.500  0.00  0.00    +0.000 C 
ATOM     27  O   UNL     1       1.760   2.771  17.476  0.00  0.00    +0.000 OA
BRANCH  26  28
ATOM     28  O   UNL     1       2.991   1.233  18.577  0.00  0.00    +0.000 OA
ATOM     29  H   UNL     1       3.874   1.584  18.805  0.00  0.00    +0.000 HD
ENDBRANCH  26  28
ENDBRANCH  25  26
ENDBRANCH  24  25
ENDBRANCH  22  24
ENDBRANCH  12  22
TORSDOF 5
ENDMDL
MODEL 9
REMARK VINA RESULT:      -7.6      2.273      8.213
REMARK  Name = 
REMARK  7 active torsions:
REMARK  status: ('A' for Active; 'I' for Inactive)
REMARK    1  A    between atoms: C_1  and  N_2
REMARK    2  A    between atoms: N_2  and  C_3
REMARK    3  A    between atoms: C_12  and  N_13
REMARK    4  A    between atoms: N_13  and  C_14
REMARK    5  A    between atoms: C_14  and  C_15
REMARK    6  A    between atoms: C_15  and  C_16
REMARK    7  A    between atoms: C_16  and  O_18
REMARK                            x       y       z     vdW  Elec       q    Type
REMARK                         _______ _______ _______ _____ _____    ______ ____
ROOT
ATOM      1  C   UNL     1       4.470   3.614  16.671  0.00  0.00    +0.000 C 
ATOM      2  N   UNL     1       3.889   3.491  18.042  0.00  0.00    +0.000 N 
ATOM      3  C   UNL     1       3.921   2.083  18.580  0.00  0.00    +0.000 C 
ATOM      4  C   UNL     1       3.346   4.460  18.731  0.00  0.00    +0.000 A 
ATOM      5  C   UNL     1       2.798   4.216  20.105  0.00  0.00    +0.000 A 
ATOM      6  C   UNL     1       2.131   5.141  20.791  0.00  0.00    +0.000 A 
ATOM      7  C   UNL     1       1.897   6.494  20.264  0.00  0.00    +0.000 A 
ATOM      8  N   UNL     1       1.220   7.330  20.980  0.00  0.00    +0.000 NA
ATOM      9  C   UNL     1       1.035   8.630  20.455  0.00  0.00    +0.000 A 
ATOM     10  C   UNL     1       1.547   8.974  19.199  0.00  0.00    +0.000 A 
ATOM     11  C   UNL     1       1.344  10.255  18.679  0.00  0.00    +0.000 A 
ATOM     12  C   UNL     1       0.639  11.243  19.398  0.00  0.00    +0.000 A 
ATOM     13  C   UNL     1       0.149  10.919  20.703  0.00  0.00    +0.000 A 
ATOM     14  C   UNL     1      -0.535  11.847  21.534  0.00  0.00    +0.000 A 
ATOM     15  C   UNL     1      -1.007  11.513  22.805  0.00  0.00    +0.000 A 
ATOM     16  C   UNL     1      -0.813  10.235  23.294  0.00  0.00    +0.000 A 
ATOM     17  C   UNL     1      -0.149   9.296  22.506  0.00  0.00    +0.000 A 
ATOM     18  C   UNL     1       0.341   9.605  21.217  0.00  0.00    +0.000 A 
ATOM     19  O   UNL     1       2.292   8.092  18.434  0.00  0.00    +0.000 OA
ATOM     20  C   UNL     1       2.489   6.810  18.940  0.00  0.00    +0.000 A 
ATOM     21  C   UNL     1       3.188   5.881  18.260  0.00  0.00    +0.000 A 
ENDROOT
BRANCH  12  22
ATOM     22  N   UNL     1       0.524  12.552  18.895  0.00  0.00    +0.000 N 
ATOM     23  H   UNL     1       0.985  13.262  19.451  0.00  0.00    +0.000 HD
BRANCH  22  24
ATOM     24  C   UNL     1      -0.708  13.048  18.276  0.00  0.00    +0.000 C 
BRANCH  24  25
ATOM     25  C   UNL     1      -1.506  11.922  17.649  0.00  0.00    +0.000 C 
BRANCH  25  26
ATOM     26  C   UNL     1      -2.807  11.751  18.377  0.00  0.00    +0.000 C 
ATOM     27  O   UNL     1      -3.571  10.815  18.192  0.00  0.00    +0.000 OA
BRANCH  26  28
ATOM     28  O   UNL     1      -3.073  12.740  19.259  0.00  0.00    +0.000 OA
ATOM     29  H   UNL     1      -3.860  12.604  19.823  0.00  0.00    +0.000 HD
ENDBRANCH  26  28
ENDBRANCH  25  26
ENDBRANCH  24  25
ENDBRANCH  22  24
ENDBRANCH  12  22
TORSDOF 5
ENDMDL
