MODEL 1
REMARK VINA RESULT:      -7.9      0.000      0.000
REMARK  Name = 
REMARK  7 active torsions:
REMARK  status: ('A' for Active; 'I' for Inactive)
REMARK    1  A    between atoms: C_2  and  C_3
REMARK    2  A    between atoms: C_3  and  O_4
REMARK    3  A    between atoms: O_4  and  C_5
REMARK    4  A    between atoms: C_14  and  C_15
REMARK    5  A    between atoms: C_18  and  N_19
REMARK    6  A    between atoms: C_24  and  O_25
REMARK    7  A    between atoms: C_24  and  C_26
REMARK                            x       y       z     vdW  Elec       q    Type
REMARK                         _______ _______ _______ _____ _____    ______ ____
ROOT
ATOM      1  O   UNL     1       5.129   5.494  19.761  0.00  0.00    +0.000 OA
ATOM      2  C   UNL     1       4.831   5.197  18.605  0.00  0.00    +0.000 C 
ATOM      3  N   UNL     1       5.783   5.065  17.607  0.00  0.00    +0.000 N 
ATOM      4  N   UNL     1       5.448   4.775  16.303  0.00  0.00    +0.000 NA
ATOM      5  C   UNL     1       6.569   4.683  15.651  0.00  0.00    +0.000 C 
ATOM      6  C   UNL     1       7.814   4.796  16.472  0.00  0.00    +0.000 C 
ATOM      7  C   UNL     1       7.220   5.329  17.775  0.00  0.00    +0.000 C 
ENDROOT
BRANCH   7   8
ATOM      8  C   UNL     1       7.589   6.796  17.972  0.00  0.00    +0.000 A 
ATOM      9  C   UNL     1       7.093   7.808  17.126  0.00  0.00    +0.000 A 
ATOM     10  C   UNL     1       7.473   9.142  17.295  0.00  0.00    +0.000 A 
ATOM     11  C   UNL     1       8.365   9.493  18.305  0.00  0.00    +0.000 A 
ATOM     12  C   UNL     1       8.879   8.510  19.145  0.00  0.00    +0.000 A 
ATOM     13  C   UNL     1       8.497   7.175  18.979  0.00  0.00    +0.000 A 
ENDBRANCH   7   8
BRANCH   5  14
ATOM     14  C   UNL     1       6.623   4.413  14.244  0.00  0.00    +0.000 A 
ATOM     15  C   UNL     1       7.412   4.943  13.235  0.00  0.00    +0.000 A 
ATOM     16  C   UNL     1       7.003   4.328  12.023  0.00  0.00    +0.000 A 
ATOM     17  C   UNL     1       6.001   3.455  12.378  0.00  0.00    +0.000 A 
ATOM     18  O   UNL     1       5.763   3.487  13.718  0.00  0.00    +0.000 OA
BRANCH  17  19
ATOM     19  N   UNL     1       5.196   2.569  11.604  0.00  0.00    +0.000 N 
ATOM     20  O   UNL     1       4.091   2.997  11.250  0.00  0.00    +0.000 OA
ATOM     21  O   UNL     1       5.655   1.445  11.347  0.00  0.00    +0.000 OA
ENDBRANCH  17  19
ENDBRANCH   5  14
BRANCH   7  22
ATOM     22  O   UNL     1       7.729   4.505  18.819  0.00  0.00    +0.000 OA
ATOM     23  H   UNL     1       6.963   4.288  19.375  0.00  0.00    +0.000 HD
ENDBRANCH   7  22
BRANCH   2  24
ATOM     24  C   UNL     1       3.386   4.839  18.233  0.00  0.00    +0.000 C 
BRANCH  24  25
ATOM     25  O   UNL     1       2.458   5.260  19.225  0.00  0.00    +0.000 OA
BRANCH  25  26
ATOM     26  C   UNL     1       2.141   6.594  19.237  0.00  0.00    +0.000 A 
ATOM     27  C   UNL     1       1.736   7.334  20.352  0.00  0.00    +0.000 A 
ATOM     28  C   UNL     1       1.421   8.693  20.225  0.00  0.00    +0.000 A 
ATOM     29  C   UNL     1       1.514   9.314  18.981  0.00  0.00    +0.000 A 
ATOM     30 CL   UNL     1       1.120  10.981  18.827  0.00  0.00    +0.000 Cl
ATOM     31  C   UNL     1       1.922   8.590  17.866  0.00  0.00    +0.000 A 
ATOM     32  C   UNL     1       2.235   7.232  17.996  0.00  0.00    +0.000 A 
ENDBRANCH  25  26
ENDBRANCH  24  25
ENDBRANCH   2  24
TORSDOF 7
ENDMDL
MODEL 2
REMARK VINA RESULT:      -7.9      3.997      8.692
REMARK  Name = 
REMARK  7 active torsions:
REMARK  status: ('A' for Active; 'I' for Inactive)
REMARK    1  A    between atoms: C_2  and  C_3
REMARK    2  A    between atoms: C_3  and  O_4
REMARK    3  A    between atoms: O_4  and  C_5
REMARK    4  A    between atoms: C_14  and  C_15
REMARK    5  A    between atoms: C_18  and  N_19
REMARK    6  A    between atoms: C_24  and  O_25
REMARK    7  A    between atoms: C_24  and  C_26
REMARK                            x       y       z     vdW  Elec       q    Type
REMARK                         _______ _______ _______ _____ _____    ______ ____
ROOT
ATOM      1  O   UNL     1       5.196   4.629  17.656  0.00  0.00    +0.000 OA
ATOM      2  C   UNL     1       4.635   5.681  17.352  0.00  0.00    +0.000 C 
ATOM      3  N   UNL     1       3.719   6.298  18.188  0.00  0.00    +0.000 N 
ATOM      4  N   UNL     1       3.058   7.454  17.832  0.00  0.00    +0.000 NA
ATOM      5  C   UNL     1       2.318   7.778  18.850  0.00  0.00    +0.000 C 
ATOM      6  C   UNL     1       2.474   6.926  20.070  0.00  0.00    +0.000 C 
ATOM      7  C   UNL     1       3.253   5.755  19.474  0.00  0.00    +0.000 C 
ENDROOT
BRANCH   7   8
ATOM      8  C   UNL     1       2.367   4.518  19.369  0.00  0.00    +0.000 A 
ATOM      9  C   UNL     1       1.779   4.126  18.151  0.00  0.00    +0.000 A 
ATOM     10  C   UNL     1       0.936   3.013  18.081  0.00  0.00    +0.000 A 
ATOM     11  C   UNL     1       0.654   2.275  19.227  0.00  0.00    +0.000 A 
ATOM     12  C   UNL     1       1.213   2.651  20.445  0.00  0.00    +0.000 A 
ATOM     13  C   UNL     1       2.058   3.762  20.516  0.00  0.00    +0.000 A 
ENDBRANCH   7   8
BRANCH   5  14
ATOM     14  C   UNL     1       1.457   8.923  18.844  0.00  0.00    +0.000 A 
ATOM     15  C   UNL     1       0.869   9.628  17.804  0.00  0.00    +0.000 A 
ATOM     16  C   UNL     1       0.147  10.701  18.387  0.00  0.00    +0.000 A 
ATOM     17  C   UNL     1       0.332  10.570  19.744  0.00  0.00    +0.000 A 
ATOM     18  O   UNL     1       1.115   9.496  20.039  0.00  0.00    +0.000 OA
BRANCH  17  19
ATOM     19  N   UNL     1      -0.132  11.349  20.844  0.00  0.00    +0.000 N 
ATOM     20  O   UNL     1      -1.340  11.612  20.861  0.00  0.00    +0.000 OA
ATOM     21  O   UNL     1       0.701  11.706  21.693  0.00  0.00    +0.000 OA
ENDBRANCH  17  19
ENDBRANCH   5  14
BRANCH   7  22
ATOM     22  O   UNL     1       4.375   5.540  20.324  0.00  0.00    +0.000 OA
ATOM     23  H   UNL     1       4.426   4.579  20.448  0.00  0.00    +0.000 HD
ENDBRANCH   7  22
BRANCH   2  24
ATOM     24  C   UNL     1       5.015   6.431  16.069  0.00  0.00    +0.000 C 
BRANCH  24  25
ATOM     25  O   UNL     1       6.308   6.070  15.601  0.00  0.00    +0.000 OA
BRANCH  25  26
ATOM     26  C   UNL     1       6.354   5.197  14.545  0.00  0.00    +0.000 A 
ATOM     27  C   UNL     1       5.414   4.203  14.258  0.00  0.00    +0.000 A 
ATOM     28  C   UNL     1       5.588   3.360  13.152  0.00  0.00    +0.000 A 
ATOM     29  C   UNL     1       6.703   3.513  12.331  0.00  0.00    +0.000 A 
ATOM     30 CL   UNL     1       6.918   2.472  10.979  0.00  0.00    +0.000 Cl
ATOM     31  C   UNL     1       7.642   4.503  12.602  0.00  0.00    +0.000 A 
ATOM     32  C   UNL     1       7.465   5.343  13.708  0.00  0.00    +0.000 A 
ENDBRANCH  25  26
ENDBRANCH  24  25
ENDBRANCH   2  24
TORSDOF 7
ENDMDL
MODEL 3
REMARK VINA RESULT:      -7.9      0.426      1.413
REMARK  Name = 
REMARK  7 active torsions:
REMARK  status: ('A' for Active; 'I' for Inactive)
REMARK    1  A    between atoms: C_2  and  C_3
REMARK    2  A    between atoms: C_3  and  O_4
REMARK    3  A    between atoms: O_4  and  C_5
REMARK    4  A    between atoms: C_14  and  C_15
REMARK    5  A    between atoms: C_18  and  N_19
REMARK    6  A    between atoms: C_24  and  O_25
REMARK    7  A    between atoms: C_24  and  C_26
REMARK                            x       y       z     vdW  Elec       q    Type
REMARK                         _______ _______ _______ _____ _____    ______ ____
ROOT
ATOM      1  O   UNL     1       4.778   5.862  19.543  0.00  0.00    +0.000 OA
ATOM      2  C   UNL     1       4.534   5.569  18.373  0.00  0.00    +0.000 C 
ATOM      3  N   UNL     1       5.536   5.283  17.459  0.00  0.00    +0.000 N 
ATOM      4  N   UNL     1       5.268   4.995  16.138  0.00  0.00    +0.000 NA
ATOM      5  C   UNL     1       6.414   4.739  15.582  0.00  0.00    +0.000 C 
ATOM      6  C   UNL     1       7.596   4.717  16.499  0.00  0.00    +0.000 C 
ATOM      7  C   UNL     1       6.978   5.365  17.737  0.00  0.00    +0.000 C 
ENDROOT
BRANCH   7   8
ATOM      8  C   UNL     1       7.519   6.778  17.932  0.00  0.00    +0.000 A 
ATOM      9  C   UNL     1       8.431   7.089  18.958  0.00  0.00    +0.000 A 
ATOM     10  C   UNL     1       8.886   8.397  19.149  0.00  0.00    +0.000 A 
ATOM     11  C   UNL     1       8.430   9.423  18.326  0.00  0.00    +0.000 A 
ATOM     12  C   UNL     1       7.518   9.143  17.313  0.00  0.00    +0.000 A 
ATOM     13  C   UNL     1       7.065   7.834  17.120  0.00  0.00    +0.000 A 
ENDBRANCH   7   8
BRANCH   5  14
ATOM     14  C   UNL     1       6.542   4.419  14.191  0.00  0.00    +0.000 A 
ATOM     15  C   UNL     1       7.402   4.893  13.212  0.00  0.00    +0.000 A 
ATOM     16  C   UNL     1       7.046   4.247  12.000  0.00  0.00    +0.000 A 
ATOM     17  C   UNL     1       6.002   3.413  12.325  0.00  0.00    +0.000 A 
ATOM     18  O   UNL     1       5.688   3.497  13.647  0.00  0.00    +0.000 OA
BRANCH  17  19
ATOM     19  N   UNL     1       5.219   2.521  11.534  0.00  0.00    +0.000 N 
ATOM     20  O   UNL     1       5.732   1.428  11.268  0.00  0.00    +0.000 OA
ATOM     21  O   UNL     1       4.096   2.904  11.171  0.00  0.00    +0.000 OA
ENDBRANCH  17  19
ENDBRANCH   5  14
BRANCH   7  22
ATOM     22  O   UNL     1       7.291   4.516  18.837  0.00  0.00    +0.000 OA
ATOM     23  H   UNL     1       7.991   3.925  18.517  0.00  0.00    +0.000 HD
ENDBRANCH   7  22
BRANCH   2  24
ATOM     24  C   UNL     1       3.088   5.387  17.893  0.00  0.00    +0.000 C 
BRANCH  24  25
ATOM     25  O   UNL     1       2.145   5.856  18.848  0.00  0.00    +0.000 OA
BRANCH  25  26
ATOM     26  C   UNL     1       1.898   7.205  18.852  0.00  0.00    +0.000 A 
ATOM     27  C   UNL     1       1.973   8.059  17.748  0.00  0.00    +0.000 A 
ATOM     28  C   UNL     1       1.712   9.428  17.891  0.00  0.00    +0.000 A 
ATOM     29  C   UNL     1       1.375   9.944  19.140  0.00  0.00    +0.000 A 
ATOM     30 CL   UNL     1       1.063  11.626  19.314  0.00  0.00    +0.000 Cl
ATOM     31  C   UNL     1       1.290   9.103  20.245  0.00  0.00    +0.000 A 
ATOM     32  C   UNL     1       1.552   7.736  20.099  0.00  0.00    +0.000 A 
ENDBRANCH  25  26
ENDBRANCH  24  25
ENDBRANCH   2  24
TORSDOF 7
ENDMDL
MODEL 4
REMARK VINA RESULT:      -7.8      3.750      8.464
REMARK  Name = 
REMARK  7 active torsions:
REMARK  status: ('A' for Active; 'I' for Inactive)
REMARK    1  A    between atoms: C_2  and  C_3
REMARK    2  A    between atoms: C_3  and  O_4
REMARK    3  A    between atoms: O_4  and  C_5
REMARK    4  A    between atoms: C_14  and  C_15
REMARK    5  A    between atoms: C_18  and  N_19
REMARK    6  A    between atoms: C_24  and  O_25
REMARK    7  A    between atoms: C_24  and  C_26
REMARK                            x       y       z     vdW  Elec       q    Type
REMARK                         _______ _______ _______ _____ _____    ______ ____
ROOT
ATOM      1  O   UNL     1       5.841   4.570  17.509  0.00  0.00    +0.000 OA
ATOM      2  C   UNL     1       5.226   5.601  17.240  0.00  0.00    +0.000 C 
ATOM      3  N   UNL     1       4.224   6.099  18.058  0.00  0.00    +0.000 N 
ATOM      4  N   UNL     1       3.506   7.230  17.737  0.00  0.00    +0.000 NA
ATOM      5  C   UNL     1       2.689   7.435  18.728  0.00  0.00    +0.000 C 
ATOM      6  C   UNL     1       2.838   6.515  19.898  0.00  0.00    +0.000 C 
ATOM      7  C   UNL     1       3.728   5.441  19.276  0.00  0.00    +0.000 C 
ENDROOT
BRANCH   7   8
ATOM      8  C   UNL     1       2.938   4.158  19.041  0.00  0.00    +0.000 A 
ATOM      9  C   UNL     1       1.538   4.165  18.887  0.00  0.00    +0.000 A 
ATOM     10  C   UNL     1       0.823   2.976  18.713  0.00  0.00    +0.000 A 
ATOM     11  C   UNL     1       1.491   1.754  18.701  0.00  0.00    +0.000 A 
ATOM     12  C   UNL     1       2.872   1.720  18.865  0.00  0.00    +0.000 A 
ATOM     13  C   UNL     1       3.588   2.909  19.036  0.00  0.00    +0.000 A 
ENDBRANCH   7   8
BRANCH   5  14
ATOM     14  C   UNL     1       1.752   8.519  18.743  0.00  0.00    +0.000 A 
ATOM     15  C   UNL     1       1.141   9.222  17.717  0.00  0.00    +0.000 A 
ATOM     16  C   UNL     1       0.334  10.220  18.322  0.00  0.00    +0.000 A 
ATOM     17  C   UNL     1       0.497  10.048  19.676  0.00  0.00    +0.000 A 
ATOM     18  O   UNL     1       1.345   9.019  19.951  0.00  0.00    +0.000 OA
BRANCH  17  19
ATOM     19  N   UNL     1      -0.044  10.751  20.793  0.00  0.00    +0.000 N 
ATOM     20  O   UNL     1      -1.131  11.311  20.616  0.00  0.00    +0.000 OA
ATOM     21  O   UNL     1       0.611  10.752  21.848  0.00  0.00    +0.000 OA
ENDBRANCH  17  19
ENDBRANCH   5  14
BRANCH   7  22
ATOM     22  O   UNL     1       4.814   5.243  20.176  0.00  0.00    +0.000 OA
ATOM     23  H   UNL     1       4.815   6.022  20.756  0.00  0.00    +0.000 HD
ENDBRANCH   7  22
BRANCH   2  24
ATOM     24  C   UNL     1       5.622   6.460  16.032  0.00  0.00    +0.000 C 
BRANCH  24  25
ATOM     25  O   UNL     1       6.804   5.984  15.401  0.00  0.00    +0.000 OA
BRANCH  25  26
ATOM     26  C   UNL     1       6.630   5.112  14.357  0.00  0.00    +0.000 A 
ATOM     27  C   UNL     1       7.511   4.921  13.289  0.00  0.00    +0.000 A 
ATOM     28  C   UNL     1       7.205   4.008  12.271  0.00  0.00    +0.000 A 
ATOM     29  C   UNL     1       6.017   3.282  12.323  0.00  0.00    +0.000 A 
ATOM     30 CL   UNL     1       5.640   2.167  11.069  0.00  0.00    +0.000 Cl
ATOM     31  C   UNL     1       5.135   3.459  13.385  0.00  0.00    +0.000 A 
ATOM     32  C   UNL     1       5.444   4.372  14.399  0.00  0.00    +0.000 A 
ENDBRANCH  25  26
ENDBRANCH  24  25
ENDBRANCH   2  24
TORSDOF 7
ENDMDL
MODEL 5
REMARK VINA RESULT:      -7.8      0.671      1.180
REMARK  Name = 
REMARK  7 active torsions:
REMARK  status: ('A' for Active; 'I' for Inactive)
REMARK    1  A    between atoms: C_2  and  C_3
REMARK    2  A    between atoms: C_3  and  O_4
REMARK    3  A    between atoms: O_4  and  C_5
REMARK    4  A    between atoms: C_14  and  C_15
REMARK    5  A    between atoms: C_18  and  N_19
REMARK    6  A    between atoms: C_24  and  O_25
REMARK    7  A    between atoms: C_24  and  C_26
REMARK                            x       y       z     vdW  Elec       q    Type
REMARK                         _______ _______ _______ _____ _____    ______ ____
ROOT
ATOM      1  O   UNL     1       4.828   5.692  19.603  0.00  0.00    +0.000 OA
ATOM      2  C   UNL     1       4.566   5.425  18.431  0.00  0.00    +0.000 C 
ATOM      3  N   UNL     1       5.553   5.161  17.494  0.00  0.00    +0.000 N 
ATOM      4  N   UNL     1       5.264   4.904  16.172  0.00  0.00    +0.000 NA
ATOM      5  C   UNL     1       6.401   4.661  15.592  0.00  0.00    +0.000 C 
ATOM      6  C   UNL     1       7.598   4.621  16.489  0.00  0.00    +0.000 C 
ATOM      7  C   UNL     1       6.999   5.239  17.751  0.00  0.00    +0.000 C 
ENDROOT
BRANCH   7   8
ATOM      8  C   UNL     1       7.542   6.648  17.969  0.00  0.00    +0.000 A 
ATOM      9  C   UNL     1       8.408   6.955  19.036  0.00  0.00    +0.000 A 
ATOM     10  C   UNL     1       8.863   8.259  19.246  0.00  0.00    +0.000 A 
ATOM     11  C   UNL     1       8.455   9.287  18.401  0.00  0.00    +0.000 A 
ATOM     12  C   UNL     1       7.589   9.012  17.347  0.00  0.00    +0.000 A 
ATOM     13  C   UNL     1       7.135   7.707  17.135  0.00  0.00    +0.000 A 
ENDBRANCH   7   8
BRANCH   5  14
ATOM     14  C   UNL     1       6.507   4.373  14.192  0.00  0.00    +0.000 A 
ATOM     15  C   UNL     1       7.337   4.885  13.206  0.00  0.00    +0.000 A 
ATOM     16  C   UNL     1       6.969   4.257  11.988  0.00  0.00    +0.000 A 
ATOM     17  C   UNL     1       5.949   3.395  12.316  0.00  0.00    +0.000 A 
ATOM     18  O   UNL     1       5.661   3.445  13.646  0.00  0.00    +0.000 OA
BRANCH  17  19
ATOM     19  N   UNL     1       5.168   2.504  11.523  0.00  0.00    +0.000 N 
ATOM     20  O   UNL     1       4.059   2.916  11.165  0.00  0.00    +0.000 OA
ATOM     21  O   UNL     1       5.651   1.391  11.257  0.00  0.00    +0.000 OA
ENDBRANCH  17  19
ENDBRANCH   5  14
BRANCH   7  22
ATOM     22  O   UNL     1       7.331   4.366  18.826  0.00  0.00    +0.000 OA
ATOM     23  H   UNL     1       7.966   3.731  18.458  0.00  0.00    +0.000 HD
ENDBRANCH   7  22
BRANCH   2  24
ATOM     24  C   UNL     1       3.113   5.253  17.971  0.00  0.00    +0.000 C 
BRANCH  24  25
ATOM     25  O   UNL     1       2.560   6.466  17.477  0.00  0.00    +0.000 OA
BRANCH  25  26
ATOM     26  C   UNL     1       2.111   7.359  18.416  0.00  0.00    +0.000 A 
ATOM     27  C   UNL     1       1.951   7.107  19.782  0.00  0.00    +0.000 A 
ATOM     28  C   UNL     1       1.463   8.105  20.635  0.00  0.00    +0.000 A 
ATOM     29  C   UNL     1       1.136   9.358  20.123  0.00  0.00    +0.000 A 
ATOM     30 CL   UNL     1       0.531  10.579  21.172  0.00  0.00    +0.000 Cl
ATOM     31  C   UNL     1       1.297   9.624  18.767  0.00  0.00    +0.000 A 
ATOM     32  C   UNL     1       1.784   8.624  17.917  0.00  0.00    +0.000 A 
ENDBRANCH  25  26
ENDBRANCH  24  25
ENDBRANCH   2  24
TORSDOF 7
ENDMDL
MODEL 6
REMARK VINA RESULT:      -7.8      3.844      8.611
REMARK  Name = 
REMARK  7 active torsions:
REMARK  status: ('A' for Active; 'I' for Inactive)
REMARK    1  A    between atoms: C_2  and  C_3
REMARK    2  A    between atoms: C_3  and  O_4
REMARK    3  A    between atoms: O_4  and  C_5
REMARK    4  A    between atoms: C_14  and  C_15
REMARK    5  A    between atoms: C_18  and  N_19
REMARK    6  A    between atoms: C_24  and  O_25
REMARK    7  A    between atoms: C_24  and  C_26
REMARK                            x       y       z     vdW  Elec       q    Type
REMARK                         _______ _______ _______ _____ _____    ______ ____
ROOT
ATOM      1  O   UNL     1       5.608   4.517  17.279  0.00  0.00    +0.000 OA
ATOM      2  C   UNL     1       4.977   5.548  17.046  0.00  0.00    +0.000 C 
ATOM      3  N   UNL     1       4.073   6.082  17.951  0.00  0.00    +0.000 N 
ATOM      4  N   UNL     1       3.335   7.212  17.674  0.00  0.00    +0.000 NA
ATOM      5  C   UNL     1       2.631   7.456  18.739  0.00  0.00    +0.000 C 
ATOM      6  C   UNL     1       2.894   6.569  19.914  0.00  0.00    +0.000 C 
ATOM      7  C   UNL     1       3.703   5.466  19.234  0.00  0.00    +0.000 C 
ENDROOT
BRANCH   7   8
ATOM      8  C   UNL     1       2.879   4.186  19.122  0.00  0.00    +0.000 A 
ATOM      9  C   UNL     1       3.477   2.912  19.164  0.00  0.00    +0.000 A 
ATOM     10  C   UNL     1       2.713   1.750  19.019  0.00  0.00    +0.000 A 
ATOM     11  C   UNL     1       1.338   1.837  18.817  0.00  0.00    +0.000 A 
ATOM     12  C   UNL     1       0.727   3.086  18.758  0.00  0.00    +0.000 A 
ATOM     13  C   UNL     1       1.489   4.248  18.906  0.00  0.00    +0.000 A 
ENDBRANCH   7   8
BRANCH   5  14
ATOM     14  C   UNL     1       1.711   8.552  18.821  0.00  0.00    +0.000 A 
ATOM     15  C   UNL     1       1.100   9.317  17.839  0.00  0.00    +0.000 A 
ATOM     16  C   UNL     1       0.316  10.294  18.504  0.00  0.00    +0.000 A 
ATOM     17  C   UNL     1       0.491  10.051  19.846  0.00  0.00    +0.000 A 
ATOM     18  O   UNL     1       1.326   8.996  20.057  0.00  0.00    +0.000 OA
BRANCH  17  19
ATOM     19  N   UNL     1      -0.026  10.703  21.004  0.00  0.00    +0.000 N 
ATOM     20  O   UNL     1       0.664  10.634  22.028  0.00  0.00    +0.000 OA
ATOM     21  O   UNL     1      -1.120  11.281  20.903  0.00  0.00    +0.000 OA
ENDBRANCH  17  19
ENDBRANCH   5  14
BRANCH   7  22
ATOM     22  O   UNL     1       4.876   5.280  20.020  0.00  0.00    +0.000 OA
ATOM     23  H   UNL     1       5.522   4.864  19.427  0.00  0.00    +0.000 HD
ENDBRANCH   7  22
BRANCH   2  24
ATOM     24  C   UNL     1       5.252   6.367  15.778  0.00  0.00    +0.000 C 
BRANCH  24  25
ATOM     25  O   UNL     1       6.468   5.986  15.148  0.00  0.00    +0.000 OA
BRANCH  25  26
ATOM     26  C   UNL     1       6.376   5.030  14.169  0.00  0.00    +0.000 A 
ATOM     27  C   UNL     1       5.304   4.155  13.971  0.00  0.00    +0.000 A 
ATOM     28  C   UNL     1       5.343   3.208  12.939  0.00  0.00    +0.000 A 
ATOM     29  C   UNL     1       6.455   3.137  12.103  0.00  0.00    +0.000 A 
ATOM     30 CL   UNL     1       6.502   1.968  10.842  0.00  0.00    +0.000 Cl
ATOM     31  C   UNL     1       7.525   4.007  12.286  0.00  0.00    +0.000 A 
ATOM     32  C   UNL     1       7.483   4.951  13.317  0.00  0.00    +0.000 A 
ENDBRANCH  25  26
ENDBRANCH  24  25
ENDBRANCH   2  24
TORSDOF 7
ENDMDL
MODEL 7
REMARK VINA RESULT:      -7.8      2.307      2.991
REMARK  Name = 
REMARK  7 active torsions:
REMARK  status: ('A' for Active; 'I' for Inactive)
REMARK    1  A    between atoms: C_2  and  C_3
REMARK    2  A    between atoms: C_3  and  O_4
REMARK    3  A    between atoms: O_4  and  C_5
REMARK    4  A    between atoms: C_14  and  C_15
REMARK    5  A    between atoms: C_18  and  N_19
REMARK    6  A    between atoms: C_24  and  O_25
REMARK    7  A    between atoms: C_24  and  C_26
REMARK                            x       y       z     vdW  Elec       q    Type
REMARK                         _______ _______ _______ _____ _____    ______ ____
ROOT
ATOM      1  O   UNL     1       4.317   6.126  19.311  0.00  0.00    +0.000 OA
ATOM      2  C   UNL     1       4.166   5.832  18.126  0.00  0.00    +0.000 C 
ATOM      3  N   UNL     1       5.224   5.439  17.321  0.00  0.00    +0.000 N 
ATOM      4  N   UNL     1       5.063   5.150  15.984  0.00  0.00    +0.000 NA
ATOM      5  C   UNL     1       6.231   4.781  15.549  0.00  0.00    +0.000 C 
ATOM      6  C   UNL     1       7.309   4.673  16.581  0.00  0.00    +0.000 C 
ATOM      7  C   UNL     1       6.632   5.398  17.743  0.00  0.00    +0.000 C 
ENDROOT
BRANCH   7   8
ATOM      8  C   UNL     1       7.277   6.761  17.975  0.00  0.00    +0.000 A 
ATOM      9  C   UNL     1       6.955   7.880  17.183  0.00  0.00    +0.000 A 
ATOM     10  C   UNL     1       7.586   9.112  17.381  0.00  0.00    +0.000 A 
ATOM     11  C   UNL     1       8.558   9.249  18.368  0.00  0.00    +0.000 A 
ATOM     12  C   UNL     1       8.903   8.154  19.155  0.00  0.00    +0.000 A 
ATOM     13  C   UNL     1       8.271   6.922  18.959  0.00  0.00    +0.000 A 
ENDBRANCH   7   8
BRANCH   5  14
ATOM     14  C   UNL     1       6.468   4.422  14.182  0.00  0.00    +0.000 A 
ATOM     15  C   UNL     1       7.396   4.877  13.258  0.00  0.00    +0.000 A 
ATOM     16  C   UNL     1       7.139   4.193  12.042  0.00  0.00    +0.000 A 
ATOM     17  C   UNL     1       6.081   3.357  12.311  0.00  0.00    +0.000 A 
ATOM     18  O   UNL     1       5.666   3.476  13.602  0.00  0.00    +0.000 OA
BRANCH  17  19
ATOM     19  N   UNL     1       5.369   2.434  11.490  0.00  0.00    +0.000 N 
ATOM     20  O   UNL     1       4.243   2.785  11.118  0.00  0.00    +0.000 OA
ATOM     21  O   UNL     1       5.921   1.356  11.216  0.00  0.00    +0.000 OA
ENDBRANCH  17  19
ENDBRANCH   5  14
BRANCH   7  22
ATOM     22  O   UNL     1       6.755   4.547  18.879  0.00  0.00    +0.000 OA
ATOM     23  H   UNL     1       7.691   4.291  18.910  0.00  0.00    +0.000 HD
ENDBRANCH   7  22
BRANCH   2  24
ATOM     24  C   UNL     1       2.765   5.770  17.504  0.00  0.00    +0.000 C 
BRANCH  24  25
ATOM     25  O   UNL     1       2.279   4.437  17.410  0.00  0.00    +0.000 OA
BRANCH  25  26
ATOM     26  C   UNL     1       2.049   3.786  18.595  0.00  0.00    +0.000 A 
ATOM     27  C   UNL     1       2.436   2.479  18.905  0.00  0.00    +0.000 A 
ATOM     28  C   UNL     1       2.120   1.923  20.151  0.00  0.00    +0.000 A 
ATOM     29  C   UNL     1       1.419   2.675  21.091  0.00  0.00    +0.000 A 
ATOM     30 CL   UNL     1       1.028   1.987  22.618  0.00  0.00    +0.000 Cl
ATOM     31  C   UNL     1       1.035   3.980  20.797  0.00  0.00    +0.000 A 
ATOM     32  C   UNL     1       1.350   4.532  19.550  0.00  0.00    +0.000 A 
ENDBRANCH  25  26
ENDBRANCH  24  25
ENDBRANCH   2  24
TORSDOF 7
ENDMDL
MODEL 8
REMARK VINA RESULT:      -7.8      6.289      9.890
REMARK  Name = 
REMARK  7 active torsions:
REMARK  status: ('A' for Active; 'I' for Inactive)
REMARK    1  A    between atoms: C_2  and  C_3
REMARK    2  A    between atoms: C_3  and  O_4
REMARK    3  A    between atoms: O_4  and  C_5
REMARK    4  A    between atoms: C_14  and  C_15
REMARK    5  A    between atoms: C_18  and  N_19
REMARK    6  A    between atoms: C_24  and  O_25
REMARK    7  A    between atoms: C_24  and  C_26
REMARK                            x       y       z     vdW  Elec       q    Type
REMARK                         _______ _______ _______ _____ _____    ______ ____
ROOT
ATOM      1  O   UNL     1       1.397  10.586  21.845  0.00  0.00    +0.000 OA
ATOM      2  C   UNL     1       0.616  10.123  21.014  0.00  0.00    +0.000 C 
ATOM      3  N   UNL     1      -0.194  10.930  20.231  0.00  0.00    +0.000 N 
ATOM      4  N   UNL     1      -1.098  10.413  19.330  0.00  0.00    +0.000 NA
ATOM      5  C   UNL     1      -1.652  11.432  18.744  0.00  0.00    +0.000 C 
ATOM      6  C   UNL     1      -1.101  12.775  19.110  0.00  0.00    +0.000 C 
ATOM      7  C   UNL     1      -0.280  12.394  20.340  0.00  0.00    +0.000 C 
ENDROOT
BRANCH   7   8
ATOM      8  C   UNL     1      -0.948  12.909  21.612  0.00  0.00    +0.000 A 
ATOM      9  C   UNL     1      -2.169  12.381  22.076  0.00  0.00    +0.000 A 
ATOM     10  C   UNL     1      -2.789  12.891  23.220  0.00  0.00    +0.000 A 
ATOM     11  C   UNL     1      -2.209  13.947  23.918  0.00  0.00    +0.000 A 
ATOM     12  C   UNL     1      -1.010  14.494  23.471  0.00  0.00    +0.000 A 
ATOM     13  C   UNL     1      -0.388  13.983  22.328  0.00  0.00    +0.000 A 
ENDBRANCH   7   8
BRANCH   5  14
ATOM     14  C   UNL     1      -2.674  11.290  17.750  0.00  0.00    +0.000 A 
ATOM     15  C   UNL     1      -4.024  11.606  17.766  0.00  0.00    +0.000 A 
ATOM     16  C   UNL     1      -4.558  11.207  16.513  0.00  0.00    +0.000 A 
ATOM     17  C   UNL     1      -3.494  10.687  15.813  0.00  0.00    +0.000 A 
ATOM     18  O   UNL     1      -2.345  10.736  16.542  0.00  0.00    +0.000 OA
BRANCH  17  19
ATOM     19  N   UNL     1      -3.403  10.118  14.509  0.00  0.00    +0.000 N 
ATOM     20  O   UNL     1      -2.263   9.914  14.076  0.00  0.00    +0.000 OA
ATOM     21  O   UNL     1      -4.462   9.877  13.908  0.00  0.00    +0.000 OA
ENDBRANCH  17  19
ENDBRANCH   5  14
BRANCH   7  22
ATOM     22  O   UNL     1       1.015  12.955  20.152  0.00  0.00    +0.000 OA
ATOM     23  H   UNL     1       0.994  13.370  19.275  0.00  0.00    +0.000 HD
ENDBRANCH   7  22
BRANCH   2  24
ATOM     24  C   UNL     1       0.586   8.618  20.717  0.00  0.00    +0.000 C 
BRANCH  24  25
ATOM     25  O   UNL     1       1.887   8.044  20.731  0.00  0.00    +0.000 OA
BRANCH  25  26
ATOM     26  C   UNL     1       2.085   6.960  19.915  0.00  0.00    +0.000 A 
ATOM     27  C   UNL     1       2.578   6.993  18.607  0.00  0.00    +0.000 A 
ATOM     28  C   UNL     1       2.715   5.809  17.871  0.00  0.00    +0.000 A 
ATOM     29  C   UNL     1       2.362   4.589  18.443  0.00  0.00    +0.000 A 
ATOM     30 CL   UNL     1       2.525   3.138  17.535  0.00  0.00    +0.000 Cl
ATOM     31  C   UNL     1       1.876   4.543  19.747  0.00  0.00    +0.000 A 
ATOM     32  C   UNL     1       1.739   5.728  20.479  0.00  0.00    +0.000 A 
ENDBRANCH  25  26
ENDBRANCH  24  25
ENDBRANCH   2  24
TORSDOF 7
ENDMDL
MODEL 9
REMARK VINA RESULT:      -7.7      4.002      8.345
REMARK  Name = 
REMARK  7 active torsions:
REMARK  status: ('A' for Active; 'I' for Inactive)
REMARK    1  A    between atoms: C_2  and  C_3
REMARK    2  A    between atoms: C_3  and  O_4
REMARK    3  A    between atoms: O_4  and  C_5
REMARK    4  A    between atoms: C_14  and  C_15
REMARK    5  A    between atoms: C_18  and  N_19
REMARK    6  A    between atoms: C_24  and  O_25
REMARK    7  A    between atoms: C_24  and  C_26
REMARK                            x       y       z     vdW  Elec       q    Type
REMARK                         _______ _______ _______ _____ _____    ______ ____
ROOT
ATOM      1  O   UNL     1       5.171   4.829  17.572  0.00  0.00    +0.000 OA
ATOM      2  C   UNL     1       4.626   5.862  17.186  0.00  0.00    +0.000 C 
ATOM      3  N   UNL     1       3.684   6.532  17.951  0.00  0.00    +0.000 N 
ATOM      4  N   UNL     1       3.042   7.666  17.502  0.00  0.00    +0.000 NA
ATOM      5  C   UNL     1       2.268   8.053  18.472  0.00  0.00    +0.000 C 
ATOM      6  C   UNL     1       2.378   7.276  19.746  0.00  0.00    +0.000 C 
ATOM      7  C   UNL     1       3.172   6.070  19.249  0.00  0.00    +0.000 C 
ENDROOT
BRANCH   7   8
ATOM      8  C   UNL     1       2.284   4.830  19.189  0.00  0.00    +0.000 A 
ATOM      9  C   UNL     1       1.818   4.308  17.967  0.00  0.00    +0.000 A 
ATOM     10  C   UNL     1       0.971   3.196  17.931  0.00  0.00    +0.000 A 
ATOM     11  C   UNL     1       0.563   2.590  19.116  0.00  0.00    +0.000 A 
ATOM     12  C   UNL     1       0.999   3.096  20.337  0.00  0.00    +0.000 A 
ATOM     13  C   UNL     1       1.848   4.206  20.373  0.00  0.00    +0.000 A 
ENDBRANCH   7   8
BRANCH   5  14
ATOM     14  C   UNL     1       1.413   9.198  18.366  0.00  0.00    +0.000 A 
ATOM     15  C   UNL     1       1.631  10.539  18.645  0.00  0.00    +0.000 A 
ATOM     16  C   UNL     1       0.412  11.218  18.391  0.00  0.00    +0.000 A 
ATOM     17  C   UNL     1      -0.463  10.248  17.961  0.00  0.00    +0.000 A 
ATOM     18  O   UNL     1       0.127   9.021  17.932  0.00  0.00    +0.000 OA
BRANCH  17  19
ATOM     19  N   UNL     1      -1.832  10.311  17.570  0.00  0.00    +0.000 N 
ATOM     20  O   UNL     1      -2.083  10.017  16.395  0.00  0.00    +0.000 OA
ATOM     21  O   UNL     1      -2.663  10.657  18.425  0.00  0.00    +0.000 OA
ENDBRANCH  17  19
ENDBRANCH   5  14
BRANCH   7  22
ATOM     22  O   UNL     1       4.262   5.903  20.150  0.00  0.00    +0.000 OA
ATOM     23  H   UNL     1       4.144   6.587  20.829  0.00  0.00    +0.000 HD
ENDBRANCH   7  22
BRANCH   2  24
ATOM     24  C   UNL     1       5.054   6.533  15.874  0.00  0.00    +0.000 C 
BRANCH  24  25
ATOM     25  O   UNL     1       6.322   6.072  15.427  0.00  0.00    +0.000 OA
BRANCH  25  26
ATOM     26  C   UNL     1       6.314   5.148  14.413  0.00  0.00    +0.000 A 
ATOM     27  C   UNL     1       5.323   4.190  14.180  0.00  0.00    +0.000 A 
ATOM     28  C   UNL     1       5.444   3.289  13.115  0.00  0.00    +0.000 A 
ATOM     29  C   UNL     1       6.557   3.345  12.280  0.00  0.00    +0.000 A 
ATOM     30 CL   UNL     1       6.707   2.232  10.977  0.00  0.00    +0.000 Cl
ATOM     31  C   UNL     1       7.547   4.299  12.497  0.00  0.00    +0.000 A 
ATOM     32  C   UNL     1       7.424   5.197  13.562  0.00  0.00    +0.000 A 
ENDBRANCH  25  26
ENDBRANCH  24  25
ENDBRANCH   2  24
TORSDOF 7
ENDMDL
