MODEL 1
REMARK VINA RESULT:      -7.1      0.000      0.000
REMARK  Name = 
REMARK  6 active torsions:
REMARK  status: ('A' for Active; 'I' for Inactive)
REMARK    1  A    between atoms: C_1  and  O_2
REMARK    2  A    between atoms: O_2  and  C_3
REMARK    3  A    between atoms: C_8  and  O_9
REMARK    4  A    between atoms: O_9  and  C_10
REMARK    5  A    between atoms: C_16  and  O_17
REMARK    6  A    between atoms: N_22  and  C_23
REMARK                            x       y       z     vdW  Elec       q    Type
REMARK                         _______ _______ _______ _____ _____    ______ ____
ROOT
ATOM      1  C   UNL     1       5.166   6.378  16.493  0.00  0.00    +0.000 A 
ATOM      2  C   UNL     1       4.377   7.457  16.926  0.00  0.00    +0.000 A 
ATOM      3  C   UNL     1       3.411   7.258  17.900  0.00  0.00    +0.000 A 
ATOM      4  C   UNL     1       3.213   5.963  18.359  0.00  0.00    +0.000 A 
ATOM      5  C   UNL     1       3.642   4.844  17.580  0.00  0.00    +0.000 A 
ATOM      6  C   UNL     1       4.744   5.055  16.733  0.00  0.00    +0.000 A 
ATOM      7  C   UNL     1       3.059   3.514  18.090  0.00  0.00    +0.000 C 
ATOM      8  C   UNL     1       1.498   3.579  17.840  0.00  0.00    +0.000 C 
ATOM      9  C   UNL     1       0.696   2.626  18.716  0.00  0.00    +0.000 C 
ATOM     10  C   UNL     1       0.952   2.907  20.163  0.00  0.00    +0.000 C 
ATOM     11  O   UNL     1       0.164   2.530  21.036  0.00  0.00    +0.000 OA
ATOM     12  C   UNL     1       2.222   3.670  20.527  0.00  0.00    +0.000 C 
ATOM     13  O   UNL     1       1.935   5.082  20.326  0.00  0.00    +0.000 OA
ATOM     14  C   UNL     1       3.152   5.711  19.882  0.00  0.00    +0.000 C 
ATOM     15  C   UNL     1       4.244   4.665  20.117  0.00  0.00    +0.000 C 
ATOM     16  C   UNL     1       3.471   3.409  19.633  0.00  0.00    +0.000 C 
ATOM     17  N   UNL     1       4.411   2.295  19.660  0.00  0.00    +0.000 NA
ATOM     18  C   UNL     1       4.747   1.686  20.924  0.00  0.00    +0.000 C 
ATOM     19  C   UNL     1       4.133   1.355  18.596  0.00  0.00    +0.000 C 
ATOM     20  C   UNL     1       3.497   2.159  17.477  0.00  0.00    +0.000 C 
ENDROOT
BRANCH   1  22
ATOM     21  C   UNL     1       7.444   6.842  16.913  0.00  0.00    +0.000 C 
ATOM     22  O   UNL     1       6.409   6.618  15.948  0.00  0.00    +0.000 OA
ENDBRANCH   1  22
BRANCH   6  23
ATOM     23  O   UNL     1       5.447   3.932  16.413  0.00  0.00    +0.000 OA
ATOM     24  C   UNL     1       5.879   3.702  15.085  0.00  0.00    +0.000 C 
ENDBRANCH   6  23
BRANCH  12  25
ATOM     25  O   UNL     1       2.501   3.458  21.911  0.00  0.00    +0.000 OA
ATOM     26  H   UNL     1       3.430   3.738  22.030  0.00  0.00    +0.000 HD
ENDBRANCH  12  25
TORSDOF 3
ENDMDL
MODEL 2
REMARK VINA RESULT:      -6.3      1.735      2.365
REMARK  Name = 
REMARK  6 active torsions:
REMARK  status: ('A' for Active; 'I' for Inactive)
REMARK    1  A    between atoms: C_1  and  O_2
REMARK    2  A    between atoms: O_2  and  C_3
REMARK    3  A    between atoms: C_8  and  O_9
REMARK    4  A    between atoms: O_9  and  C_10
REMARK    5  A    between atoms: C_16  and  O_17
REMARK    6  A    between atoms: N_22  and  C_23
REMARK                            x       y       z     vdW  Elec       q    Type
REMARK                         _______ _______ _______ _____ _____    ______ ____
ROOT
ATOM      1  C   UNL     1       6.544   6.514  17.682  0.00  0.00    +0.000 A 
ATOM      2  C   UNL     1       5.753   7.134  16.699  0.00  0.00    +0.000 A 
ATOM      3  C   UNL     1       4.422   6.776  16.558  0.00  0.00    +0.000 A 
ATOM      4  C   UNL     1       3.940   5.750  17.361  0.00  0.00    +0.000 A 
ATOM      5  C   UNL     1       4.840   4.819  17.965  0.00  0.00    +0.000 A 
ATOM      6  C   UNL     1       6.134   5.290  18.248  0.00  0.00    +0.000 A 
ATOM      7  C   UNL     1       4.115   3.588  18.540  0.00  0.00    +0.000 C 
ATOM      8  C   UNL     1       3.518   2.798  17.306  0.00  0.00    +0.000 C 
ATOM      9  C   UNL     1       2.363   1.875  17.670  0.00  0.00    +0.000 C 
ATOM     10  C   UNL     1       1.256   2.652  18.310  0.00  0.00    +0.000 C 
ATOM     11  O   UNL     1       0.104   2.207  18.352  0.00  0.00    +0.000 OA
ATOM     12  C   UNL     1       1.596   4.011  18.916  0.00  0.00    +0.000 C 
ATOM     13  O   UNL     1       1.604   4.968  17.820  0.00  0.00    +0.000 OA
ATOM     14  C   UNL     1       2.609   5.956  18.117  0.00  0.00    +0.000 C 
ATOM     15  C   UNL     1       2.986   5.705  19.580  0.00  0.00    +0.000 C 
ATOM     16  C   UNL     1       3.012   4.154  19.551  0.00  0.00    +0.000 C 
ATOM     17  N   UNL     1       3.487   3.714  20.857  0.00  0.00    +0.000 NA
ATOM     18  C   UNL     1       2.588   3.746  21.985  0.00  0.00    +0.000 C 
ATOM     19  C   UNL     1       4.262   2.496  20.743  0.00  0.00    +0.000 C 
ATOM     20  C   UNL     1       4.880   2.516  19.357  0.00  0.00    +0.000 C 
ENDROOT
BRANCH   1  22
ATOM     21  C   UNL     1       7.858   8.476  17.635  0.00  0.00    +0.000 C 
ATOM     22  O   UNL     1       7.653   7.166  18.177  0.00  0.00    +0.000 OA
ENDBRANCH   1  22
BRANCH   6  23
ATOM     23  O   UNL     1       6.784   4.624  19.244  0.00  0.00    +0.000 OA
ATOM     24  C   UNL     1       7.772   5.271  20.023  0.00  0.00    +0.000 C 
ENDBRANCH   6  23
BRANCH  12  25
ATOM     25  O   UNL     1       0.560   4.376  19.827  0.00  0.00    +0.000 OA
ATOM     26  H   UNL     1      -0.162   4.723  19.266  0.00  0.00    +0.000 HD
ENDBRANCH  12  25
TORSDOF 3
ENDMDL
MODEL 3
REMARK VINA RESULT:      -6.2      2.120      4.288
REMARK  Name = 
REMARK  6 active torsions:
REMARK  status: ('A' for Active; 'I' for Inactive)
REMARK    1  A    between atoms: C_1  and  O_2
REMARK    2  A    between atoms: O_2  and  C_3
REMARK    3  A    between atoms: C_8  and  O_9
REMARK    4  A    between atoms: O_9  and  C_10
REMARK    5  A    between atoms: C_16  and  O_17
REMARK    6  A    between atoms: N_22  and  C_23
REMARK                            x       y       z     vdW  Elec       q    Type
REMARK                         _______ _______ _______ _____ _____    ______ ____
ROOT
ATOM      1  C   UNL     1       2.508   8.162  18.399  0.00  0.00    +0.000 A 
ATOM      2  C   UNL     1       3.497   8.123  17.402  0.00  0.00    +0.000 A 
ATOM      3  C   UNL     1       4.072   6.912  17.047  0.00  0.00    +0.000 A 
ATOM      4  C   UNL     1       3.689   5.782  17.759  0.00  0.00    +0.000 A 
ATOM      5  C   UNL     1       3.096   5.907  19.052  0.00  0.00    +0.000 A 
ATOM      6  C   UNL     1       2.372   7.086  19.300  0.00  0.00    +0.000 A 
ATOM      7  C   UNL     1       3.039   4.565  19.805  0.00  0.00    +0.000 C 
ATOM      8  C   UNL     1       4.536   4.153  20.109  0.00  0.00    +0.000 C 
ATOM      9  C   UNL     1       4.721   2.664  20.368  0.00  0.00    +0.000 C 
ATOM     10  C   UNL     1       4.244   1.867  19.195  0.00  0.00    +0.000 C 
ATOM     11  O   UNL     1       4.619   0.703  19.018  0.00  0.00    +0.000 OA
ATOM     12  C   UNL     1       3.271   2.535  18.227  0.00  0.00    +0.000 C 
ATOM     13  O   UNL     1       4.072   3.345  17.322  0.00  0.00    +0.000 OA
ATOM     14  C   UNL     1       3.295   4.508  16.980  0.00  0.00    +0.000 C 
ATOM     15  C   UNL     1       1.884   4.200  17.488  0.00  0.00    +0.000 C 
ATOM     16  C   UNL     1       2.261   3.549  18.844  0.00  0.00    +0.000 C 
ATOM     17  N   UNL     1       1.014   3.293  19.554  0.00  0.00    +0.000 NA
ATOM     18  C   UNL     1       0.196   2.170  19.165  0.00  0.00    +0.000 C 
ATOM     19  C   UNL     1       1.192   3.438  20.983  0.00  0.00    +0.000 C 
ATOM     20  C   UNL     1       2.315   4.441  21.170  0.00  0.00    +0.000 C 
ENDROOT
BRANCH   1  22
ATOM     21  C   UNL     1       2.143  10.472  18.070  0.00  0.00    +0.000 C 
ATOM     22  O   UNL     1       1.595   9.194  18.414  0.00  0.00    +0.000 OA
ENDBRANCH   1  22
BRANCH   6  23
ATOM     23  O   UNL     1       1.419   6.984  20.270  0.00  0.00    +0.000 OA
ATOM     24  C   UNL     1       1.256   8.006  21.236  0.00  0.00    +0.000 C 
ENDBRANCH   6  23
BRANCH  12  25
ATOM     25  O   UNL     1       2.616   1.521  17.466  0.00  0.00    +0.000 OA
ATOM     26  H   UNL     1       3.272   0.800  17.384  0.00  0.00    +0.000 HD
ENDBRANCH  12  25
TORSDOF 3
ENDMDL
MODEL 4
REMARK VINA RESULT:      -6.0      1.888      5.761
REMARK  Name = 
REMARK  6 active torsions:
REMARK  status: ('A' for Active; 'I' for Inactive)
REMARK    1  A    between atoms: C_1  and  O_2
REMARK    2  A    between atoms: O_2  and  C_3
REMARK    3  A    between atoms: C_8  and  O_9
REMARK    4  A    between atoms: O_9  and  C_10
REMARK    5  A    between atoms: C_16  and  O_17
REMARK    6  A    between atoms: N_22  and  C_23
REMARK                            x       y       z     vdW  Elec       q    Type
REMARK                         _______ _______ _______ _____ _____    ______ ____
ROOT
ATOM      1  C   UNL     1       1.705   4.396  19.106  0.00  0.00    +0.000 A 
ATOM      2  C   UNL     1       1.541   3.218  18.357  0.00  0.00    +0.000 A 
ATOM      3  C   UNL     1       2.511   2.840  17.443  0.00  0.00    +0.000 A 
ATOM      4  C   UNL     1       3.588   3.697  17.252  0.00  0.00    +0.000 A 
ATOM      5  C   UNL     1       3.493   5.073  17.622  0.00  0.00    +0.000 A 
ATOM      6  C   UNL     1       2.619   5.381  18.678  0.00  0.00    +0.000 A 
ATOM      7  C   UNL     1       4.646   5.918  17.048  0.00  0.00    +0.000 C 
ATOM      8  C   UNL     1       4.460   5.928  15.477  0.00  0.00    +0.000 C 
ATOM      9  C   UNL     1       5.736   6.251  14.711  0.00  0.00    +0.000 C 
ATOM     10  C   UNL     1       6.811   5.266  15.049  0.00  0.00    +0.000 C 
ATOM     11  O   UNL     1       7.783   5.099  14.305  0.00  0.00    +0.000 OA
ATOM     12  C   UNL     1       6.672   4.478  16.349  0.00  0.00    +0.000 C 
ATOM     13  O   UNL     1       5.773   3.368  16.071  0.00  0.00    +0.000 OA
ATOM     14  C   UNL     1       5.018   3.114  17.271  0.00  0.00    +0.000 C 
ATOM     15  C   UNL     1       5.723   3.928  18.359  0.00  0.00    +0.000 C 
ATOM     16  C   UNL     1       5.998   5.218  17.543  0.00  0.00    +0.000 C 
ATOM     17  N   UNL     1       6.567   6.191  18.467  0.00  0.00    +0.000 NA
ATOM     18  C   UNL     1       7.949   6.065  18.862  0.00  0.00    +0.000 C 
ATOM     19  C   UNL     1       6.165   7.537  18.117  0.00  0.00    +0.000 C 
ATOM     20  C   UNL     1       4.816   7.410  17.432  0.00  0.00    +0.000 C 
ENDROOT
BRANCH   1  22
ATOM     21  C   UNL     1       1.423   3.529  21.285  0.00  0.00    +0.000 C 
ATOM     22  O   UNL     1       1.068   4.527  20.320  0.00  0.00    +0.000 OA
ENDBRANCH   1  22
BRANCH   6  23
ATOM     23  O   UNL     1       2.906   6.534  19.346  0.00  0.00    +0.000 OA
ATOM     24  C   UNL     1       1.982   7.606  19.373  0.00  0.00    +0.000 C 
ENDBRANCH   6  23
BRANCH  12  25
ATOM     25  O   UNL     1       7.950   3.948  16.699  0.00  0.00    +0.000 OA
ATOM     26  H   UNL     1       7.834   3.575  17.596  0.00  0.00    +0.000 HD
ENDBRANCH  12  25
TORSDOF 3
ENDMDL
MODEL 5
REMARK VINA RESULT:      -5.8      9.873     13.229
REMARK  Name = 
REMARK  6 active torsions:
REMARK  status: ('A' for Active; 'I' for Inactive)
REMARK    1  A    between atoms: C_1  and  O_2
REMARK    2  A    between atoms: O_2  and  C_3
REMARK    3  A    between atoms: C_8  and  O_9
REMARK    4  A    between atoms: O_9  and  C_10
REMARK    5  A    between atoms: C_16  and  O_17
REMARK    6  A    between atoms: N_22  and  C_23
REMARK                            x       y       z     vdW  Elec       q    Type
REMARK                         _______ _______ _______ _____ _____    ______ ____
ROOT
ATOM      1  C   UNL     1       7.974  13.170  22.097  0.00  0.00    +0.000 A 
ATOM      2  C   UNL     1       7.156  14.312  22.158  0.00  0.00    +0.000 A 
ATOM      3  C   UNL     1       7.416  15.392  21.330  0.00  0.00    +0.000 A 
ATOM      4  C   UNL     1       8.539  15.326  20.514  0.00  0.00    +0.000 A 
ATOM      5  C   UNL     1       9.603  14.423  20.818  0.00  0.00    +0.000 A 
ATOM      6  C   UNL     1       9.254  13.251  21.511  0.00  0.00    +0.000 A 
ATOM      7  C   UNL     1      10.876  14.717  20.003  0.00  0.00    +0.000 C 
ATOM      8  C   UNL     1      11.413  16.122  20.493  0.00  0.00    +0.000 C 
ATOM      9  C   UNL     1      12.324  16.814  19.490  0.00  0.00    +0.000 C 
ATOM     10  C   UNL     1      11.613  17.012  18.188  0.00  0.00    +0.000 C 
ATOM     11  O   UNL     1      11.999  17.853  17.370  0.00  0.00    +0.000 OA
ATOM     12  C   UNL     1      10.396  16.137  17.901  0.00  0.00    +0.000 C 
ATOM     13  O   UNL     1       9.268  16.750  18.585  0.00  0.00    +0.000 OA
ATOM     14  C   UNL     1       8.398  15.687  19.019  0.00  0.00    +0.000 C 
ATOM     15  C   UNL     1       8.912  14.439  18.298  0.00  0.00    +0.000 C 
ATOM     16  C   UNL     1      10.435  14.685  18.465  0.00  0.00    +0.000 C 
ATOM     17  N   UNL     1      11.115  13.508  17.939  0.00  0.00    +0.000 NA
ATOM     18  C   UNL     1      11.229  13.337  16.511  0.00  0.00    +0.000 C 
ATOM     19  C   UNL     1      12.333  13.241  18.674  0.00  0.00    +0.000 C 
ATOM     20  C   UNL     1      12.109  13.781  20.074  0.00  0.00    +0.000 C 
ENDROOT
BRANCH   1  22
ATOM     21  C   UNL     1       6.447  12.030  23.491  0.00  0.00    +0.000 C 
ATOM     22  O   UNL     1       7.473  11.950  22.495  0.00  0.00    +0.000 OA
ENDBRANCH   1  22
BRANCH   6  23
ATOM     23  O   UNL     1      10.112  12.205  21.344  0.00  0.00    +0.000 OA
ATOM     24  C   UNL     1       9.802  11.147  20.457  0.00  0.00    +0.000 C 
ENDBRANCH   6  23
BRANCH  12  25
ATOM     25  O   UNL     1      10.139  16.160  16.497  0.00  0.00    +0.000 OA
ATOM     26  H   UNL     1      10.730  16.854  16.141  0.00  0.00    +0.000 HD
ENDBRANCH  12  25
TORSDOF 3
ENDMDL
MODEL 6
REMARK VINA RESULT:      -5.6      8.294     10.854
REMARK  Name = 
REMARK  6 active torsions:
REMARK  status: ('A' for Active; 'I' for Inactive)
REMARK    1  A    between atoms: C_1  and  O_2
REMARK    2  A    between atoms: O_2  and  C_3
REMARK    3  A    between atoms: C_8  and  O_9
REMARK    4  A    between atoms: O_9  and  C_10
REMARK    5  A    between atoms: C_16  and  O_17
REMARK    6  A    between atoms: N_22  and  C_23
REMARK                            x       y       z     vdW  Elec       q    Type
REMARK                         _______ _______ _______ _____ _____    ______ ____
ROOT
ATOM      1  C   UNL     1      -4.528  11.548  18.176  0.00  0.00    +0.000 A 
ATOM      2  C   UNL     1      -3.749  11.431  17.012  0.00  0.00    +0.000 A 
ATOM      3  C   UNL     1      -2.367  11.499  17.097  0.00  0.00    +0.000 A 
ATOM      4  C   UNL     1      -1.808  11.757  18.342  0.00  0.00    +0.000 A 
ATOM      5  C   UNL     1      -2.589  12.357  19.377  0.00  0.00    +0.000 A 
ATOM      6  C   UNL     1      -3.972  12.111  19.343  0.00  0.00    +0.000 A 
ATOM      7  C   UNL     1      -1.727  12.852  20.553  0.00  0.00    +0.000 C 
ATOM      8  C   UNL     1      -0.845  14.042  19.998  0.00  0.00    +0.000 C 
ATOM      9  C   UNL     1       0.405  14.315  20.822  0.00  0.00    +0.000 C 
ATOM     10  C   UNL     1       1.262  13.090  20.892  0.00  0.00    +0.000 C 
ATOM     11  O   UNL     1       2.462  13.163  21.178  0.00  0.00    +0.000 OA
ATOM     12  C   UNL     1       0.603  11.743  20.605  0.00  0.00    +0.000 C 
ATOM     13  O   UNL     1       0.556  11.600  19.158  0.00  0.00    +0.000 OA
ATOM     14  C   UNL     1      -0.643  10.871  18.835  0.00  0.00    +0.000 C 
ATOM     15  C   UNL     1      -1.147  10.330  20.176  0.00  0.00    +0.000 C 
ATOM     16  C   UNL     1      -0.882  11.586  21.048  0.00  0.00    +0.000 C 
ATOM     17  N   UNL     1      -1.427  11.307  22.371  0.00  0.00    +0.000 NA
ATOM     18  C   UNL     1      -0.697  10.446  23.269  0.00  0.00    +0.000 C 
ATOM     19  C   UNL     1      -1.944  12.512  22.983  0.00  0.00    +0.000 C 
ATOM     20  C   UNL     1      -2.377  13.415  21.843  0.00  0.00    +0.000 C 
ENDROOT
BRANCH   1  22
ATOM     21  C   UNL     1      -6.825  11.863  17.728  0.00  0.00    +0.000 C 
ATOM     22  O   UNL     1      -5.791  10.997  18.209  0.00  0.00    +0.000 OA
ENDBRANCH   1  22
BRANCH   6  23
ATOM     23  O   UNL     1      -4.608  12.225  20.543  0.00  0.00    +0.000 OA
ATOM     24  C   UNL     1      -5.579  13.233  20.756  0.00  0.00    +0.000 C 
ENDBRANCH   6  23
BRANCH  12  25
ATOM     25  O   UNL     1       1.433  10.708  21.134  0.00  0.00    +0.000 OA
ATOM     26  H   UNL     1       2.036  10.466  20.403  0.00  0.00    +0.000 HD
ENDBRANCH  12  25
TORSDOF 3
ENDMDL
MODEL 7
REMARK VINA RESULT:      -5.6      0.993      1.146
REMARK  Name = 
REMARK  6 active torsions:
REMARK  status: ('A' for Active; 'I' for Inactive)
REMARK    1  A    between atoms: C_1  and  O_2
REMARK    2  A    between atoms: O_2  and  C_3
REMARK    3  A    between atoms: C_8  and  O_9
REMARK    4  A    between atoms: O_9  and  C_10
REMARK    5  A    between atoms: C_16  and  O_17
REMARK    6  A    between atoms: N_22  and  C_23
REMARK                            x       y       z     vdW  Elec       q    Type
REMARK                         _______ _______ _______ _____ _____    ______ ____
ROOT
ATOM      1  C   UNL     1       6.072   5.782  15.870  0.00  0.00    +0.000 A 
ATOM      2  C   UNL     1       5.571   7.063  16.159  0.00  0.00    +0.000 A 
ATOM      3  C   UNL     1       4.591   7.220  17.126  0.00  0.00    +0.000 A 
ATOM      4  C   UNL     1       4.087   6.073  17.726  0.00  0.00    +0.000 A 
ATOM      5  C   UNL     1       4.226   4.802  17.092  0.00  0.00    +0.000 A 
ATOM      6  C   UNL     1       5.341   4.638  16.251  0.00  0.00    +0.000 A 
ATOM      7  C   UNL     1       3.340   3.721  17.737  0.00  0.00    +0.000 C 
ATOM      8  C   UNL     1       1.840   4.133  17.445  0.00  0.00    +0.000 C 
ATOM      9  C   UNL     1       0.836   3.511  18.406  0.00  0.00    +0.000 C 
ATOM     10  C   UNL     1       1.161   3.890  19.817  0.00  0.00    +0.000 C 
ATOM     11  O   UNL     1       0.309   3.820  20.710  0.00  0.00    +0.000 OA
ATOM     12  C   UNL     1       2.581   4.359  20.120  0.00  0.00    +0.000 C 
ATOM     13  O   UNL     1       2.645   5.765  19.752  0.00  0.00    +0.000 OA
ATOM     14  C   UNL     1       3.975   6.025  19.266  0.00  0.00    +0.000 C 
ATOM     15  C   UNL     1       4.781   4.779  19.645  0.00  0.00    +0.000 C 
ATOM     16  C   UNL     1       3.723   3.701  19.290  0.00  0.00    +0.000 C 
ATOM     17  N   UNL     1       4.364   2.403  19.467  0.00  0.00    +0.000 NA
ATOM     18  C   UNL     1       4.549   1.883  20.800  0.00  0.00    +0.000 C 
ATOM     19  C   UNL     1       3.859   1.441  18.512  0.00  0.00    +0.000 C 
ATOM     20  C   UNL     1       3.431   2.238  17.294  0.00  0.00    +0.000 C 
ENDROOT
BRANCH   1  22
ATOM     21  C   UNL     1       7.347   5.400  13.919  0.00  0.00    +0.000 C 
ATOM     22  O   UNL     1       7.332   5.648  15.330  0.00  0.00    +0.000 OA
ENDBRANCH   1  22
BRANCH   6  23
ATOM     23  O   UNL     1       5.748   3.349  16.078  0.00  0.00    +0.000 OA
ATOM     24  C   UNL     1       5.744   2.754  14.793  0.00  0.00    +0.000 C 
ENDBRANCH   6  23
BRANCH  12  25
ATOM     25  O   UNL     1       2.807   4.250  21.526  0.00  0.00    +0.000 OA
ATOM     26  H   UNL     1       2.976   3.299  21.683  0.00  0.00    +0.000 HD
ENDBRANCH  12  25
TORSDOF 3
ENDMDL
MODEL 8
REMARK VINA RESULT:      -5.5     10.038     12.977
REMARK  Name = 
REMARK  6 active torsions:
REMARK  status: ('A' for Active; 'I' for Inactive)
REMARK    1  A    between atoms: C_1  and  O_2
REMARK    2  A    between atoms: O_2  and  C_3
REMARK    3  A    between atoms: C_8  and  O_9
REMARK    4  A    between atoms: O_9  and  C_10
REMARK    5  A    between atoms: C_16  and  O_17
REMARK    6  A    between atoms: N_22  and  C_23
REMARK                            x       y       z     vdW  Elec       q    Type
REMARK                         _______ _______ _______ _____ _____    ______ ____
ROOT
ATOM      1  C   UNL     1       8.321  14.471  23.738  0.00  0.00    +0.000 A 
ATOM      2  C   UNL     1       8.101  15.859  23.746  0.00  0.00    +0.000 A 
ATOM      3  C   UNL     1       8.322  16.600  22.596  0.00  0.00    +0.000 A 
ATOM      4  C   UNL     1       8.830  15.936  21.488  0.00  0.00    +0.000 A 
ATOM      5  C   UNL     1       9.505  14.686  21.638  0.00  0.00    +0.000 A 
ATOM      6  C   UNL     1       9.116  13.890  22.729  0.00  0.00    +0.000 A 
ATOM      7  C   UNL     1      10.266  14.271  20.365  0.00  0.00    +0.000 C 
ATOM      8  C   UNL     1      11.437  15.318  20.177  0.00  0.00    +0.000 C 
ATOM      9  C   UNL     1      11.963  15.399  18.751  0.00  0.00    +0.000 C 
ATOM     10  C   UNL     1      10.859  15.755  17.806  0.00  0.00    +0.000 C 
ATOM     11  O   UNL     1      11.100  16.228  16.690  0.00  0.00    +0.000 OA
ATOM     12  C   UNL     1       9.424  15.509  18.262  0.00  0.00    +0.000 C 
ATOM     13  O   UNL     1       9.048  16.642  19.093  0.00  0.00    +0.000 OA
ATOM     14  C   UNL     1       8.158  16.153  20.114  0.00  0.00    +0.000 C 
ATOM     15  C   UNL     1       7.789  14.736  19.668  0.00  0.00    +0.000 C 
ATOM     16  C   UNL     1       9.188  14.274  19.182  0.00  0.00    +0.000 C 
ATOM     17  N   UNL     1       9.070  12.865  18.825  0.00  0.00    +0.000 NA
ATOM     18  C   UNL     1       8.441  12.503  17.578  0.00  0.00    +0.000 C 
ATOM     19  C   UNL     1      10.298  12.153  19.107  0.00  0.00    +0.000 C 
ATOM     20  C   UNL     1      10.958  12.888  20.259  0.00  0.00    +0.000 C 
ENDROOT
BRANCH   1  22
ATOM     21  C   UNL     1       8.367  13.440  25.862  0.00  0.00    +0.000 C 
ATOM     22  O   UNL     1       7.656  13.669  24.640  0.00  0.00    +0.000 OA
ENDBRANCH   1  22
BRANCH   6  23
ATOM     23  O   UNL     1       9.355  12.556  22.583  0.00  0.00    +0.000 OA
ATOM     24  C   UNL     1       8.300  11.658  22.292  0.00  0.00    +0.000 C 
ENDBRANCH   6  23
BRANCH  12  25
ATOM     25  O   UNL     1       8.577  15.491  17.113  0.00  0.00    +0.000 OA
ATOM     26  H   UNL     1       7.684  15.286  17.458  0.00  0.00    +0.000 HD
ENDBRANCH  12  25
TORSDOF 3
ENDMDL
MODEL 9
REMARK VINA RESULT:      -5.4     10.176     12.320
REMARK  Name = 
REMARK  6 active torsions:
REMARK  status: ('A' for Active; 'I' for Inactive)
REMARK    1  A    between atoms: C_1  and  O_2
REMARK    2  A    between atoms: O_2  and  C_3
REMARK    3  A    between atoms: C_8  and  O_9
REMARK    4  A    between atoms: O_9  and  C_10
REMARK    5  A    between atoms: C_16  and  O_17
REMARK    6  A    between atoms: N_22  and  C_23
REMARK                            x       y       z     vdW  Elec       q    Type
REMARK                         _______ _______ _______ _____ _____    ______ ____
ROOT
ATOM      1  C   UNL     1      -0.751  11.036  20.694  0.00  0.00    +0.000 A 
ATOM      2  C   UNL     1      -0.561  10.403  21.934  0.00  0.00    +0.000 A 
ATOM      3  C   UNL     1      -1.134  10.938  23.077  0.00  0.00    +0.000 A 
ATOM      4  C   UNL     1      -1.820  12.139  22.955  0.00  0.00    +0.000 A 
ATOM      5  C   UNL     1      -1.582  13.000  21.840  0.00  0.00    +0.000 A 
ATOM      6  C   UNL     1      -1.168  12.382  20.647  0.00  0.00    +0.000 A 
ATOM      7  C   UNL     1      -2.183  14.403  22.041  0.00  0.00    +0.000 C 
ATOM      8  C   UNL     1      -1.377  15.076  23.224  0.00  0.00    +0.000 C 
ATOM      9  C   UNL     1      -2.124  16.213  23.907  0.00  0.00    +0.000 C 
ATOM     10  C   UNL     1      -3.433  15.727  24.447  0.00  0.00    +0.000 C 
ATOM     11  O   UNL     1      -4.028  16.348  25.334  0.00  0.00    +0.000 OA
ATOM     12  C   UNL     1      -4.013  14.443  23.861  0.00  0.00    +0.000 C 
ATOM     13  O   UNL     1      -3.350  13.338  24.537  0.00  0.00    +0.000 OA
ATOM     14  C   UNL     1      -3.224  12.264  23.586  0.00  0.00    +0.000 C 
ATOM     15  C   UNL     1      -4.111  12.676  22.408  0.00  0.00    +0.000 C 
ATOM     16  C   UNL     1      -3.737  14.180  22.350  0.00  0.00    +0.000 C 
ATOM     17  N   UNL     1      -4.402  14.738  21.179  0.00  0.00    +0.000 NA
ATOM     18  C   UNL     1      -5.816  15.022  21.238  0.00  0.00    +0.000 C 
ATOM     19  C   UNL     1      -3.605  15.787  20.580  0.00  0.00    +0.000 C 
ATOM     20  C   UNL     1      -2.159  15.456  20.904  0.00  0.00    +0.000 C 
ENDROOT
BRANCH   1  22
ATOM     21  C   UNL     1       0.688   9.936  19.179  0.00  0.00    +0.000 C 
ATOM     22  O   UNL     1      -0.651  10.304  19.531  0.00  0.00    +0.000 OA
ENDBRANCH   1  22
BRANCH   6  23
ATOM     23  O   UNL     1      -1.439  13.085  19.511  0.00  0.00    +0.000 OA
ATOM     24  C   UNL     1      -0.397  13.487  18.641  0.00  0.00    +0.000 C 
ENDBRANCH   6  23
BRANCH  12  25
ATOM     25  O   UNL     1      -5.406  14.390  24.169  0.00  0.00    +0.000 OA
ATOM     26  H   UNL     1      -5.854  14.286  23.306  0.00  0.00    +0.000 HD
ENDBRANCH  12  25
TORSDOF 3
ENDMDL
