MODEL 1
REMARK VINA RESULT:      -8.4      0.000      0.000
REMARK  Name = 
REMARK  14 active torsions:
REMARK  status: ('A' for Active; 'I' for Inactive)
REMARK    1  A    between atoms: C_5  and  O_6
REMARK    2  A    between atoms: C_5  and  C_7
REMARK    3  A    between atoms: C_7  and  C_8
REMARK    4  A    between atoms: C_8  and  O_9
REMARK    5  A    between atoms: O_9  and  C_10
REMARK    6  A    between atoms: C_12  and  C_13
REMARK    7  A    between atoms: C_13  and  O_14
REMARK    8  A    between atoms: O_14  and  C_15
REMARK    9  A    between atoms: C_15  and  C_17
REMARK   10  A    between atoms: C_18  and  C_19
REMARK   11  A    between atoms: C_22  and  O_23
REMARK   12  A    between atoms: C_26  and  O_27
REMARK   13  A    between atoms: C_28  and  O_29
REMARK   14  A    between atoms: C_30  and  O_31
REMARK                            x       y       z     vdW  Elec       q    Type
REMARK                         _______ _______ _______ _____ _____    ______ ____
ROOT
ATOM      1  C   UNL     1       2.785   5.601  20.048  0.00  0.00    +0.000 C 
ATOM      2  O   UNL     1       3.963   5.716  19.242  0.00  0.00    +0.000 OA
ATOM      3  C   UNL     1       4.863   4.613  19.382  0.00  0.00    +0.000 C 
ATOM      4  C   UNL     1       4.188   3.292  18.968  0.00  0.00    +0.000 C 
ATOM      5  C   UNL     1       2.863   3.121  19.714  0.00  0.00    +0.000 C 
ATOM      6  C   UNL     1       1.974   4.359  19.590  0.00  0.00    +0.000 C 
ENDROOT
BRANCH   4   7
ATOM      7  O   UNL     1       5.033   2.168  19.233  0.00  0.00    +0.000 OA
ATOM      8  H   UNL     1       4.662   1.385  18.789  0.00  0.00    +0.000 HD
ENDBRANCH   4   7
BRANCH   5   9
ATOM      9  O   UNL     1       2.168   1.952  19.263  0.00  0.00    +0.000 OA
ATOM     10  H   UNL     1       1.386   1.826  19.830  0.00  0.00    +0.000 HD
ENDBRANCH   5   9
BRANCH   6  11
ATOM     11  O   UNL     1       0.787   4.117  20.362  0.00  0.00    +0.000 OA
ATOM     12  H   UNL     1       0.333   4.961  20.524  0.00  0.00    +0.000 HD
ENDBRANCH   6  11
BRANCH   1  13
ATOM     13  O   UNL     1       2.082   6.833  19.905  0.00  0.00    +0.000 OA
BRANCH  13  14
ATOM     14  C   UNL     1       1.534   7.342  21.110  0.00  0.00    +0.000 C 
BRANCH  14  15
ATOM     15  C   UNL     1       0.573   8.486  20.836  0.00  0.00    +0.000 C 
BRANCH  15  20
ATOM     16  O   UNL     1      -1.639  12.966  22.837  0.00  0.00    +0.000 OA
ATOM     17  C   UNL     1      -0.975  11.988  22.519  0.00  0.00    +0.000 C 
ATOM     18  C   UNL     1       0.025  12.059  21.432  0.00  0.00    +0.000 C 
ATOM     19  C   UNL     1       0.794  11.002  21.137  0.00  0.00    +0.000 C 
ATOM     20  C   UNL     1       0.706   9.663  21.828  0.00  0.00    +0.000 C 
ATOM     21  C   UNL     1      -0.376   9.637  22.879  0.00  0.00    +0.000 C 
ATOM     22  C   UNL     1      -1.152  10.685  23.195  0.00  0.00    +0.000 C 
BRANCH  20  23
ATOM     23  O   UNL     1       1.927   9.468  22.536  0.00  0.00    +0.000 OA
ATOM     24  H   UNL     1       2.651   9.545  21.893  0.00  0.00    +0.000 HD
ENDBRANCH  20  23
ENDBRANCH  15  20
ENDBRANCH  14  15
ENDBRANCH  13  14
ENDBRANCH   1  13
BRANCH   3  25
ATOM     25  C   UNL     1       6.106   4.913  18.522  0.00  0.00    +0.000 C 
BRANCH  25  26
ATOM     26  O   UNL     1       6.505   6.286  18.567  0.00  0.00    +0.000 OA
BRANCH  26  27
ATOM     27  C   UNL     1       7.396   6.652  17.619  0.00  0.00    +0.000 C 
ATOM     28  O   UNL     1       7.472   6.204  16.482  0.00  0.00    +0.000 OA
BRANCH  27  29
ATOM     29  C   UNL     1       8.230   7.730  18.166  0.00  0.00    +0.000 C 
ATOM     30  C   UNL     1       7.933   9.007  17.880  0.00  0.00    +0.000 C 
BRANCH  30  31
ATOM     31  C   UNL     1       8.690  10.160  18.381  0.00  0.00    +0.000 A 
ATOM     32  C   UNL     1       8.742  11.378  17.685  0.00  0.00    +0.000 A 
ATOM     33  C   UNL     1       9.440  12.469  18.211  0.00  0.00    +0.000 A 
ATOM     34  C   UNL     1      10.080  12.343  19.436  0.00  0.00    +0.000 A 
ATOM     35  C   UNL     1      10.033  11.150  20.156  0.00  0.00    +0.000 A 
ATOM     36  C   UNL     1       9.330  10.061  19.623  0.00  0.00    +0.000 A 
BRANCH  34  37
ATOM     37  O   UNL     1      10.769  13.385  19.984  0.00  0.00    +0.000 OA
ATOM     38  H   UNL     1      11.594  13.509  19.482  0.00  0.00    +0.000 HD
ENDBRANCH  34  37
ENDBRANCH  30  31
ENDBRANCH  27  29
ENDBRANCH  26  27
ENDBRANCH  25  26
ENDBRANCH   3  25
TORSDOF 14
ENDMDL
MODEL 2
REMARK VINA RESULT:      -8.3      1.497      2.202
REMARK  Name = 
REMARK  14 active torsions:
REMARK  status: ('A' for Active; 'I' for Inactive)
REMARK    1  A    between atoms: C_5  and  O_6
REMARK    2  A    between atoms: C_5  and  C_7
REMARK    3  A    between atoms: C_7  and  C_8
REMARK    4  A    between atoms: C_8  and  O_9
REMARK    5  A    between atoms: O_9  and  C_10
REMARK    6  A    between atoms: C_12  and  C_13
REMARK    7  A    between atoms: C_13  and  O_14
REMARK    8  A    between atoms: O_14  and  C_15
REMARK    9  A    between atoms: C_15  and  C_17
REMARK   10  A    between atoms: C_18  and  C_19
REMARK   11  A    between atoms: C_22  and  O_23
REMARK   12  A    between atoms: C_26  and  O_27
REMARK   13  A    between atoms: C_28  and  O_29
REMARK   14  A    between atoms: C_30  and  O_31
REMARK                            x       y       z     vdW  Elec       q    Type
REMARK                         _______ _______ _______ _____ _____    ______ ____
ROOT
ATOM      1  C   UNL     1       2.819   5.930  19.985  0.00  0.00    +0.000 C 
ATOM      2  O   UNL     1       4.045   6.040  19.252  0.00  0.00    +0.000 OA
ATOM      3  C   UNL     1       4.951   4.957  19.485  0.00  0.00    +0.000 C 
ATOM      4  C   UNL     1       4.324   3.613  19.070  0.00  0.00    +0.000 C 
ATOM      5  C   UNL     1       2.955   3.442  19.734  0.00  0.00    +0.000 C 
ATOM      6  C   UNL     1       2.058   4.661  19.515  0.00  0.00    +0.000 C 
ENDROOT
BRANCH   4   7
ATOM      7  O   UNL     1       5.166   2.512  19.425  0.00  0.00    +0.000 OA
ATOM      8  H   UNL     1       6.087   2.824  19.474  0.00  0.00    +0.000 HD
ENDBRANCH   4   7
BRANCH   5   9
ATOM      9  O   UNL     1       2.309   2.249  19.277  0.00  0.00    +0.000 OA
ATOM     10  H   UNL     1       2.722   1.488  19.724  0.00  0.00    +0.000 HD
ENDBRANCH   5   9
BRANCH   6  11
ATOM     11  O   UNL     1       0.828   4.423  20.216  0.00  0.00    +0.000 OA
ATOM     12  H   UNL     1       0.753   3.476  20.420  0.00  0.00    +0.000 HD
ENDBRANCH   6  11
BRANCH   1  13
ATOM     13  O   UNL     1       2.108   7.144  19.758  0.00  0.00    +0.000 OA
BRANCH  13  14
ATOM     14  C   UNL     1       1.963   7.497  18.392  0.00  0.00    +0.000 C 
BRANCH  14  15
ATOM     15  C   UNL     1       2.383   8.936  18.149  0.00  0.00    +0.000 C 
BRANCH  15  20
ATOM     16  O   UNL     1       1.039  12.985  21.431  0.00  0.00    +0.000 OA
ATOM     17  C   UNL     1       1.150  12.095  20.597  0.00  0.00    +0.000 C 
ATOM     18  C   UNL     1       0.722  10.710  20.890  0.00  0.00    +0.000 C 
ATOM     19  C   UNL     1       0.785   9.758  19.949  0.00  0.00    +0.000 C 
ATOM     20  C   UNL     1       1.312   9.975  18.552  0.00  0.00    +0.000 C 
ATOM     21  C   UNL     1       1.792  11.389  18.338  0.00  0.00    +0.000 C 
ATOM     22  C   UNL     1       1.732  12.358  19.264  0.00  0.00    +0.000 C 
BRANCH  20  23
ATOM     23  O   UNL     1       0.217   9.806  17.653  0.00  0.00    +0.000 OA
ATOM     24  H   UNL     1      -0.408  10.530  17.819  0.00  0.00    +0.000 HD
ENDBRANCH  20  23
ENDBRANCH  15  20
ENDBRANCH  14  15
ENDBRANCH  13  14
ENDBRANCH   1  13
BRANCH   3  25
ATOM     25  C   UNL     1       6.241   5.251  18.697  0.00  0.00    +0.000 C 
BRANCH  25  26
ATOM     26  O   UNL     1       6.196   6.489  17.980  0.00  0.00    +0.000 OA
BRANCH  26  27
ATOM     27  C   UNL     1       7.320   6.795  17.297  0.00  0.00    +0.000 C 
ATOM     28  O   UNL     1       7.657   6.339  16.212  0.00  0.00    +0.000 OA
BRANCH  27  29
ATOM     29  C   UNL     1       8.052   7.819  18.054  0.00  0.00    +0.000 C 
ATOM     30  C   UNL     1       7.975   9.103  17.674  0.00  0.00    +0.000 C 
BRANCH  30  31
ATOM     31  C   UNL     1       8.653  10.207  18.363  0.00  0.00    +0.000 A 
ATOM     32  C   UNL     1       9.296  10.034  19.598  0.00  0.00    +0.000 A 
ATOM     33  C   UNL     1       9.967  11.098  20.207  0.00  0.00    +0.000 A 
ATOM     34  C   UNL     1      10.000  12.334  19.577  0.00  0.00    +0.000 A 
ATOM     35  C   UNL     1       9.383  12.532  18.342  0.00  0.00    +0.000 A 
ATOM     36  C   UNL     1       8.713  11.459  17.737  0.00  0.00    +0.000 A 
BRANCH  34  37
ATOM     37  O   UNL     1      10.646  13.397  20.137  0.00  0.00    +0.000 OA
ATOM     38  H   UNL     1      11.605  13.244  20.073  0.00  0.00    +0.000 HD
ENDBRANCH  34  37
ENDBRANCH  30  31
ENDBRANCH  27  29
ENDBRANCH  26  27
ENDBRANCH  25  26
ENDBRANCH   3  25
TORSDOF 14
ENDMDL
MODEL 3
REMARK VINA RESULT:      -8.2      1.222      1.453
REMARK  Name = 
REMARK  14 active torsions:
REMARK  status: ('A' for Active; 'I' for Inactive)
REMARK    1  A    between atoms: C_5  and  O_6
REMARK    2  A    between atoms: C_5  and  C_7
REMARK    3  A    between atoms: C_7  and  C_8
REMARK    4  A    between atoms: C_8  and  O_9
REMARK    5  A    between atoms: O_9  and  C_10
REMARK    6  A    between atoms: C_12  and  C_13
REMARK    7  A    between atoms: C_13  and  O_14
REMARK    8  A    between atoms: O_14  and  C_15
REMARK    9  A    between atoms: C_15  and  C_17
REMARK   10  A    between atoms: C_18  and  C_19
REMARK   11  A    between atoms: C_22  and  O_23
REMARK   12  A    between atoms: C_26  and  O_27
REMARK   13  A    between atoms: C_28  and  O_29
REMARK   14  A    between atoms: C_30  and  O_31
REMARK                            x       y       z     vdW  Elec       q    Type
REMARK                         _______ _______ _______ _____ _____    ______ ____
ROOT
ATOM      1  C   UNL     1       2.574   5.089  19.972  0.00  0.00    +0.000 C 
ATOM      2  O   UNL     1       3.212   5.854  18.943  0.00  0.00    +0.000 OA
ATOM      3  C   UNL     1       4.233   5.137  18.244  0.00  0.00    +0.000 C 
ATOM      4  C   UNL     1       3.656   3.887  17.553  0.00  0.00    +0.000 C 
ATOM      5  C   UNL     1       2.870   3.043  18.559  0.00  0.00    +0.000 C 
ATOM      6  C   UNL     1       1.846   3.878  19.328  0.00  0.00    +0.000 C 
ENDROOT
BRANCH   4   7
ATOM      7  O   UNL     1       4.689   3.089  16.968  0.00  0.00    +0.000 OA
ATOM      8  H   UNL     1       5.113   3.599  16.254  0.00  0.00    +0.000 HD
ENDBRANCH   4   7
BRANCH   5   9
ATOM      9  O   UNL     1       2.235   1.933  17.913  0.00  0.00    +0.000 OA
ATOM     10  H   UNL     1       1.272   2.080  17.932  0.00  0.00    +0.000 HD
ENDBRANCH   5   9
BRANCH   6  11
ATOM     11  O   UNL     1       1.204   3.010  20.275  0.00  0.00    +0.000 OA
ATOM     12  H   UNL     1       1.494   3.244  21.172  0.00  0.00    +0.000 HD
ENDBRANCH   6  11
BRANCH   1  13
ATOM     13  O   UNL     1       1.703   5.987  20.656  0.00  0.00    +0.000 OA
BRANCH  13  14
ATOM     14  C   UNL     1       1.851   7.348  20.288  0.00  0.00    +0.000 C 
BRANCH  14  15
ATOM     15  C   UNL     1       1.548   8.269  21.456  0.00  0.00    +0.000 C 
BRANCH  15  20
ATOM     16  O   UNL     1      -1.472  12.715  21.166  0.00  0.00    +0.000 OA
ATOM     17  C   UNL     1      -0.973  11.600  21.240  0.00  0.00    +0.000 C 
ATOM     18  C   UNL     1      -0.652  10.988  22.548  0.00  0.00    +0.000 C 
ATOM     19  C   UNL     1      -0.170   9.739  22.621  0.00  0.00    +0.000 C 
ATOM     20  C   UNL     1       0.123   8.867  21.426  0.00  0.00    +0.000 C 
ATOM     21  C   UNL     1      -0.163   9.572  20.124  0.00  0.00    +0.000 C 
ATOM     22  C   UNL     1      -0.652  10.818  20.027  0.00  0.00    +0.000 C 
BRANCH  20  23
ATOM     23  O   UNL     1      -0.784   7.768  21.469  0.00  0.00    +0.000 OA
ATOM     24  H   UNL     1      -0.471   7.108  20.830  0.00  0.00    +0.000 HD
ENDBRANCH  20  23
ENDBRANCH  15  20
ENDBRANCH  14  15
ENDBRANCH  13  14
ENDBRANCH   1  13
BRANCH   3  25
ATOM     25  C   UNL     1       4.873   6.104  17.231  0.00  0.00    +0.000 C 
BRANCH  25  26
ATOM     26  O   UNL     1       5.832   6.986  17.822  0.00  0.00    +0.000 OA
BRANCH  26  27
ATOM     27  C   UNL     1       7.098   6.834  17.376  0.00  0.00    +0.000 C 
ATOM     28  O   UNL     1       7.475   6.052  16.512  0.00  0.00    +0.000 OA
BRANCH  27  29
ATOM     29  C   UNL     1       7.949   7.813  18.066  0.00  0.00    +0.000 C 
ATOM     30  C   UNL     1       7.909   9.101  17.695  0.00  0.00    +0.000 C 
BRANCH  30  31
ATOM     31  C   UNL     1       8.705  10.163  18.321  0.00  0.00    +0.000 A 
ATOM     32  C   UNL     1       8.907  11.408  17.705  0.00  0.00    +0.000 A 
ATOM     33  C   UNL     1       9.638  12.410  18.347  0.00  0.00    +0.000 A 
ATOM     34  C   UNL     1      10.161  12.171  19.610  0.00  0.00    +0.000 A 
ATOM     35  C   UNL     1       9.964  10.949  20.253  0.00  0.00    +0.000 A 
ATOM     36  C   UNL     1       9.229   9.948  19.602  0.00  0.00    +0.000 A 
BRANCH  34  37
ATOM     37  O   UNL     1      10.877  13.124  20.272  0.00  0.00    +0.000 OA
ATOM     38  H   UNL     1      11.745  12.750  20.508  0.00  0.00    +0.000 HD
ENDBRANCH  34  37
ENDBRANCH  30  31
ENDBRANCH  27  29
ENDBRANCH  26  27
ENDBRANCH  25  26
ENDBRANCH   3  25
TORSDOF 14
ENDMDL
MODEL 4
REMARK VINA RESULT:      -8.2      1.028      1.056
REMARK  Name = 
REMARK  14 active torsions:
REMARK  status: ('A' for Active; 'I' for Inactive)
REMARK    1  A    between atoms: C_5  and  O_6
REMARK    2  A    between atoms: C_5  and  C_7
REMARK    3  A    between atoms: C_7  and  C_8
REMARK    4  A    between atoms: C_8  and  O_9
REMARK    5  A    between atoms: O_9  and  C_10
REMARK    6  A    between atoms: C_12  and  C_13
REMARK    7  A    between atoms: C_13  and  O_14
REMARK    8  A    between atoms: O_14  and  C_15
REMARK    9  A    between atoms: C_15  and  C_17
REMARK   10  A    between atoms: C_18  and  C_19
REMARK   11  A    between atoms: C_22  and  O_23
REMARK   12  A    between atoms: C_26  and  O_27
REMARK   13  A    between atoms: C_28  and  O_29
REMARK   14  A    between atoms: C_30  and  O_31
REMARK                            x       y       z     vdW  Elec       q    Type
REMARK                         _______ _______ _______ _____ _____    ______ ____
ROOT
ATOM      1  C   UNL     1       2.875   4.822  20.145  0.00  0.00    +0.000 C 
ATOM      2  O   UNL     1       4.106   5.475  19.812  0.00  0.00    +0.000 OA
ATOM      3  C   UNL     1       5.010   4.651  19.071  0.00  0.00    +0.000 C 
ATOM      4  C   UNL     1       4.385   4.207  17.735  0.00  0.00    +0.000 C 
ATOM      5  C   UNL     1       3.013   3.575  17.978  0.00  0.00    +0.000 C 
ATOM      6  C   UNL     1       2.117   4.468  18.837  0.00  0.00    +0.000 C 
ENDROOT
BRANCH   4   7
ATOM      7  O   UNL     1       5.225   3.273  17.050  0.00  0.00    +0.000 OA
ATOM      8  H   UNL     1       5.601   3.707  16.264  0.00  0.00    +0.000 HD
ENDBRANCH   4   7
BRANCH   5   9
ATOM      9  O   UNL     1       2.369   3.255  16.739  0.00  0.00    +0.000 OA
ATOM     10  H   UNL     1       3.059   3.101  16.069  0.00  0.00    +0.000 HD
ENDBRANCH   5   9
BRANCH   6  11
ATOM     11  O   UNL     1       0.882   3.766  19.048  0.00  0.00    +0.000 OA
ATOM     12  H   UNL     1       0.269   3.973  18.323  0.00  0.00    +0.000 HD
ENDBRANCH   6  11
BRANCH   1  13
ATOM     13  O   UNL     1       2.165   5.718  20.997  0.00  0.00    +0.000 OA
BRANCH  13  14
ATOM     14  C   UNL     1       1.961   7.011  20.454  0.00  0.00    +0.000 C 
BRANCH  14  15
ATOM     15  C   UNL     1       0.690   7.641  20.997  0.00  0.00    +0.000 C 
BRANCH  15  20
ATOM     16  O   UNL     1      -1.288  12.475  22.296  0.00  0.00    +0.000 OA
ATOM     17  C   UNL     1      -0.665  11.437  22.114  0.00  0.00    +0.000 C 
ATOM     18  C   UNL     1       0.237  11.276  20.953  0.00  0.00    +0.000 C 
ATOM     19  C   UNL     1       0.966  10.162  20.799  0.00  0.00    +0.000 C 
ATOM     20  C   UNL     1       0.922   8.979  21.735  0.00  0.00    +0.000 C 
ATOM     21  C   UNL     1      -0.064   9.179  22.858  0.00  0.00    +0.000 C 
ATOM     22  C   UNL     1      -0.798  10.288  23.035  0.00  0.00    +0.000 C 
BRANCH  20  23
ATOM     23  O   UNL     1       2.199   8.885  22.363  0.00  0.00    +0.000 OA
ATOM     24  H   UNL     1       2.052   8.595  23.277  0.00  0.00    +0.000 HD
ENDBRANCH  20  23
ENDBRANCH  15  20
ENDBRANCH  14  15
ENDBRANCH  13  14
ENDBRANCH   1  13
BRANCH   3  25
ATOM     25  C   UNL     1       6.305   5.455  18.856  0.00  0.00    +0.000 C 
BRANCH  25  26
ATOM     26  O   UNL     1       6.102   6.666  18.121  0.00  0.00    +0.000 OA
BRANCH  26  27
ATOM     27  C   UNL     1       7.091   6.982  17.256  0.00  0.00    +0.000 C 
ATOM     28  O   UNL     1       7.559   6.253  16.391  0.00  0.00    +0.000 OA
BRANCH  27  29
ATOM     29  C   UNL     1       7.477   8.380  17.491  0.00  0.00    +0.000 C 
ATOM     30  C   UNL     1       8.434   8.659  18.388  0.00  0.00    +0.000 C 
BRANCH  30  31
ATOM     31  C   UNL     1       8.906  10.015  18.692  0.00  0.00    +0.000 A 
ATOM     32  C   UNL     1       8.828  11.060  17.758  0.00  0.00    +0.000 A 
ATOM     33  C   UNL     1       9.251  12.349  18.096  0.00  0.00    +0.000 A 
ATOM     34  C   UNL     1       9.744  12.594  19.369  0.00  0.00    +0.000 A 
ATOM     35  C   UNL     1       9.819  11.579  20.322  0.00  0.00    +0.000 A 
ATOM     36  C   UNL     1       9.393  10.289  19.977  0.00  0.00    +0.000 A 
BRANCH  34  37
ATOM     37  O   UNL     1      10.164  13.838  19.738  0.00  0.00    +0.000 OA
ATOM     38  H   UNL     1       9.986  14.455  19.005  0.00  0.00    +0.000 HD
ENDBRANCH  34  37
ENDBRANCH  30  31
ENDBRANCH  27  29
ENDBRANCH  26  27
ENDBRANCH  25  26
ENDBRANCH   3  25
TORSDOF 14
ENDMDL
MODEL 5
REMARK VINA RESULT:      -8.2      1.750      1.916
REMARK  Name = 
REMARK  14 active torsions:
REMARK  status: ('A' for Active; 'I' for Inactive)
REMARK    1  A    between atoms: C_5  and  O_6
REMARK    2  A    between atoms: C_5  and  C_7
REMARK    3  A    between atoms: C_7  and  C_8
REMARK    4  A    between atoms: C_8  and  O_9
REMARK    5  A    between atoms: O_9  and  C_10
REMARK    6  A    between atoms: C_12  and  C_13
REMARK    7  A    between atoms: C_13  and  O_14
REMARK    8  A    between atoms: O_14  and  C_15
REMARK    9  A    between atoms: C_15  and  C_17
REMARK   10  A    between atoms: C_18  and  C_19
REMARK   11  A    between atoms: C_22  and  O_23
REMARK   12  A    between atoms: C_26  and  O_27
REMARK   13  A    between atoms: C_28  and  O_29
REMARK   14  A    between atoms: C_30  and  O_31
REMARK                            x       y       z     vdW  Elec       q    Type
REMARK                         _______ _______ _______ _____ _____    ______ ____
ROOT
ATOM      1  C   UNL     1       2.834   5.954  18.338  0.00  0.00    +0.000 C 
ATOM      2  O   UNL     1       4.242   6.183  18.468  0.00  0.00    +0.000 OA
ATOM      3  C   UNL     1       4.907   5.214  19.283  0.00  0.00    +0.000 C 
ATOM      4  C   UNL     1       4.755   3.798  18.694  0.00  0.00    +0.000 C 
ATOM      5  C   UNL     1       3.279   3.492  18.431  0.00  0.00    +0.000 C 
ATOM      6  C   UNL     1       2.603   4.598  17.619  0.00  0.00    +0.000 C 
ENDROOT
BRANCH   4   7
ATOM      7  O   UNL     1       5.298   2.807  19.571  0.00  0.00    +0.000 OA
ATOM      8  H   UNL     1       5.277   1.944  19.121  0.00  0.00    +0.000 HD
ENDBRANCH   4   7
BRANCH   5   9
ATOM      9  O   UNL     1       3.126   2.224  17.784  0.00  0.00    +0.000 OA
ATOM     10  H   UNL     1       2.269   2.220  17.320  0.00  0.00    +0.000 HD
ENDBRANCH   5   9
BRANCH   6  11
ATOM     11  O   UNL     1       1.220   4.241  17.473  0.00  0.00    +0.000 OA
ATOM     12  H   UNL     1       0.837   4.738  16.731  0.00  0.00    +0.000 HD
ENDBRANCH   6  11
BRANCH   1  13
ATOM     13  O   UNL     1       2.311   7.076  17.631  0.00  0.00    +0.000 OA
BRANCH  13  14
ATOM     14  C   UNL     1       2.180   8.254  18.409  0.00  0.00    +0.000 C 
BRANCH  14  15
ATOM     15  C   UNL     1       0.970   9.065  17.978  0.00  0.00    +0.000 C 
BRANCH  15  20
ATOM     16  O   UNL     1      -1.708  11.868  21.713  0.00  0.00    +0.000 OA
ATOM     17  C   UNL     1      -0.982  11.410  20.840  0.00  0.00    +0.000 C 
ATOM     18  C   UNL     1      -1.334  11.528  19.408  0.00  0.00    +0.000 C 
ATOM     19  C   UNL     1      -0.501  11.085  18.457  0.00  0.00    +0.000 C 
ATOM     20  C   UNL     1       0.820  10.408  18.729  0.00  0.00    +0.000 C 
ATOM     21  C   UNL     1       1.089  10.259  20.206  0.00  0.00    +0.000 C 
ATOM     22  C   UNL     1       0.272  10.702  21.174  0.00  0.00    +0.000 C 
BRANCH  20  23
ATOM     23  O   UNL     1       1.847  11.268  18.242  0.00  0.00    +0.000 OA
ATOM     24  H   UNL     1       2.387  11.535  19.002  0.00  0.00    +0.000 HD
ENDBRANCH  20  23
ENDBRANCH  15  20
ENDBRANCH  14  15
ENDBRANCH  13  14
ENDBRANCH   1  13
BRANCH   3  25
ATOM     25  C   UNL     1       6.386   5.631  19.391  0.00  0.00    +0.000 C 
BRANCH  25  26
ATOM     26  O   UNL     1       7.165   5.246  18.254  0.00  0.00    +0.000 OA
BRANCH  26  27
ATOM     27  C   UNL     1       7.448   6.246  17.391  0.00  0.00    +0.000 C 
ATOM     28  O   UNL     1       7.304   6.219  16.175  0.00  0.00    +0.000 OA
BRANCH  27  29
ATOM     29  C   UNL     1       7.908   7.405  18.167  0.00  0.00    +0.000 C 
ATOM     30  C   UNL     1       8.155   8.565  17.539  0.00  0.00    +0.000 C 
BRANCH  30  31
ATOM     31  C   UNL     1       8.606   9.787  18.216  0.00  0.00    +0.000 A 
ATOM     32  C   UNL     1       8.449  11.059  17.643  0.00  0.00    +0.000 A 
ATOM     33  C   UNL     1       8.854  12.204  18.332  0.00  0.00    +0.000 A 
ATOM     34  C   UNL     1       9.411  12.079  19.597  0.00  0.00    +0.000 A 
ATOM     35  C   UNL     1       9.566  10.830  20.197  0.00  0.00    +0.000 A 
ATOM     36  C   UNL     1       9.156   9.685  19.499  0.00  0.00    +0.000 A 
BRANCH  34  37
ATOM     37  O   UNL     1       9.816  13.173  20.304  0.00  0.00    +0.000 OA
ATOM     38  H   UNL     1       9.743  13.956  19.730  0.00  0.00    +0.000 HD
ENDBRANCH  34  37
ENDBRANCH  30  31
ENDBRANCH  27  29
ENDBRANCH  26  27
ENDBRANCH  25  26
ENDBRANCH   3  25
TORSDOF 14
ENDMDL
MODEL 6
REMARK VINA RESULT:      -8.2      1.589      2.106
REMARK  Name = 
REMARK  14 active torsions:
REMARK  status: ('A' for Active; 'I' for Inactive)
REMARK    1  A    between atoms: C_5  and  O_6
REMARK    2  A    between atoms: C_5  and  C_7
REMARK    3  A    between atoms: C_7  and  C_8
REMARK    4  A    between atoms: C_8  and  O_9
REMARK    5  A    between atoms: O_9  and  C_10
REMARK    6  A    between atoms: C_12  and  C_13
REMARK    7  A    between atoms: C_13  and  O_14
REMARK    8  A    between atoms: O_14  and  C_15
REMARK    9  A    between atoms: C_15  and  C_17
REMARK   10  A    between atoms: C_18  and  C_19
REMARK   11  A    between atoms: C_22  and  O_23
REMARK   12  A    between atoms: C_26  and  O_27
REMARK   13  A    between atoms: C_28  and  O_29
REMARK   14  A    between atoms: C_30  and  O_31
REMARK                            x       y       z     vdW  Elec       q    Type
REMARK                         _______ _______ _______ _____ _____    ______ ____
ROOT
ATOM      1  C   UNL     1       2.477   5.422  19.944  0.00  0.00    +0.000 C 
ATOM      2  O   UNL     1       3.582   5.576  19.045  0.00  0.00    +0.000 OA
ATOM      3  C   UNL     1       4.633   4.630  19.262  0.00  0.00    +0.000 C 
ATOM      4  C   UNL     1       4.126   3.188  19.075  0.00  0.00    +0.000 C 
ATOM      5  C   UNL     1       2.880   2.951  19.932  0.00  0.00    +0.000 C 
ATOM      6  C   UNL     1       1.823   4.034  19.713  0.00  0.00    +0.000 C 
ENDROOT
BRANCH   4   7
ATOM      7  O   UNL     1       5.131   2.231  19.422  0.00  0.00    +0.000 OA
ATOM      8  H   UNL     1       5.282   2.270  20.383  0.00  0.00    +0.000 HD
ENDBRANCH   4   7
BRANCH   5   9
ATOM      9  O   UNL     1       2.330   1.651  19.690  0.00  0.00    +0.000 OA
ATOM     10  H   UNL     1       3.030   0.991  19.846  0.00  0.00    +0.000 HD
ENDBRANCH   5   9
BRANCH   6  11
ATOM     11  O   UNL     1       0.725   3.750  20.595  0.00  0.00    +0.000 OA
ATOM     12  H   UNL     1       0.483   2.812  20.514  0.00  0.00    +0.000 HD
ENDBRANCH   6  11
BRANCH   1  13
ATOM     13  O   UNL     1       1.603   6.520  19.693  0.00  0.00    +0.000 OA
BRANCH  13  14
ATOM     14  C   UNL     1       2.257   7.761  19.492  0.00  0.00    +0.000 C 
BRANCH  14  15
ATOM     15  C   UNL     1       1.886   8.367  18.150  0.00  0.00    +0.000 C 
BRANCH  15  20
ATOM     16  O   UNL     1      -1.768  11.606  20.415  0.00  0.00    +0.000 OA
ATOM     17  C   UNL     1      -0.872  11.046  19.795  0.00  0.00    +0.000 C 
ATOM     18  C   UNL     1      -1.121  10.435  18.471  0.00  0.00    +0.000 C 
ATOM     19  C   UNL     1      -0.120   9.884  17.771  0.00  0.00    +0.000 C 
ATOM     20  C   UNL     1       1.308   9.797  18.249  0.00  0.00    +0.000 C 
ATOM     21  C   UNL     1       1.482  10.379  19.630  0.00  0.00    +0.000 C 
ATOM     22  C   UNL     1       0.496  10.940  20.346  0.00  0.00    +0.000 C 
BRANCH  20  23
ATOM     23  O   UNL     1       2.095  10.619  17.390  0.00  0.00    +0.000 OA
ATOM     24  H   UNL     1       3.027  10.399  17.551  0.00  0.00    +0.000 HD
ENDBRANCH  20  23
ENDBRANCH  15  20
ENDBRANCH  14  15
ENDBRANCH  13  14
ENDBRANCH   1  13
BRANCH   3  25
ATOM     25  C   UNL     1       5.772   4.966  18.281  0.00  0.00    +0.000 C 
BRANCH  25  26
ATOM     26  O   UNL     1       6.427   6.202  18.579  0.00  0.00    +0.000 OA
BRANCH  26  27
ATOM     27  C   UNL     1       7.345   6.596  17.669  0.00  0.00    +0.000 C 
ATOM     28  O   UNL     1       7.485   6.146  16.539  0.00  0.00    +0.000 OA
BRANCH  27  29
ATOM     29  C   UNL     1       8.117   7.704  18.246  0.00  0.00    +0.000 C 
ATOM     30  C   UNL     1       7.910   8.954  17.806  0.00  0.00    +0.000 C 
BRANCH  30  31
ATOM     31  C   UNL     1       8.615  10.135  18.318  0.00  0.00    +0.000 A 
ATOM     32  C   UNL     1       9.493  10.064  19.411  0.00  0.00    +0.000 A 
ATOM     33  C   UNL     1      10.179  11.200  19.848  0.00  0.00    +0.000 A 
ATOM     34  C   UNL     1       9.991  12.406  19.188  0.00  0.00    +0.000 A 
ATOM     35  C   UNL     1       9.136  12.504  18.091  0.00  0.00    +0.000 A 
ATOM     36  C   UNL     1       8.453  11.359  17.658  0.00  0.00    +0.000 A 
BRANCH  34  37
ATOM     37  O   UNL     1      10.643  13.538  19.582  0.00  0.00    +0.000 OA
ATOM     38  H   UNL     1      10.921  13.428  20.509  0.00  0.00    +0.000 HD
ENDBRANCH  34  37
ENDBRANCH  30  31
ENDBRANCH  27  29
ENDBRANCH  26  27
ENDBRANCH  25  26
ENDBRANCH   3  25
TORSDOF 14
ENDMDL
MODEL 7
REMARK VINA RESULT:      -8.1      1.355      1.557
REMARK  Name = 
REMARK  14 active torsions:
REMARK  status: ('A' for Active; 'I' for Inactive)
REMARK    1  A    between atoms: C_5  and  O_6
REMARK    2  A    between atoms: C_5  and  C_7
REMARK    3  A    between atoms: C_7  and  C_8
REMARK    4  A    between atoms: C_8  and  O_9
REMARK    5  A    between atoms: O_9  and  C_10
REMARK    6  A    between atoms: C_12  and  C_13
REMARK    7  A    between atoms: C_13  and  O_14
REMARK    8  A    between atoms: O_14  and  C_15
REMARK    9  A    between atoms: C_15  and  C_17
REMARK   10  A    between atoms: C_18  and  C_19
REMARK   11  A    between atoms: C_22  and  O_23
REMARK   12  A    between atoms: C_26  and  O_27
REMARK   13  A    between atoms: C_28  and  O_29
REMARK   14  A    between atoms: C_30  and  O_31
REMARK                            x       y       z     vdW  Elec       q    Type
REMARK                         _______ _______ _______ _____ _____    ______ ____
ROOT
ATOM      1  C   UNL     1       2.196   5.366  20.340  0.00  0.00    +0.000 C 
ATOM      2  O   UNL     1       3.081   5.993  19.404  0.00  0.00    +0.000 OA
ATOM      3  C   UNL     1       4.162   5.154  18.987  0.00  0.00    +0.000 C 
ATOM      4  C   UNL     1       3.638   3.881  18.296  0.00  0.00    +0.000 C 
ATOM      5  C   UNL     1       2.607   3.182  19.186  0.00  0.00    +0.000 C 
ATOM      6  C   UNL     1       1.519   4.145  19.661  0.00  0.00    +0.000 C 
ENDROOT
BRANCH   4   7
ATOM      7  O   UNL     1       4.703   2.972  17.998  0.00  0.00    +0.000 OA
ATOM      8  H   UNL     1       4.622   2.194  18.577  0.00  0.00    +0.000 HD
ENDBRANCH   4   7
BRANCH   5   9
ATOM      9  O   UNL     1       2.029   2.057  18.515  0.00  0.00    +0.000 OA
ATOM     10  H   UNL     1       1.075   2.043  18.710  0.00  0.00    +0.000 HD
ENDBRANCH   5   9
BRANCH   6  11
ATOM     11  O   UNL     1       0.638   3.409  20.525  0.00  0.00    +0.000 OA
ATOM     12  H   UNL     1      -0.191   3.902  20.632  0.00  0.00    +0.000 HD
ENDBRANCH   6  11
BRANCH   1  13
ATOM     13  O   UNL     1       1.279   6.374  20.759  0.00  0.00    +0.000 OA
BRANCH  13  14
ATOM     14  C   UNL     1       1.684   7.700  20.463  0.00  0.00    +0.000 C 
BRANCH  14  15
ATOM     15  C   UNL     1       0.627   8.705  20.887  0.00  0.00    +0.000 C 
BRANCH  15  20
ATOM     16  O   UNL     1      -1.616  13.519  20.013  0.00  0.00    +0.000 OA
ATOM     17  C   UNL     1      -0.994  12.465  20.032  0.00  0.00    +0.000 C 
ATOM     18  C   UNL     1      -1.513  11.255  19.357  0.00  0.00    +0.000 C 
ATOM     19  C   UNL     1      -0.793  10.125  19.325  0.00  0.00    +0.000 C 
ATOM     20  C   UNL     1       0.556   9.954  19.980  0.00  0.00    +0.000 C 
ATOM     21  C   UNL     1       0.997  11.201  20.706  0.00  0.00    +0.000 C 
ATOM     22  C   UNL     1       0.296  12.345  20.745  0.00  0.00    +0.000 C 
BRANCH  20  23
ATOM     23  O   UNL     1       1.512   9.763  18.940  0.00  0.00    +0.000 OA
ATOM     24  H   UNL     1       1.121  10.104  18.120  0.00  0.00    +0.000 HD
ENDBRANCH  20  23
ENDBRANCH  15  20
ENDBRANCH  14  15
ENDBRANCH  13  14
ENDBRANCH   1  13
BRANCH   3  25
ATOM     25  C   UNL     1       5.061   5.982  18.051  0.00  0.00    +0.000 C 
BRANCH  25  26
ATOM     26  O   UNL     1       6.456   5.716  18.227  0.00  0.00    +0.000 OA
BRANCH  26  27
ATOM     27  C   UNL     1       7.276   6.399  17.399  0.00  0.00    +0.000 C 
ATOM     28  O   UNL     1       7.462   6.171  16.211  0.00  0.00    +0.000 OA
BRANCH  27  29
ATOM     29  C   UNL     1       7.871   7.509  18.156  0.00  0.00    +0.000 C 
ATOM     30  C   UNL     1       7.998   8.712  17.575  0.00  0.00    +0.000 C 
BRANCH  30  31
ATOM     31  C   UNL     1       8.566   9.891  18.240  0.00  0.00    +0.000 A 
ATOM     32  C   UNL     1       8.489  11.174  17.678  0.00  0.00    +0.000 A 
ATOM     33  C   UNL     1       9.005  12.281  18.357  0.00  0.00    +0.000 A 
ATOM     34  C   UNL     1       9.593  12.105  19.601  0.00  0.00    +0.000 A 
ATOM     35  C   UNL     1       9.670  10.844  20.192  0.00  0.00    +0.000 A 
ATOM     36  C   UNL     1       9.149   9.738  19.504  0.00  0.00    +0.000 A 
BRANCH  34  37
ATOM     37  O   UNL     1      10.106  13.159  20.298  0.00  0.00    +0.000 OA
ATOM     38  H   UNL     1      10.363  12.849  21.184  0.00  0.00    +0.000 HD
ENDBRANCH  34  37
ENDBRANCH  30  31
ENDBRANCH  27  29
ENDBRANCH  26  27
ENDBRANCH  25  26
ENDBRANCH   3  25
TORSDOF 14
ENDMDL
MODEL 8
REMARK VINA RESULT:      -8.1      2.282      2.439
REMARK  Name = 
REMARK  14 active torsions:
REMARK  status: ('A' for Active; 'I' for Inactive)
REMARK    1  A    between atoms: C_5  and  O_6
REMARK    2  A    between atoms: C_5  and  C_7
REMARK    3  A    between atoms: C_7  and  C_8
REMARK    4  A    between atoms: C_8  and  O_9
REMARK    5  A    between atoms: O_9  and  C_10
REMARK    6  A    between atoms: C_12  and  C_13
REMARK    7  A    between atoms: C_13  and  O_14
REMARK    8  A    between atoms: O_14  and  C_15
REMARK    9  A    between atoms: C_15  and  C_17
REMARK   10  A    between atoms: C_18  and  C_19
REMARK   11  A    between atoms: C_22  and  O_23
REMARK   12  A    between atoms: C_26  and  O_27
REMARK   13  A    between atoms: C_28  and  O_29
REMARK   14  A    between atoms: C_30  and  O_31
REMARK                            x       y       z     vdW  Elec       q    Type
REMARK                         _______ _______ _______ _____ _____    ______ ____
ROOT
ATOM      1  C   UNL     1       3.009   6.354  18.692  0.00  0.00    +0.000 C 
ATOM      2  O   UNL     1       3.810   6.681  17.550  0.00  0.00    +0.000 OA
ATOM      3  C   UNL     1       4.835   5.722  17.276  0.00  0.00    +0.000 C 
ATOM      4  C   UNL     1       4.232   4.333  16.994  0.00  0.00    +0.000 C 
ATOM      5  C   UNL     1       3.280   3.931  18.123  0.00  0.00    +0.000 C 
ATOM      6  C   UNL     1       2.254   5.025  18.421  0.00  0.00    +0.000 C 
ENDROOT
BRANCH   4   7
ATOM      7  O   UNL     1       5.251   3.339  16.854  0.00  0.00    +0.000 OA
ATOM      8  H   UNL     1       4.906   2.609  16.309  0.00  0.00    +0.000 HD
ENDBRANCH   4   7
BRANCH   5   9
ATOM      9  O   UNL     1       2.627   2.692  17.827  0.00  0.00    +0.000 OA
ATOM     10  H   UNL     1       1.743   2.891  17.469  0.00  0.00    +0.000 HD
ENDBRANCH   5   9
BRANCH   6  11
ATOM     11  O   UNL     1       1.450   4.574  19.522  0.00  0.00    +0.000 OA
ATOM     12  H   UNL     1       1.172   3.656  19.361  0.00  0.00    +0.000 HD
ENDBRANCH   6  11
BRANCH   1  13
ATOM     13  O   UNL     1       2.149   7.470  18.909  0.00  0.00    +0.000 OA
BRANCH  13  14
ATOM     14  C   UNL     1       2.354   8.555  18.019  0.00  0.00    +0.000 C 
BRANCH  14  15
ATOM     15  C   UNL     1       1.045   9.253  17.693  0.00  0.00    +0.000 C 
BRANCH  15  20
ATOM     16  O   UNL     1      -0.419  14.378  18.440  0.00  0.00    +0.000 OA
ATOM     17  C   UNL     1      -0.101  13.197  18.484  0.00  0.00    +0.000 C 
ATOM     18  C   UNL     1       1.313  12.786  18.622  0.00  0.00    +0.000 C 
ATOM     19  C   UNL     1       1.645  11.493  18.738  0.00  0.00    +0.000 C 
ATOM     20  C   UNL     1       0.656  10.353  18.706  0.00  0.00    +0.000 C 
ATOM     21  C   UNL     1      -0.758  10.834  18.498  0.00  0.00    +0.000 C 
ATOM     22  C   UNL     1      -1.113  12.123  18.386  0.00  0.00    +0.000 C 
BRANCH  20  23
ATOM     23  O   UNL     1       0.665   9.746  19.995  0.00  0.00    +0.000 OA
ATOM     24  H   UNL     1      -0.238   9.800  20.347  0.00  0.00    +0.000 HD
ENDBRANCH  20  23
ENDBRANCH  15  20
ENDBRANCH  14  15
ENDBRANCH  13  14
ENDBRANCH   1  13
BRANCH   3  25
ATOM     25  C   UNL     1       5.653   6.242  16.079  0.00  0.00    +0.000 C 
BRANCH  25  26
ATOM     26  O   UNL     1       6.808   6.991  16.469  0.00  0.00    +0.000 OA
BRANCH  26  27
ATOM     27  C   UNL     1       7.456   6.518  17.556  0.00  0.00    +0.000 C 
ATOM     28  O   UNL     1       7.551   5.343  17.890  0.00  0.00    +0.000 OA
BRANCH  27  29
ATOM     29  C   UNL     1       8.083   7.652  18.246  0.00  0.00    +0.000 C 
ATOM     30  C   UNL     1       8.056   8.868  17.680  0.00  0.00    +0.000 C 
BRANCH  30  31
ATOM     31  C   UNL     1       8.639  10.071  18.286  0.00  0.00    +0.000 A 
ATOM     32  C   UNL     1       8.509  11.340  17.700  0.00  0.00    +0.000 A 
ATOM     33  C   UNL     1       9.043  12.470  18.324  0.00  0.00    +0.000 A 
ATOM     34  C   UNL     1       9.702  12.332  19.537  0.00  0.00    +0.000 A 
ATOM     35  C   UNL     1       9.834  11.086  20.150  0.00  0.00    +0.000 A 
ATOM     36  C   UNL     1       9.295   9.957  19.518  0.00  0.00    +0.000 A 
BRANCH  34  37
ATOM     37  O   UNL     1      10.235  13.411  20.180  0.00  0.00    +0.000 OA
ATOM     38  H   UNL     1      10.743  13.094  20.948  0.00  0.00    +0.000 HD
ENDBRANCH  34  37
ENDBRANCH  30  31
ENDBRANCH  27  29
ENDBRANCH  26  27
ENDBRANCH  25  26
ENDBRANCH   3  25
TORSDOF 14
ENDMDL
MODEL 9
REMARK VINA RESULT:      -8.1      1.708      1.790
REMARK  Name = 
REMARK  14 active torsions:
REMARK  status: ('A' for Active; 'I' for Inactive)
REMARK    1  A    between atoms: C_5  and  O_6
REMARK    2  A    between atoms: C_5  and  C_7
REMARK    3  A    between atoms: C_7  and  C_8
REMARK    4  A    between atoms: C_8  and  O_9
REMARK    5  A    between atoms: O_9  and  C_10
REMARK    6  A    between atoms: C_12  and  C_13
REMARK    7  A    between atoms: C_13  and  O_14
REMARK    8  A    between atoms: O_14  and  C_15
REMARK    9  A    between atoms: C_15  and  C_17
REMARK   10  A    between atoms: C_18  and  C_19
REMARK   11  A    between atoms: C_22  and  O_23
REMARK   12  A    between atoms: C_26  and  O_27
REMARK   13  A    between atoms: C_28  and  O_29
REMARK   14  A    between atoms: C_30  and  O_31
REMARK                            x       y       z     vdW  Elec       q    Type
REMARK                         _______ _______ _______ _____ _____    ______ ____
ROOT
ATOM      1  C   UNL     1       2.591   5.957  19.700  0.00  0.00    +0.000 C 
ATOM      2  O   UNL     1       3.811   6.099  18.963  0.00  0.00    +0.000 OA
ATOM      3  C   UNL     1       4.821   5.157  19.338  0.00  0.00    +0.000 C 
ATOM      4  C   UNL     1       4.343   3.711  19.103  0.00  0.00    +0.000 C 
ATOM      5  C   UNL     1       2.989   3.486  19.780  0.00  0.00    +0.000 C 
ATOM      6  C   UNL     1       1.974   4.564  19.400  0.00  0.00    +0.000 C 
ENDROOT
BRANCH   4   7
ATOM      7  O   UNL     1       5.289   2.761  19.602  0.00  0.00    +0.000 OA
ATOM      8  H   UNL     1       5.664   2.267  18.851  0.00  0.00    +0.000 HD
ENDBRANCH   4   7
BRANCH   5   9
ATOM      9  O   UNL     1       2.478   2.182  19.482  0.00  0.00    +0.000 OA
ATOM     10  H   UNL     1       2.889   1.546  20.096  0.00  0.00    +0.000 HD
ENDBRANCH   5   9
BRANCH   6  11
ATOM     11  O   UNL     1       0.764   4.292  20.123  0.00  0.00    +0.000 OA
ATOM     12  H   UNL     1       0.535   3.353  20.022  0.00  0.00    +0.000 HD
ENDBRANCH   6  11
BRANCH   1  13
ATOM     13  O   UNL     1       1.762   7.050  19.314  0.00  0.00    +0.000 OA
BRANCH  13  14
ATOM     14  C   UNL     1       2.386   7.989  18.454  0.00  0.00    +0.000 C 
BRANCH  14  15
ATOM     15  C   UNL     1       1.399   9.042  17.983  0.00  0.00    +0.000 C 
BRANCH  15  20
ATOM     16  O   UNL     1      -1.343  13.505  19.225  0.00  0.00    +0.000 OA
ATOM     17  C   UNL     1      -0.674  12.481  19.153  0.00  0.00    +0.000 C 
ATOM     18  C   UNL     1       0.784  12.532  18.913  0.00  0.00    +0.000 C 
ATOM     19  C   UNL     1       1.518  11.410  18.904  0.00  0.00    +0.000 C 
ATOM     20  C   UNL     1       0.956  10.023  19.092  0.00  0.00    +0.000 C 
ATOM     21  C   UNL     1      -0.542  10.035  19.266  0.00  0.00    +0.000 C 
ATOM     22  C   UNL     1      -1.295  11.146  19.285  0.00  0.00    +0.000 C 
BRANCH  20  23
ATOM     23  O   UNL     1       1.476   9.517  20.319  0.00  0.00    +0.000 OA
ATOM     24  H   UNL     1       2.441   9.610  20.286  0.00  0.00    +0.000 HD
ENDBRANCH  20  23
ENDBRANCH  15  20
ENDBRANCH  14  15
ENDBRANCH  13  14
ENDBRANCH   1  13
BRANCH   3  25
ATOM     25  C   UNL     1       6.086   5.479  18.522  0.00  0.00    +0.000 C 
BRANCH  25  26
ATOM     26  O   UNL     1       5.987   6.703  17.786  0.00  0.00    +0.000 OA
BRANCH  26  27
ATOM     27  C   UNL     1       7.118   7.081  17.153  0.00  0.00    +0.000 C 
ATOM     28  O   UNL     1       7.777   6.402  16.375  0.00  0.00    +0.000 OA
BRANCH  27  29
ATOM     29  C   UNL     1       7.400   8.477  17.511  0.00  0.00    +0.000 C 
ATOM     30  C   UNL     1       8.506   8.770  18.211  0.00  0.00    +0.000 C 
BRANCH  30  31
ATOM     31  C   UNL     1       8.891  10.128  18.612  0.00  0.00    +0.000 A 
ATOM     32  C   UNL     1       8.603  11.250  17.820  0.00  0.00    +0.000 A 
ATOM     33  C   UNL     1       8.949  12.534  18.251  0.00  0.00    +0.000 A 
ATOM     34  C   UNL     1       9.578  12.695  19.477  0.00  0.00    +0.000 A 
ATOM     35  C   UNL     1       9.864  11.600  20.292  0.00  0.00    +0.000 A 
ATOM     36  C   UNL     1       9.513  10.316  19.853  0.00  0.00    +0.000 A 
BRANCH  34  37
ATOM     37  O   UNL     1       9.930  13.931  19.935  0.00  0.00    +0.000 OA
ATOM     38  H   UNL     1       9.561  14.601  19.332  0.00  0.00    +0.000 HD
ENDBRANCH  34  37
ENDBRANCH  30  31
ENDBRANCH  27  29
ENDBRANCH  26  27
ENDBRANCH  25  26
ENDBRANCH   3  25
TORSDOF 14
ENDMDL
