MODEL 1
REMARK VINA RESULT:      -8.6      0.000      0.000
REMARK  Name = 
REMARK  5 active torsions:
REMARK  status: ('A' for Active; 'I' for Inactive)
REMARK    1  A    between atoms: C_1  and  C_2
REMARK    2  A    between atoms: N_10  and  C_11
REMARK    3  A    between atoms: C_14  and  N_15
REMARK    4  A    between atoms: C_16  and  C_18
REMARK    5  A    between atoms: C_22  and  C_23
REMARK                            x       y       z     vdW  Elec       q    Type
REMARK                         _______ _______ _______ _____ _____    ______ ____
ROOT
ATOM      1  C   UNL     1       1.796   8.040  19.374  0.00  0.00    +0.000 A 
ATOM      2  C   UNL     1       1.616   8.010  20.761  0.00  0.00    +0.000 A 
ATOM      3  C   UNL     1       0.830   8.947  21.432  0.00  0.00    +0.000 A 
ATOM      4  C   UNL     1       0.185   9.961  20.739  0.00  0.00    +0.000 A 
ATOM      5  C   UNL     1       0.428  10.050  19.360  0.00  0.00    +0.000 A 
ATOM      6  F   UNL     1      -0.155  11.031  18.651  0.00  0.00    +0.000 F 
ATOM      7  C   UNL     1       1.241   9.119  18.678  0.00  0.00    +0.000 A 
ENDROOT
BRANCH   1  17
ATOM      8  C   UNL     1       6.319   3.882  15.275  0.00  0.00    +0.000 C 
ATOM      9  C   UNL     1       5.227   4.222  16.249  0.00  0.00    +0.000 A 
ATOM     10  C   UNL     1       4.532   3.226  16.976  0.00  0.00    +0.000 A 
ATOM     11  C   UNL     1       3.548   3.563  17.928  0.00  0.00    +0.000 A 
ATOM     12  C   UNL     1       3.277   4.903  18.127  0.00  0.00    +0.000 A 
ATOM     13  C   UNL     1       3.931   5.859  17.385  0.00  0.00    +0.000 A 
ATOM     14  C   UNL     1       4.911   5.565  16.454  0.00  0.00    +0.000 A 
ATOM     15  C   UNL     1       3.436   7.157  17.783  0.00  0.00    +0.000 C 
ATOM     16  O   UNL     1       3.912   8.171  17.299  0.00  0.00    +0.000 OA
ATOM     17  N   UNL     1       2.471   6.959  18.752  0.00  0.00    +0.000 N 
ATOM     18  C   UNL     1       2.365   5.616  19.045  0.00  0.00    +0.000 C 
ATOM     19  O   UNL     1       1.674   5.037  19.867  0.00  0.00    +0.000 OA
ENDBRANCH   1  17
BRANCH   4  20
ATOM     20  N   UNL     1      -0.694  10.874  21.374  0.00  0.00    +0.000 N 
ATOM     21  C   UNL     1      -0.862  11.041  22.744  0.00  0.00    +0.000 C 
ATOM     22  O   UNL     1      -0.287  10.402  23.620  0.00  0.00    +0.000 OA
ATOM     23  H   UNL     1      -1.290  11.449  20.783  0.00  0.00    +0.000 HD
BRANCH  21  24
ATOM     24  C   UNL     1      -1.827  12.096  23.099  0.00  0.00    +0.000 A 
ATOM     25  N   UNL     1      -3.114  11.779  23.548  0.00  0.00    +0.000 NA
ATOM     26  C   UNL     1      -3.778  12.888  23.787  0.00  0.00    +0.000 A 
ATOM     27  S   UNL     1      -2.944  14.354  23.506  0.00  0.00    +0.000 S 
ATOM     28  C   UNL     1      -1.565  13.462  23.008  0.00  0.00    +0.000 A 
ATOM     29  C   UNL     1      -0.333  14.171  22.553  0.00  0.00    +0.000 C 
ENDBRANCH  21  24
ENDBRANCH   4  20
TORSDOF 3
ENDMDL
MODEL 2
REMARK VINA RESULT:      -8.5      1.977      3.297
REMARK  Name = 
REMARK  5 active torsions:
REMARK  status: ('A' for Active; 'I' for Inactive)
REMARK    1  A    between atoms: C_1  and  C_2
REMARK    2  A    between atoms: N_10  and  C_11
REMARK    3  A    between atoms: C_14  and  N_15
REMARK    4  A    between atoms: C_16  and  C_18
REMARK    5  A    between atoms: C_22  and  C_23
REMARK                            x       y       z     vdW  Elec       q    Type
REMARK                         _______ _______ _______ _____ _____    ______ ____
ROOT
ATOM      1  C   UNL     1       0.509  10.011  19.858  0.00  0.00    +0.000 A 
ATOM      2  C   UNL     1       0.803  10.707  21.036  0.00  0.00    +0.000 A 
ATOM      3  C   UNL     1      -0.078  11.631  21.597  0.00  0.00    +0.000 A 
ATOM      4  C   UNL     1      -1.302  11.900  21.000  0.00  0.00    +0.000 A 
ATOM      5  C   UNL     1      -1.568  11.272  19.775  0.00  0.00    +0.000 A 
ATOM      6  F   UNL     1      -2.730  11.522  19.147  0.00  0.00    +0.000 F 
ATOM      7  C   UNL     1      -0.671  10.353  19.189  0.00  0.00    +0.000 A 
ENDROOT
BRANCH   1  17
ATOM      8  C   UNL     1       4.331   3.714  19.326  0.00  0.00    +0.000 C 
ATOM      9  C   UNL     1       3.843   5.091  18.973  0.00  0.00    +0.000 A 
ATOM     10  C   UNL     1       4.235   5.744  17.781  0.00  0.00    +0.000 A 
ATOM     11  C   UNL     1       3.726   7.013  17.436  0.00  0.00    +0.000 A 
ATOM     12  C   UNL     1       2.831   7.606  18.306  0.00  0.00    +0.000 A 
ATOM     13  C   UNL     1       2.489   6.976  19.482  0.00  0.00    +0.000 A 
ATOM     14  C   UNL     1       2.958   5.728  19.844  0.00  0.00    +0.000 A 
ATOM     15  C   UNL     1       1.566   7.828  20.197  0.00  0.00    +0.000 C 
ATOM     16  O   UNL     1       1.076   7.454  21.250  0.00  0.00    +0.000 OA
ATOM     17  N   UNL     1       1.381   8.971  19.445  0.00  0.00    +0.000 N 
ATOM     18  C   UNL     1       2.078   8.875  18.260  0.00  0.00    +0.000 C 
ATOM     19  O   UNL     1       2.137   9.641  17.312  0.00  0.00    +0.000 OA
ENDBRANCH   1  17
BRANCH   4  20
ATOM     20  N   UNL     1      -2.260  12.763  21.590  0.00  0.00    +0.000 N 
ATOM     21  C   UNL     1      -2.943  12.547  22.782  0.00  0.00    +0.000 C 
ATOM     22  O   UNL     1      -2.835  11.558  23.499  0.00  0.00    +0.000 OA
ATOM     23  H   UNL     1      -2.506  13.613  21.087  0.00  0.00    +0.000 HD
BRANCH  21  24
ATOM     24  C   UNL     1      -3.851  13.646  23.151  0.00  0.00    +0.000 A 
ATOM     25  N   UNL     1      -3.450  14.649  24.041  0.00  0.00    +0.000 NA
ATOM     26  C   UNL     1      -4.437  15.500  24.213  0.00  0.00    +0.000 A 
ATOM     27  S   UNL     1      -5.880  15.181  23.351  0.00  0.00    +0.000 S 
ATOM     28  C   UNL     1      -5.157  13.776  22.682  0.00  0.00    +0.000 A 
ATOM     29  C   UNL     1      -5.932  12.900  21.753  0.00  0.00    +0.000 C 
ENDBRANCH  21  24
ENDBRANCH   4  20
TORSDOF 3
ENDMDL
MODEL 3
REMARK VINA RESULT:      -8.5      1.072      1.101
REMARK  Name = 
REMARK  5 active torsions:
REMARK  status: ('A' for Active; 'I' for Inactive)
REMARK    1  A    between atoms: C_1  and  C_2
REMARK    2  A    between atoms: N_10  and  C_11
REMARK    3  A    between atoms: C_14  and  N_15
REMARK    4  A    between atoms: C_16  and  C_18
REMARK    5  A    between atoms: C_22  and  C_23
REMARK                            x       y       z     vdW  Elec       q    Type
REMARK                         _______ _______ _______ _____ _____    ______ ____
ROOT
ATOM      1  C   UNL     1       1.465   8.279  20.130  0.00  0.00    +0.000 A 
ATOM      2  C   UNL     1       1.517   8.333  21.528  0.00  0.00    +0.000 A 
ATOM      3  C   UNL     1       0.718   9.202  22.271  0.00  0.00    +0.000 A 
ATOM      4  C   UNL     1      -0.175  10.060  21.644  0.00  0.00    +0.000 A 
ATOM      5  C   UNL     1      -0.172  10.073  20.242  0.00  0.00    +0.000 A 
ATOM      6  F   UNL     1      -1.002  10.906  19.591  0.00  0.00    +0.000 F 
ATOM      7  C   UNL     1       0.650   9.214  19.482  0.00  0.00    +0.000 A 
ENDROOT
BRANCH   1  17
ATOM      8  C   UNL     1       5.842   4.481  15.552  0.00  0.00    +0.000 C 
ATOM      9  C   UNL     1       4.881   4.741  16.678  0.00  0.00    +0.000 A 
ATOM     10  C   UNL     1       4.467   3.718  17.564  0.00  0.00    +0.000 A 
ATOM     11  C   UNL     1       3.609   3.988  18.650  0.00  0.00    +0.000 A 
ATOM     12  C   UNL     1       3.177   5.290  18.820  0.00  0.00    +0.000 A 
ATOM     13  C   UNL     1       3.555   6.267  17.928  0.00  0.00    +0.000 A 
ATOM     14  C   UNL     1       4.405   6.040  16.862  0.00  0.00    +0.000 A 
ATOM     15  C   UNL     1       2.942   7.511  18.335  0.00  0.00    +0.000 C 
ATOM     16  O   UNL     1       3.178   8.540  17.723  0.00  0.00    +0.000 OA
ATOM     17  N   UNL     1       2.185   7.257  19.461  0.00  0.00    +0.000 N 
ATOM     18  C   UNL     1       2.328   5.939  19.840  0.00  0.00    +0.000 C 
ATOM     19  O   UNL     1       1.871   5.336  20.796  0.00  0.00    +0.000 OA
ENDBRANCH   1  17
BRANCH   4  20
ATOM     20  N   UNL     1      -1.066  10.889  22.370  0.00  0.00    +0.000 N 
ATOM     21  C   UNL     1      -0.936  12.257  22.582  0.00  0.00    +0.000 C 
ATOM     22  O   UNL     1      -0.008  12.957  22.187  0.00  0.00    +0.000 OA
ATOM     23  H   UNL     1      -1.870  10.449  22.813  0.00  0.00    +0.000 HD
BRANCH  21  24
ATOM     24  C   UNL     1      -2.046  12.847  23.350  0.00  0.00    +0.000 A 
ATOM     25  N   UNL     1      -3.221  12.129  23.591  0.00  0.00    +0.000 NA
ATOM     26  C   UNL     1      -4.054  12.873  24.284  0.00  0.00    +0.000 A 
ATOM     27  S   UNL     1      -3.515  14.444  24.692  0.00  0.00    +0.000 S 
ATOM     28  C   UNL     1      -2.038  14.139  23.874  0.00  0.00    +0.000 A 
ATOM     29  C   UNL     1      -0.986  15.196  23.799  0.00  0.00    +0.000 C 
ENDBRANCH  21  24
ENDBRANCH   4  20
TORSDOF 3
ENDMDL
MODEL 4
REMARK VINA RESULT:      -8.5      2.101      2.942
REMARK  Name = 
REMARK  5 active torsions:
REMARK  status: ('A' for Active; 'I' for Inactive)
REMARK    1  A    between atoms: C_1  and  C_2
REMARK    2  A    between atoms: N_10  and  C_11
REMARK    3  A    between atoms: C_14  and  N_15
REMARK    4  A    between atoms: C_16  and  C_18
REMARK    5  A    between atoms: C_22  and  C_23
REMARK                            x       y       z     vdW  Elec       q    Type
REMARK                         _______ _______ _______ _____ _____    ______ ____
ROOT
ATOM      1  C   UNL     1       0.323  10.266  19.924  0.00  0.00    +0.000 A 
ATOM      2  C   UNL     1       0.685  11.045  21.028  0.00  0.00    +0.000 A 
ATOM      3  C   UNL     1      -0.151  12.031  21.552  0.00  0.00    +0.000 A 
ATOM      4  C   UNL     1      -1.395  12.282  20.990  0.00  0.00    +0.000 A 
ATOM      5  C   UNL     1      -1.730  11.566  19.832  0.00  0.00    +0.000 A 
ATOM      6  F   UNL     1      -2.914  11.793  19.238  0.00  0.00    +0.000 F 
ATOM      7  C   UNL     1      -0.879  10.582  19.282  0.00  0.00    +0.000 A 
ENDROOT
BRANCH   1  17
ATOM      8  C   UNL     1       5.067   5.775  16.479  0.00  0.00    +0.000 C 
ATOM      9  C   UNL     1       4.099   6.255  17.522  0.00  0.00    +0.000 A 
ATOM     10  C   UNL     1       3.829   5.512  18.696  0.00  0.00    +0.000 A 
ATOM     11  C   UNL     1       2.961   6.001  19.693  0.00  0.00    +0.000 A 
ATOM     12  C   UNL     1       2.373   7.234  19.486  0.00  0.00    +0.000 A 
ATOM     13  C   UNL     1       2.613   7.929  18.323  0.00  0.00    +0.000 A 
ATOM     14  C   UNL     1       3.468   7.485  17.331  0.00  0.00    +0.000 A 
ATOM     15  C   UNL     1       1.856   9.160  18.367  0.00  0.00    +0.000 C 
ATOM     16  O   UNL     1       1.953   9.973  17.463  0.00  0.00    +0.000 OA
ATOM     17  N   UNL     1       1.154   9.177  19.556  0.00  0.00    +0.000 N 
ATOM     18  C   UNL     1       1.466   8.063  20.306  0.00  0.00    +0.000 C 
ATOM     19  O   UNL     1       1.102   7.733  21.422  0.00  0.00    +0.000 OA
ENDBRANCH   1  17
BRANCH   4  20
ATOM     20  N   UNL     1      -2.307  13.210  21.551  0.00  0.00    +0.000 N 
ATOM     21  C   UNL     1      -3.153  12.988  22.632  0.00  0.00    +0.000 C 
ATOM     22  O   UNL     1      -3.255  11.936  23.257  0.00  0.00    +0.000 OA
ATOM     23  H   UNL     1      -2.385  14.125  21.111  0.00  0.00    +0.000 HD
BRANCH  21  24
ATOM     24  C   UNL     1      -3.961  14.162  23.005  0.00  0.00    +0.000 A 
ATOM     25  N   UNL     1      -5.055  14.563  22.230  0.00  0.00    +0.000 NA
ATOM     26  C   UNL     1      -5.599  15.634  22.764  0.00  0.00    +0.000 A 
ATOM     27  S   UNL     1      -4.871  16.228  24.193  0.00  0.00    +0.000 S 
ATOM     28  C   UNL     1      -3.711  14.967  24.114  0.00  0.00    +0.000 A 
ATOM     29  C   UNL     1      -2.633  14.869  25.144  0.00  0.00    +0.000 C 
ENDBRANCH  21  24
ENDBRANCH   4  20
TORSDOF 3
ENDMDL
MODEL 5
REMARK VINA RESULT:      -8.5      1.924      2.818
REMARK  Name = 
REMARK  5 active torsions:
REMARK  status: ('A' for Active; 'I' for Inactive)
REMARK    1  A    between atoms: C_1  and  C_2
REMARK    2  A    between atoms: N_10  and  C_11
REMARK    3  A    between atoms: C_14  and  N_15
REMARK    4  A    between atoms: C_16  and  C_18
REMARK    5  A    between atoms: C_22  and  C_23
REMARK                            x       y       z     vdW  Elec       q    Type
REMARK                         _______ _______ _______ _____ _____    ______ ____
ROOT
ATOM      1  C   UNL     1       0.469   9.994  19.874  0.00  0.00    +0.000 A 
ATOM      2  C   UNL     1       0.794  10.708  21.032  0.00  0.00    +0.000 A 
ATOM      3  C   UNL     1      -0.062  11.658  21.588  0.00  0.00    +0.000 A 
ATOM      4  C   UNL     1      -1.291  11.936  21.006  0.00  0.00    +0.000 A 
ATOM      5  C   UNL     1      -1.589  11.288  19.799  0.00  0.00    +0.000 A 
ATOM      6  F   UNL     1      -2.756  11.544  19.185  0.00  0.00    +0.000 F 
ATOM      7  C   UNL     1      -0.717  10.342  19.217  0.00  0.00    +0.000 A 
ENDROOT
BRANCH   1  17
ATOM      8  C   UNL     1       5.274   5.700  16.266  0.00  0.00    +0.000 C 
ATOM      9  C   UNL     1       4.302   6.129  17.328  0.00  0.00    +0.000 A 
ATOM     10  C   UNL     1       4.049   5.342  18.477  0.00  0.00    +0.000 A 
ATOM     11  C   UNL     1       3.176   5.783  19.493  0.00  0.00    +0.000 A 
ATOM     12  C   UNL     1       2.567   7.013  19.329  0.00  0.00    +0.000 A 
ATOM     13  C   UNL     1       2.791   7.750  18.189  0.00  0.00    +0.000 A 
ATOM     14  C   UNL     1       3.651   7.354  17.181  0.00  0.00    +0.000 A 
ATOM     15  C   UNL     1       2.014   8.966  18.277  0.00  0.00    +0.000 C 
ATOM     16  O   UNL     1       2.095   9.810  17.400  0.00  0.00    +0.000 OA
ATOM     17  N   UNL     1       1.316   8.932  19.468  0.00  0.00    +0.000 N 
ATOM     18  C   UNL     1       1.649   7.798  20.179  0.00  0.00    +0.000 C 
ATOM     19  O   UNL     1       1.295   7.425  21.284  0.00  0.00    +0.000 OA
ENDBRANCH   1  17
BRANCH   4  20
ATOM     20  N   UNL     1      -2.224  12.827  21.594  0.00  0.00    +0.000 N 
ATOM     21  C   UNL     1      -2.940  12.617  22.767  0.00  0.00    +0.000 C 
ATOM     22  O   UNL     1      -2.889  11.610  23.467  0.00  0.00    +0.000 OA
ATOM     23  H   UNL     1      -2.425  13.696  21.104  0.00  0.00    +0.000 HD
BRANCH  21  24
ATOM     24  C   UNL     1      -3.810  13.745  23.141  0.00  0.00    +0.000 A 
ATOM     25  N   UNL     1      -3.347  14.774  23.969  0.00  0.00    +0.000 NA
ATOM     26  C   UNL     1      -4.310  15.648  24.159  0.00  0.00    +0.000 A 
ATOM     27  S   UNL     1      -5.800  15.324  23.385  0.00  0.00    +0.000 S 
ATOM     28  C   UNL     1      -5.136  13.882  22.734  0.00  0.00    +0.000 A 
ATOM     29  C   UNL     1      -5.973  12.986  21.881  0.00  0.00    +0.000 C 
ENDBRANCH  21  24
ENDBRANCH   4  20
TORSDOF 3
ENDMDL
MODEL 6
REMARK VINA RESULT:      -8.4      1.947      3.094
REMARK  Name = 
REMARK  5 active torsions:
REMARK  status: ('A' for Active; 'I' for Inactive)
REMARK    1  A    between atoms: C_1  and  C_2
REMARK    2  A    between atoms: N_10  and  C_11
REMARK    3  A    between atoms: C_14  and  N_15
REMARK    4  A    between atoms: C_16  and  C_18
REMARK    5  A    between atoms: C_22  and  C_23
REMARK                            x       y       z     vdW  Elec       q    Type
REMARK                         _______ _______ _______ _____ _____    ______ ____
ROOT
ATOM      1  C   UNL     1       0.552  10.041  19.851  0.00  0.00    +0.000 A 
ATOM      2  C   UNL     1       0.895  10.766  20.998  0.00  0.00    +0.000 A 
ATOM      3  C   UNL     1       0.041  11.711  21.566  0.00  0.00    +0.000 A 
ATOM      4  C   UNL     1      -1.204  11.972  21.009  0.00  0.00    +0.000 A 
ATOM      5  C   UNL     1      -1.520  11.312  19.813  0.00  0.00    +0.000 A 
ATOM      6  F   UNL     1      -2.704  11.553  19.223  0.00  0.00    +0.000 F 
ATOM      7  C   UNL     1      -0.651  10.372  19.218  0.00  0.00    +0.000 A 
ENDROOT
BRANCH   1  17
ATOM      8  C   UNL     1       4.283   3.689  19.322  0.00  0.00    +0.000 C 
ATOM      9  C   UNL     1       3.805   5.067  18.962  0.00  0.00    +0.000 A 
ATOM     10  C   UNL     1       4.179   5.700  17.752  0.00  0.00    +0.000 A 
ATOM     11  C   UNL     1       3.678   6.971  17.401  0.00  0.00    +0.000 A 
ATOM     12  C   UNL     1       2.810   7.586  18.283  0.00  0.00    +0.000 A 
ATOM     13  C   UNL     1       2.486   6.977  19.473  0.00  0.00    +0.000 A 
ATOM     14  C   UNL     1       2.947   5.727  19.842  0.00  0.00    +0.000 A 
ATOM     15  C   UNL     1       1.589   7.850  20.197  0.00  0.00    +0.000 C 
ATOM     16  O   UNL     1       1.118   7.496  21.266  0.00  0.00    +0.000 OA
ATOM     17  N   UNL     1       1.402   8.985  19.434  0.00  0.00    +0.000 N 
ATOM     18  C   UNL     1       2.072   8.864  18.235  0.00  0.00    +0.000 C 
ATOM     19  O   UNL     1       2.120   9.616  17.276  0.00  0.00    +0.000 OA
ENDBRANCH   1  17
BRANCH   4  20
ATOM     20  N   UNL     1      -2.133  12.856  21.612  0.00  0.00    +0.000 N 
ATOM     21  C   UNL     1      -2.881  12.614  22.759  0.00  0.00    +0.000 C 
ATOM     22  O   UNL     1      -2.866  11.578  23.417  0.00  0.00    +0.000 OA
ATOM     23  H   UNL     1      -2.305  13.749  21.153  0.00  0.00    +0.000 HD
BRANCH  21  24
ATOM     24  C   UNL     1      -3.738  13.743  23.158  0.00  0.00    +0.000 A 
ATOM     25  N   UNL     1      -5.054  13.852  22.697  0.00  0.00    +0.000 NA
ATOM     26  C   UNL     1      -5.599  14.944  23.185  0.00  0.00    +0.000 A 
ATOM     27  S   UNL     1      -4.613  15.899  24.205  0.00  0.00    +0.000 S 
ATOM     28  C   UNL     1      -3.328  14.784  23.989  0.00  0.00    +0.000 A 
ATOM     29  C   UNL     1      -2.006  15.021  24.644  0.00  0.00    +0.000 C 
ENDBRANCH  21  24
ENDBRANCH   4  20
TORSDOF 3
ENDMDL
MODEL 7
REMARK VINA RESULT:      -8.4      1.422      2.432
REMARK  Name = 
REMARK  5 active torsions:
REMARK  status: ('A' for Active; 'I' for Inactive)
REMARK    1  A    between atoms: C_1  and  C_2
REMARK    2  A    between atoms: N_10  and  C_11
REMARK    3  A    between atoms: C_14  and  N_15
REMARK    4  A    between atoms: C_16  and  C_18
REMARK    5  A    between atoms: C_22  and  C_23
REMARK                            x       y       z     vdW  Elec       q    Type
REMARK                         _______ _______ _______ _____ _____    ______ ____
ROOT
ATOM      1  C   UNL     1       1.640   8.295  19.987  0.00  0.00    +0.000 A 
ATOM      2  C   UNL     1       1.568   8.396  21.381  0.00  0.00    +0.000 A 
ATOM      3  C   UNL     1       0.865   9.418  22.020  0.00  0.00    +0.000 A 
ATOM      4  C   UNL     1       0.198  10.389  21.286  0.00  0.00    +0.000 A 
ATOM      5  C   UNL     1       0.336  10.345  19.891  0.00  0.00    +0.000 A 
ATOM      6  F   UNL     1      -0.271  11.280  19.141  0.00  0.00    +0.000 F 
ATOM      7  C   UNL     1       1.065   9.328  19.238  0.00  0.00    +0.000 A 
ENDROOT
BRANCH   1  17
ATOM      8  C   UNL     1       3.615   1.362  18.384  0.00  0.00    +0.000 C 
ATOM      9  C   UNL     1       3.567   2.861  18.295  0.00  0.00    +0.000 A 
ATOM     10  C   UNL     1       4.252   3.576  17.284  0.00  0.00    +0.000 A 
ATOM     11  C   UNL     1       4.153   4.978  17.179  0.00  0.00    +0.000 A 
ATOM     12  C   UNL     1       3.366   5.639  18.103  0.00  0.00    +0.000 A 
ATOM     13  C   UNL     1       2.738   4.935  19.105  0.00  0.00    +0.000 A 
ATOM     14  C   UNL     1       2.802   3.560  19.229  0.00  0.00    +0.000 A 
ATOM     15  C   UNL     1       2.012   5.876  19.929  0.00  0.00    +0.000 C 
ATOM     16  O   UNL     1       1.326   5.477  20.856  0.00  0.00    +0.000 OA
ATOM     17  N   UNL     1       2.232   7.139  19.417  0.00  0.00    +0.000 N 
ATOM     18  C   UNL     1       3.002   7.059  18.276  0.00  0.00    +0.000 C 
ATOM     19  O   UNL     1       3.373   7.932  17.509  0.00  0.00    +0.000 OA
ENDBRANCH   1  17
BRANCH   4  20
ATOM     20  N   UNL     1      -0.601  11.386  21.900  0.00  0.00    +0.000 N 
ATOM     21  C   UNL     1      -0.271  12.728  22.058  0.00  0.00    +0.000 C 
ATOM     22  O   UNL     1       0.782  13.252  21.707  0.00  0.00    +0.000 OA
ATOM     23  H   UNL     1      -1.494  11.102  22.297  0.00  0.00    +0.000 HD
BRANCH  21  24
ATOM     24  C   UNL     1      -1.326  13.526  22.706  0.00  0.00    +0.000 A 
ATOM     25  N   UNL     1      -1.113  14.135  23.948  0.00  0.00    +0.000 NA
ATOM     26  C   UNL     1      -2.202  14.774  24.312  0.00  0.00    +0.000 A 
ATOM     27  S   UNL     1      -3.526  14.705  23.233  0.00  0.00    +0.000 S 
ATOM     28  C   UNL     1      -2.597  13.727  22.172  0.00  0.00    +0.000 A 
ATOM     29  C   UNL     1      -3.191  13.222  20.898  0.00  0.00    +0.000 C 
ENDBRANCH  21  24
ENDBRANCH   4  20
TORSDOF 3
ENDMDL
MODEL 8
REMARK VINA RESULT:      -8.4      1.719      2.089
REMARK  Name = 
REMARK  5 active torsions:
REMARK  status: ('A' for Active; 'I' for Inactive)
REMARK    1  A    between atoms: C_1  and  C_2
REMARK    2  A    between atoms: N_10  and  C_11
REMARK    3  A    between atoms: C_14  and  N_15
REMARK    4  A    between atoms: C_16  and  C_18
REMARK    5  A    between atoms: C_22  and  C_23
REMARK                            x       y       z     vdW  Elec       q    Type
REMARK                         _______ _______ _______ _____ _____    ______ ____
ROOT
ATOM      1  C   UNL     1       1.365   8.369  20.045  0.00  0.00    +0.000 A 
ATOM      2  C   UNL     1       0.620   9.317  19.335  0.00  0.00    +0.000 A 
ATOM      3  C   UNL     1      -0.097  10.331  19.970  0.00  0.00    +0.000 A 
ATOM      4  C   UNL     1      -0.100  10.441  21.354  0.00  0.00    +0.000 A 
ATOM      5  C   UNL     1       0.574   9.446  22.076  0.00  0.00    +0.000 A 
ATOM      6  F   UNL     1       0.577   9.496  23.419  0.00  0.00    +0.000 F 
ATOM      7  C   UNL     1       1.283   8.403  21.441  0.00  0.00    +0.000 A 
ENDROOT
BRANCH   1  17
ATOM      8  C   UNL     1       6.025   5.335  15.184  0.00  0.00    +0.000 C 
ATOM      9  C   UNL     1       5.097   5.433  16.361  0.00  0.00    +0.000 A 
ATOM     10  C   UNL     1       4.892   4.350  17.249  0.00  0.00    +0.000 A 
ATOM     11  C   UNL     1       4.060   4.474  18.381  0.00  0.00    +0.000 A 
ATOM     12  C   UNL     1       3.443   5.692  18.596  0.00  0.00    +0.000 A 
ATOM     13  C   UNL     1       3.620   6.724  17.704  0.00  0.00    +0.000 A 
ATOM     14  C   UNL     1       4.438   6.642  16.592  0.00  0.00    +0.000 A 
ATOM     15  C   UNL     1       2.846   7.855  18.163  0.00  0.00    +0.000 C 
ATOM     16  O   UNL     1       2.889   8.915  17.559  0.00  0.00    +0.000 OA
ATOM     17  N   UNL     1       2.197   7.477  19.322  0.00  0.00    +0.000 N 
ATOM     18  C   UNL     1       2.560   6.193  19.669  0.00  0.00    +0.000 C 
ATOM     19  O   UNL     1       2.252   5.517  20.636  0.00  0.00    +0.000 OA
ENDBRANCH   1  17
BRANCH   4  20
ATOM     20  N   UNL     1      -0.741  11.510  22.028  0.00  0.00    +0.000 N 
ATOM     21  C   UNL     1      -0.299  12.827  22.098  0.00  0.00    +0.000 C 
ATOM     22  O   UNL     1       0.736  13.262  21.601  0.00  0.00    +0.000 OA
ATOM     23  H   UNL     1      -1.595  11.304  22.543  0.00  0.00    +0.000 HD
BRANCH  21  24
ATOM     24  C   UNL     1      -1.203  13.717  22.845  0.00  0.00    +0.000 A 
ATOM     25  N   UNL     1      -0.822  14.273  24.072  0.00  0.00    +0.000 NA
ATOM     26  C   UNL     1      -1.801  15.016  24.537  0.00  0.00    +0.000 A 
ATOM     27  S   UNL     1      -3.212  15.112  23.575  0.00  0.00    +0.000 S 
ATOM     28  C   UNL     1      -2.486  14.065  22.426  0.00  0.00    +0.000 A 
ATOM     29  C   UNL     1      -3.236  13.653  21.202  0.00  0.00    +0.000 C 
ENDBRANCH  21  24
ENDBRANCH   4  20
TORSDOF 3
ENDMDL
MODEL 9
REMARK VINA RESULT:      -8.3      1.259      1.386
REMARK  Name = 
REMARK  5 active torsions:
REMARK  status: ('A' for Active; 'I' for Inactive)
REMARK    1  A    between atoms: C_1  and  C_2
REMARK    2  A    between atoms: N_10  and  C_11
REMARK    3  A    between atoms: C_14  and  N_15
REMARK    4  A    between atoms: C_16  and  C_18
REMARK    5  A    between atoms: C_22  and  C_23
REMARK                            x       y       z     vdW  Elec       q    Type
REMARK                         _______ _______ _______ _____ _____    ______ ____
ROOT
ATOM      1  C   UNL     1       1.691   8.205  19.833  0.00  0.00    +0.000 A 
ATOM      2  C   UNL     1       1.573   8.249  21.227  0.00  0.00    +0.000 A 
ATOM      3  C   UNL     1       0.868   9.256  21.885  0.00  0.00    +0.000 A 
ATOM      4  C   UNL     1       0.244  10.271  21.172  0.00  0.00    +0.000 A 
ATOM      5  C   UNL     1       0.429  10.282  19.781  0.00  0.00    +0.000 A 
ATOM      6  F   UNL     1      -0.135  11.260  19.052  0.00  0.00    +0.000 F 
ATOM      7  C   UNL     1       1.161   9.279  19.110  0.00  0.00    +0.000 A 
ENDROOT
BRANCH   1  17
ATOM      8  C   UNL     1       5.717   3.628  15.663  0.00  0.00    +0.000 C 
ATOM      9  C   UNL     1       4.729   4.070  16.705  0.00  0.00    +0.000 A 
ATOM     10  C   UNL     1       4.083   3.151  17.566  0.00  0.00    +0.000 A 
ATOM     11  C   UNL     1       3.200   3.585  18.576  0.00  0.00    +0.000 A 
ATOM     12  C   UNL     1       2.978   4.943  18.697  0.00  0.00    +0.000 A 
ATOM     13  C   UNL     1       3.582   5.823  17.828  0.00  0.00    +0.000 A 
ATOM     14  C   UNL     1       4.463   5.433  16.836  0.00  0.00    +0.000 A 
ATOM     15  C   UNL     1       3.154   7.161  18.170  0.00  0.00    +0.000 C 
ATOM     16  O   UNL     1       3.605   8.122  17.569  0.00  0.00    +0.000 OA
ATOM     17  N   UNL     1       2.281   7.062  19.235  0.00  0.00    +0.000 N 
ATOM     18  C   UNL     1       2.173   5.748  19.638  0.00  0.00    +0.000 C 
ATOM     19  O   UNL     1       1.549   5.252  20.561  0.00  0.00    +0.000 OA
ENDBRANCH   1  17
BRANCH   4  20
ATOM     20  N   UNL     1      -0.557  11.257  21.800  0.00  0.00    +0.000 N 
ATOM     21  C   UNL     1      -0.223  12.594  21.991  0.00  0.00    +0.000 C 
ATOM     22  O   UNL     1       0.834  13.122  21.661  0.00  0.00    +0.000 OA
ATOM     23  H   UNL     1      -1.454  10.967  22.183  0.00  0.00    +0.000 HD
BRANCH  21  24
ATOM     24  C   UNL     1      -1.281  13.380  22.647  0.00  0.00    +0.000 A 
ATOM     25  N   UNL     1      -1.084  13.946  23.912  0.00  0.00    +0.000 NA
ATOM     26  C   UNL     1      -2.172  14.585  24.279  0.00  0.00    +0.000 A 
ATOM     27  S   UNL     1      -3.479  14.565  23.175  0.00  0.00    +0.000 S 
ATOM     28  C   UNL     1      -2.541  13.614  22.099  0.00  0.00    +0.000 A 
ATOM     29  C   UNL     1      -3.118  13.157  20.799  0.00  0.00    +0.000 C 
ENDBRANCH  21  24
ENDBRANCH   4  20
TORSDOF 3
ENDMDL
