MODEL 1
REMARK VINA RESULT:      -7.5      0.000      0.000
REMARK  Name = 
REMARK  9 active torsions:
REMARK  status: ('A' for Active; 'I' for Inactive)
REMARK    1  A    between atoms: C_1  and  O_2
REMARK    2  A    between atoms: O_2  and  C_3
REMARK    3  A    between atoms: C_8  and  C_9
REMARK    4  A    between atoms: C_12  and  S_13
REMARK    5  A    between atoms: S_13  and  C_14
REMARK    6  A    between atoms: C_14  and  C_15
REMARK    7  A    between atoms: C_14  and  C_16
REMARK    8  A    between atoms: N_18  and  C_19
REMARK    9  A    between atoms: C_22  and  C_23
REMARK                            x       y       z     vdW  Elec       q    Type
REMARK                         _______ _______ _______ _____ _____    ______ ____
ROOT
ATOM      1  C   UNL     1       3.399   3.900  19.123  0.00  0.00    +0.000 C 
ATOM      2  C   UNL     1       2.914   3.444  20.496  0.00  0.00    +0.000 C 
ENDROOT
BRANCH   1   3
ATOM      3  C   UNL     1       2.596   5.124  18.662  0.00  0.00    +0.000 C 
ATOM      4  O   UNL     1       1.751   4.999  17.777  0.00  0.00    +0.000 OA
ATOM      5  N   UNL     1       2.880   6.305  19.340  0.00  0.00    +0.000 N 
ATOM      6  H   UNL     1       3.720   6.304  19.908  0.00  0.00    +0.000 HD
BRANCH   5   7
ATOM      7  C   UNL     1       2.232   7.547  19.171  0.00  0.00    +0.000 A 
ATOM      8  C   UNL     1       2.215   8.242  17.960  0.00  0.00    +0.000 A 
ATOM      9  C   UNL     1       1.559   9.472  17.840  0.00  0.00    +0.000 A 
ATOM     10  C   UNL     1       0.896  10.032  18.934  0.00  0.00    +0.000 A 
ATOM     11  C   UNL     1       0.906   9.337  20.152  0.00  0.00    +0.000 A 
ATOM     12  C   UNL     1       1.562   8.101  20.268  0.00  0.00    +0.000 A 
BRANCH  10  13
ATOM     13  C   UNL     1       0.170  11.332  18.863  0.00  0.00    +0.000 C 
ATOM     14  N   UNL     1       0.828  12.428  18.376  0.00  0.00    +0.000 N 
ATOM     15  O   UNL     1      -0.998  11.432  19.224  0.00  0.00    +0.000 OA
ATOM     16  H   UNL     1       1.774  12.437  18.038  0.00  0.00    +0.000 HD
ATOM     17  H   UNL     1       0.302  13.290  18.323  0.00  0.00    +0.000 HD
ENDBRANCH  10  13
ENDBRANCH   5   7
ENDBRANCH   1   3
BRANCH   1  18
ATOM     18  S   UNL     1       5.181   4.312  19.121  0.00  0.00    +0.000 S 
BRANCH  18  22
ATOM     19  C   UNL     1       5.748   4.988  15.408  0.00  0.00    +0.000 A 
ATOM     20  N   UNL     1       5.449   6.219  15.783  0.00  0.00    +0.000 NA
ATOM     21  N   UNL     1       5.222   6.177  17.143  0.00  0.00    +0.000 NA
ATOM     22  C   UNL     1       5.394   4.926  17.511  0.00  0.00    +0.000 A 
ATOM     23  O   UNL     1       5.739   4.117  16.463  0.00  0.00    +0.000 OA
BRANCH  19  29
ATOM     24  C   UNL     1       7.148   4.762  13.286  0.00  0.00    +0.000 A 
ATOM     25  C   UNL     1       7.323   4.134  12.040  0.00  0.00    +0.000 A 
ATOM     26  C   UNL     1       6.352   3.275  11.526  0.00  0.00    +0.000 A 
ATOM     27  C   UNL     1       5.199   3.024  12.254  0.00  0.00    +0.000 A 
ATOM     28  C   UNL     1       5.032   3.612  13.509  0.00  0.00    +0.000 A 
ATOM     29  C   UNL     1       6.004   4.473  14.060  0.00  0.00    +0.000 A 
BRANCH  24  31
ATOM     30  C   UNL     1       9.035   6.129  12.849  0.00  0.00    +0.000 C 
ATOM     31  O   UNL     1       8.089   5.626  13.791  0.00  0.00    +0.000 OA
ENDBRANCH  24  31
ENDBRANCH  19  29
ENDBRANCH  18  22
ENDBRANCH   1  18
TORSDOF 7
ENDMDL
MODEL 2
REMARK VINA RESULT:      -7.5      5.406      7.685
REMARK  Name = 
REMARK  9 active torsions:
REMARK  status: ('A' for Active; 'I' for Inactive)
REMARK    1  A    between atoms: C_1  and  O_2
REMARK    2  A    between atoms: O_2  and  C_3
REMARK    3  A    between atoms: C_8  and  C_9
REMARK    4  A    between atoms: C_12  and  S_13
REMARK    5  A    between atoms: S_13  and  C_14
REMARK    6  A    between atoms: C_14  and  C_15
REMARK    7  A    between atoms: C_14  and  C_16
REMARK    8  A    between atoms: N_18  and  C_19
REMARK    9  A    between atoms: C_22  and  C_23
REMARK                            x       y       z     vdW  Elec       q    Type
REMARK                         _______ _______ _______ _____ _____    ______ ____
ROOT
ATOM      1  C   UNL     1       7.330   6.501  18.358  0.00  0.00    +0.000 C 
ATOM      2  C   UNL     1       8.290   5.823  19.332  0.00  0.00    +0.000 C 
ENDROOT
BRANCH   1   3
ATOM      3  C   UNL     1       7.813   7.924  18.049  0.00  0.00    +0.000 C 
ATOM      4  O   UNL     1       7.421   8.493  17.031  0.00  0.00    +0.000 OA
ATOM      5  N   UNL     1       8.656   8.481  19.005  0.00  0.00    +0.000 N 
ATOM      6  H   UNL     1       9.042   7.840  19.690  0.00  0.00    +0.000 HD
BRANCH   5   7
ATOM      7  C   UNL     1       9.173   9.795  19.006  0.00  0.00    +0.000 A 
ATOM      8  C   UNL     1       9.552  10.467  17.843  0.00  0.00    +0.000 A 
ATOM      9  C   UNL     1      10.061  11.770  17.893  0.00  0.00    +0.000 A 
ATOM     10  C   UNL     1      10.194  12.432  19.114  0.00  0.00    +0.000 A 
ATOM     11  C   UNL     1       9.812  11.763  20.287  0.00  0.00    +0.000 A 
ATOM     12  C   UNL     1       9.298  10.458  20.232  0.00  0.00    +0.000 A 
BRANCH  10  13
ATOM     13  C   UNL     1      10.718  13.824  19.229  0.00  0.00    +0.000 C 
ATOM     14  N   UNL     1      11.076  14.293  20.463  0.00  0.00    +0.000 N 
ATOM     15  O   UNL     1      10.840  14.543  18.244  0.00  0.00    +0.000 OA
ATOM     16  H   UNL     1      11.033  13.771  21.320  0.00  0.00    +0.000 HD
ATOM     17  H   UNL     1      11.445  15.234  20.504  0.00  0.00    +0.000 HD
ENDBRANCH  10  13
ENDBRANCH   5   7
ENDBRANCH   1   3
BRANCH   1  18
ATOM     18  S   UNL     1       7.158   5.569  16.794  0.00  0.00    +0.000 S 
BRANCH  18  22
ATOM     19  C   UNL     1       4.007   3.833  18.066  0.00  0.00    +0.000 A 
ATOM     20  N   UNL     1       3.819   3.645  16.772  0.00  0.00    +0.000 NA
ATOM     21  N   UNL     1       4.901   4.207  16.126  0.00  0.00    +0.000 NA
ATOM     22  C   UNL     1       5.678   4.704  17.066  0.00  0.00    +0.000 A 
ATOM     23  O   UNL     1       5.177   4.494  18.321  0.00  0.00    +0.000 OA
BRANCH  19  29
ATOM     24  C   UNL     1       3.512   2.793  20.344  0.00  0.00    +0.000 A 
ATOM     25  C   UNL     1       2.589   2.606  21.388  0.00  0.00    +0.000 A 
ATOM     26  C   UNL     1       1.272   3.048  21.271  0.00  0.00    +0.000 A 
ATOM     27  C   UNL     1       0.861   3.691  20.113  0.00  0.00    +0.000 A 
ATOM     28  C   UNL     1       1.778   3.916  19.085  0.00  0.00    +0.000 A 
ATOM     29  C   UNL     1       3.121   3.493  19.182  0.00  0.00    +0.000 A 
BRANCH  24  31
ATOM     30  C   UNL     1       5.000   0.956  20.171  0.00  0.00    +0.000 C 
ATOM     31  O   UNL     1       4.806   2.343  20.442  0.00  0.00    +0.000 OA
ENDBRANCH  24  31
ENDBRANCH  19  29
ENDBRANCH  18  22
ENDBRANCH   1  18
TORSDOF 7
ENDMDL
MODEL 3
REMARK VINA RESULT:      -7.5      2.205      3.586
REMARK  Name = 
REMARK  9 active torsions:
REMARK  status: ('A' for Active; 'I' for Inactive)
REMARK    1  A    between atoms: C_1  and  O_2
REMARK    2  A    between atoms: O_2  and  C_3
REMARK    3  A    between atoms: C_8  and  C_9
REMARK    4  A    between atoms: C_12  and  S_13
REMARK    5  A    between atoms: S_13  and  C_14
REMARK    6  A    between atoms: C_14  and  C_15
REMARK    7  A    between atoms: C_14  and  C_16
REMARK    8  A    between atoms: N_18  and  C_19
REMARK    9  A    between atoms: C_22  and  C_23
REMARK                            x       y       z     vdW  Elec       q    Type
REMARK                         _______ _______ _______ _____ _____    ______ ____
ROOT
ATOM      1  C   UNL     1       1.815   2.703  20.428  0.00  0.00    +0.000 C 
ATOM      2  C   UNL     1       2.364   3.051  21.809  0.00  0.00    +0.000 C 
ENDROOT
BRANCH   1   3
ATOM      3  C   UNL     1       1.600   3.984  19.610  0.00  0.00    +0.000 C 
ATOM      4  O   UNL     1       0.844   3.967  18.641  0.00  0.00    +0.000 OA
ATOM      5  N   UNL     1       2.278   5.104  20.079  0.00  0.00    +0.000 N 
ATOM      6  H   UNL     1       3.004   4.933  20.766  0.00  0.00    +0.000 HD
BRANCH   5   7
ATOM      7  C   UNL     1       2.191   6.415  19.565  0.00  0.00    +0.000 A 
ATOM      8  C   UNL     1       2.746   6.795  18.342  0.00  0.00    +0.000 A 
ATOM      9  C   UNL     1       2.634   8.109  17.872  0.00  0.00    +0.000 A 
ATOM     10  C   UNL     1       1.954   9.072  18.619  0.00  0.00    +0.000 A 
ATOM     11  C   UNL     1       1.391   8.697  19.847  0.00  0.00    +0.000 A 
ATOM     12  C   UNL     1       1.501   7.377  20.312  0.00  0.00    +0.000 A 
BRANCH  10  13
ATOM     13  C   UNL     1       1.793  10.484  18.165  0.00  0.00    +0.000 C 
ATOM     14  N   UNL     1       0.624  11.136  18.447  0.00  0.00    +0.000 N 
ATOM     15  O   UNL     1       2.685  11.065  17.556  0.00  0.00    +0.000 OA
ATOM     16  H   UNL     1      -0.150  10.751  18.957  0.00  0.00    +0.000 HD
ATOM     17  H   UNL     1       0.554  12.098  18.142  0.00  0.00    +0.000 HD
ENDBRANCH  10  13
ENDBRANCH   5   7
ENDBRANCH   1   3
BRANCH   1  18
ATOM     18  S   UNL     1       2.922   1.577  19.507  0.00  0.00    +0.000 S 
BRANCH  18  22
ATOM     19  C   UNL     1       5.104   4.210  17.812  0.00  0.00    +0.000 A 
ATOM     20  N   UNL     1       4.513   3.729  16.733  0.00  0.00    +0.000 NA
ATOM     21  N   UNL     1       3.645   2.745  17.160  0.00  0.00    +0.000 NA
ATOM     22  C   UNL     1       3.762   2.687  18.469  0.00  0.00    +0.000 A 
ATOM     23  O   UNL     1       4.664   3.596  18.952  0.00  0.00    +0.000 OA
BRANCH  19  29
ATOM     24  C   UNL     1       6.547   6.092  16.868  0.00  0.00    +0.000 A 
ATOM     25  C   UNL     1       7.518   7.079  17.111  0.00  0.00    +0.000 A 
ATOM     26  C   UNL     1       8.154   7.172  18.349  0.00  0.00    +0.000 A 
ATOM     27  C   UNL     1       7.824   6.285  19.361  0.00  0.00    +0.000 A 
ATOM     28  C   UNL     1       6.834   5.325  19.144  0.00  0.00    +0.000 A 
ATOM     29  C   UNL     1       6.163   5.218  17.908  0.00  0.00    +0.000 A 
BRANCH  24  31
ATOM     30  C   UNL     1       6.658   5.268  14.648  0.00  0.00    +0.000 C 
ATOM     31  O   UNL     1       5.929   5.980  15.646  0.00  0.00    +0.000 OA
ENDBRANCH  24  31
ENDBRANCH  19  29
ENDBRANCH  18  22
ENDBRANCH   1  18
TORSDOF 7
ENDMDL
MODEL 4
REMARK VINA RESULT:      -7.4      3.894      6.757
REMARK  Name = 
REMARK  9 active torsions:
REMARK  status: ('A' for Active; 'I' for Inactive)
REMARK    1  A    between atoms: C_1  and  O_2
REMARK    2  A    between atoms: O_2  and  C_3
REMARK    3  A    between atoms: C_8  and  C_9
REMARK    4  A    between atoms: C_12  and  S_13
REMARK    5  A    between atoms: S_13  and  C_14
REMARK    6  A    between atoms: C_14  and  C_15
REMARK    7  A    between atoms: C_14  and  C_16
REMARK    8  A    between atoms: N_18  and  C_19
REMARK    9  A    between atoms: C_22  and  C_23
REMARK                            x       y       z     vdW  Elec       q    Type
REMARK                         _______ _______ _______ _____ _____    ______ ____
ROOT
ATOM      1  C   UNL     1       1.305  10.585  19.130  0.00  0.00    +0.000 C 
ATOM      2  C   UNL     1       1.735  12.040  18.960  0.00  0.00    +0.000 C 
ENDROOT
BRANCH   1   3
ATOM      3  C   UNL     1      -0.226  10.486  19.126  0.00  0.00    +0.000 C 
ATOM      4  O   UNL     1      -0.790   9.756  19.939  0.00  0.00    +0.000 OA
ATOM      5  N   UNL     1      -0.867  11.292  18.192  0.00  0.00    +0.000 N 
ATOM      6  H   UNL     1      -0.280  11.695  17.470  0.00  0.00    +0.000 HD
BRANCH   5   7
ATOM      7  C   UNL     1      -2.261  11.452  18.036  0.00  0.00    +0.000 A 
ATOM      8  C   UNL     1      -2.939  11.135  16.857  0.00  0.00    +0.000 A 
ATOM      9  C   UNL     1      -4.323  11.310  16.748  0.00  0.00    +0.000 A 
ATOM     10  C   UNL     1      -5.062  11.803  17.825  0.00  0.00    +0.000 A 
ATOM     11  C   UNL     1      -4.387  12.119  19.014  0.00  0.00    +0.000 A 
ATOM     12  C   UNL     1      -2.999  11.938  19.121  0.00  0.00    +0.000 A 
BRANCH  10  13
ATOM     13  C   UNL     1      -6.539  12.000  17.773  0.00  0.00    +0.000 C 
ATOM     14  N   UNL     1      -7.062  12.799  16.794  0.00  0.00    +0.000 N 
ATOM     15  O   UNL     1      -7.285  11.455  18.580  0.00  0.00    +0.000 OA
ATOM     16  H   UNL     1      -6.534  13.266  16.079  0.00  0.00    +0.000 HD
ATOM     17  H   UNL     1      -8.069  12.896  16.774  0.00  0.00    +0.000 HD
ENDBRANCH  10  13
ENDBRANCH   5   7
ENDBRANCH   1   3
BRANCH   1  18
ATOM     18  S   UNL     1       1.983   9.507  17.818  0.00  0.00    +0.000 S 
BRANCH  18  22
ATOM     19  C   UNL     1       2.390   5.902  19.002  0.00  0.00    +0.000 A 
ATOM     20  N   UNL     1       2.214   6.471  20.180  0.00  0.00    +0.000 NA
ATOM     21  N   UNL     1       2.027   7.818  19.948  0.00  0.00    +0.000 NA
ATOM     22  C   UNL     1       2.101   7.985  18.645  0.00  0.00    +0.000 A 
ATOM     23  O   UNL     1       2.321   6.810  17.981  0.00  0.00    +0.000 OA
BRANCH  19  29
ATOM     24  C   UNL     1       2.045   3.385  19.253  0.00  0.00    +0.000 A 
ATOM     25  C   UNL     1       2.372   2.092  18.808  0.00  0.00    +0.000 A 
ATOM     26  C   UNL     1       3.379   1.890  17.864  0.00  0.00    +0.000 A 
ATOM     27  C   UNL     1       4.066   2.977  17.346  0.00  0.00    +0.000 A 
ATOM     28  C   UNL     1       3.724   4.268  17.751  0.00  0.00    +0.000 A 
ATOM     29  C   UNL     1       2.700   4.504  18.693  0.00  0.00    +0.000 A 
BRANCH  24  31
ATOM     30  C   UNL     1       1.358   3.099  21.503  0.00  0.00    +0.000 C 
ATOM     31  O   UNL     1       1.069   3.593  20.197  0.00  0.00    +0.000 OA
ENDBRANCH  24  31
ENDBRANCH  19  29
ENDBRANCH  18  22
ENDBRANCH   1  18
TORSDOF 7
ENDMDL
MODEL 5
REMARK VINA RESULT:      -7.4      5.231      7.405
REMARK  Name = 
REMARK  9 active torsions:
REMARK  status: ('A' for Active; 'I' for Inactive)
REMARK    1  A    between atoms: C_1  and  O_2
REMARK    2  A    between atoms: O_2  and  C_3
REMARK    3  A    between atoms: C_8  and  C_9
REMARK    4  A    between atoms: C_12  and  S_13
REMARK    5  A    between atoms: S_13  and  C_14
REMARK    6  A    between atoms: C_14  and  C_15
REMARK    7  A    between atoms: C_14  and  C_16
REMARK    8  A    between atoms: N_18  and  C_19
REMARK    9  A    between atoms: C_22  and  C_23
REMARK                            x       y       z     vdW  Elec       q    Type
REMARK                         _______ _______ _______ _____ _____    ______ ____
ROOT
ATOM      1  C   UNL     1       7.467   6.242  18.482  0.00  0.00    +0.000 C 
ATOM      2  C   UNL     1       8.389   5.713  19.577  0.00  0.00    +0.000 C 
ENDROOT
BRANCH   1   3
ATOM      3  C   UNL     1       7.889   7.661  18.080  0.00  0.00    +0.000 C 
ATOM      4  O   UNL     1       7.587   8.094  16.969  0.00  0.00    +0.000 OA
ATOM      5  N   UNL     1       8.570   8.374  19.061  0.00  0.00    +0.000 N 
ATOM      6  H   UNL     1       8.911   7.836  19.850  0.00  0.00    +0.000 HD
BRANCH   5   7
ATOM      7  C   UNL     1       8.995   9.718  18.980  0.00  0.00    +0.000 A 
ATOM      8  C   UNL     1       9.722  10.350  19.990  0.00  0.00    +0.000 A 
ATOM      9  C   UNL     1      10.121  11.686  19.866  0.00  0.00    +0.000 A 
ATOM     10  C   UNL     1       9.805  12.417  18.720  0.00  0.00    +0.000 A 
ATOM     11  C   UNL     1       9.077  11.786  17.700  0.00  0.00    +0.000 A 
ATOM     12  C   UNL     1       8.682  10.445  17.826  0.00  0.00    +0.000 A 
BRANCH  10  13
ATOM     13  C   UNL     1      10.213  13.838  18.527  0.00  0.00    +0.000 C 
ATOM     14  N   UNL     1      10.129  14.383  17.275  0.00  0.00    +0.000 N 
ATOM     15  O   UNL     1      10.610  14.522  19.464  0.00  0.00    +0.000 OA
ATOM     16  H   UNL     1       9.795  13.909  16.455  0.00  0.00    +0.000 HD
ATOM     17  H   UNL     1      10.395  15.354  17.182  0.00  0.00    +0.000 HD
ENDBRANCH  10  13
ENDBRANCH   5   7
ENDBRANCH   1   3
BRANCH   1  18
ATOM     18  S   UNL     1       7.466   5.170  17.000  0.00  0.00    +0.000 S 
BRANCH  18  22
ATOM     19  C   UNL     1       3.884   4.024  17.646  0.00  0.00    +0.000 A 
ATOM     20  N   UNL     1       3.862   3.982  16.326  0.00  0.00    +0.000 NA
ATOM     21  N   UNL     1       5.117   4.360  15.895  0.00  0.00    +0.000 NA
ATOM     22  C   UNL     1       5.823   4.609  16.978  0.00  0.00    +0.000 A 
ATOM     23  O   UNL     1       5.107   4.407  18.125  0.00  0.00    +0.000 OA
BRANCH  19  29
ATOM     24  C   UNL     1       2.394   4.677  19.614  0.00  0.00    +0.000 A 
ATOM     25  C   UNL     1       1.268   4.376  20.401  0.00  0.00    +0.000 A 
ATOM     26  C   UNL     1       0.572   3.180  20.232  0.00  0.00    +0.000 A 
ATOM     27  C   UNL     1       0.984   2.273  19.267  0.00  0.00    +0.000 A 
ATOM     28  C   UNL     1       2.075   2.578  18.453  0.00  0.00    +0.000 A 
ATOM     29  C   UNL     1       2.790   3.787  18.592  0.00  0.00    +0.000 A 
BRANCH  24  31
ATOM     30  C   UNL     1       2.473   7.023  19.288  0.00  0.00    +0.000 C 
ATOM     31  O   UNL     1       3.099   5.843  19.787  0.00  0.00    +0.000 OA
ENDBRANCH  24  31
ENDBRANCH  19  29
ENDBRANCH  18  22
ENDBRANCH   1  18
TORSDOF 7
ENDMDL
MODEL 6
REMARK VINA RESULT:      -7.2      2.207      3.714
REMARK  Name = 
REMARK  9 active torsions:
REMARK  status: ('A' for Active; 'I' for Inactive)
REMARK    1  A    between atoms: C_1  and  O_2
REMARK    2  A    between atoms: O_2  and  C_3
REMARK    3  A    between atoms: C_8  and  C_9
REMARK    4  A    between atoms: C_12  and  S_13
REMARK    5  A    between atoms: S_13  and  C_14
REMARK    6  A    between atoms: C_14  and  C_15
REMARK    7  A    between atoms: C_14  and  C_16
REMARK    8  A    between atoms: N_18  and  C_19
REMARK    9  A    between atoms: C_22  and  C_23
REMARK                            x       y       z     vdW  Elec       q    Type
REMARK                         _______ _______ _______ _____ _____    ______ ____
ROOT
ATOM      1  C   UNL     1       1.644   2.740  20.766  0.00  0.00    +0.000 C 
ATOM      2  C   UNL     1       2.602   3.017  21.921  0.00  0.00    +0.000 C 
ENDROOT
BRANCH   1   3
ATOM      3  C   UNL     1       1.247   4.057  20.085  0.00  0.00    +0.000 C 
ATOM      4  O   UNL     1       0.222   4.107  19.408  0.00  0.00    +0.000 OA
ATOM      5  N   UNL     1       2.097   5.129  20.335  0.00  0.00    +0.000 N 
ATOM      6  H   UNL     1       2.994   4.903  20.751  0.00  0.00    +0.000 HD
BRANCH   5   7
ATOM      7  C   UNL     1       1.919   6.461  19.902  0.00  0.00    +0.000 A 
ATOM      8  C   UNL     1       1.437   7.476  20.731  0.00  0.00    +0.000 A 
ATOM      9  C   UNL     1       1.276   8.783  20.258  0.00  0.00    +0.000 A 
ATOM     10  C   UNL     1       1.602   9.103  18.939  0.00  0.00    +0.000 A 
ATOM     11  C   UNL     1       2.090   8.089  18.101  0.00  0.00    +0.000 A 
ATOM     12  C   UNL     1       2.254   6.780  18.582  0.00  0.00    +0.000 A 
BRANCH  10  13
ATOM     13  C   UNL     1       1.464  10.480  18.381  0.00  0.00    +0.000 C 
ATOM     14  N   UNL     1       0.223  10.915  18.003  0.00  0.00    +0.000 N 
ATOM     15  O   UNL     1       2.433  11.222  18.265  0.00  0.00    +0.000 OA
ATOM     16  H   UNL     1      -0.628  10.388  18.082  0.00  0.00    +0.000 HD
ATOM     17  H   UNL     1       0.160  11.859  17.647  0.00  0.00    +0.000 HD
ENDBRANCH  10  13
ENDBRANCH   5   7
ENDBRANCH   1   3
BRANCH   1  18
ATOM     18  S   UNL     1       2.368   1.612  19.522  0.00  0.00    +0.000 S 
BRANCH  18  22
ATOM     19  C   UNL     1       4.665   4.166  17.859  0.00  0.00    +0.000 A 
ATOM     20  N   UNL     1       3.950   3.833  16.799  0.00  0.00    +0.000 NA
ATOM     21  N   UNL     1       3.024   2.901  17.220  0.00  0.00    +0.000 NA
ATOM     22  C   UNL     1       3.233   2.723  18.506  0.00  0.00    +0.000 A 
ATOM     23  O   UNL     1       4.254   3.501  18.981  0.00  0.00    +0.000 OA
BRANCH  19  29
ATOM     24  C   UNL     1       6.314   5.853  16.884  0.00  0.00    +0.000 A 
ATOM     25  C   UNL     1       7.379   6.741  17.115  0.00  0.00    +0.000 A 
ATOM     26  C   UNL     1       8.001   6.808  18.361  0.00  0.00    +0.000 A 
ATOM     27  C   UNL     1       7.563   5.996  19.395  0.00  0.00    +0.000 A 
ATOM     28  C   UNL     1       6.481   5.138  19.189  0.00  0.00    +0.000 A 
ATOM     29  C   UNL     1       5.823   5.060  17.943  0.00  0.00    +0.000 A 
BRANCH  24  31
ATOM     30  C   UNL     1       6.454   5.090  14.644  0.00  0.00    +0.000 C 
ATOM     31  O   UNL     1       5.708   5.766  15.655  0.00  0.00    +0.000 OA
ENDBRANCH  24  31
ENDBRANCH  19  29
ENDBRANCH  18  22
ENDBRANCH   1  18
TORSDOF 7
ENDMDL
MODEL 7
REMARK VINA RESULT:      -7.2      2.229      8.665
REMARK  Name = 
REMARK  9 active torsions:
REMARK  status: ('A' for Active; 'I' for Inactive)
REMARK    1  A    between atoms: C_1  and  O_2
REMARK    2  A    between atoms: O_2  and  C_3
REMARK    3  A    between atoms: C_8  and  C_9
REMARK    4  A    between atoms: C_12  and  S_13
REMARK    5  A    between atoms: S_13  and  C_14
REMARK    6  A    between atoms: C_14  and  C_15
REMARK    7  A    between atoms: C_14  and  C_16
REMARK    8  A    between atoms: N_18  and  C_19
REMARK    9  A    between atoms: C_22  and  C_23
REMARK                            x       y       z     vdW  Elec       q    Type
REMARK                         _______ _______ _______ _____ _____    ______ ____
ROOT
ATOM      1  C   UNL     1       2.419   3.197  19.306  0.00  0.00    +0.000 C 
ATOM      2  C   UNL     1       1.202   3.572  18.465  0.00  0.00    +0.000 C 
ENDROOT
BRANCH   1   3
ATOM      3  C   UNL     1       3.708   3.549  18.552  0.00  0.00    +0.000 C 
ATOM      4  O   UNL     1       4.799   3.332  19.077  0.00  0.00    +0.000 OA
ATOM      5  N   UNL     1       3.521   4.068  17.276  0.00  0.00    +0.000 N 
ATOM      6  H   UNL     1       2.579   4.365  17.046  0.00  0.00    +0.000 HD
BRANCH   5   7
ATOM      7  C   UNL     1       4.531   4.395  16.345  0.00  0.00    +0.000 A 
ATOM      8  C   UNL     1       4.999   5.695  16.152  0.00  0.00    +0.000 A 
ATOM      9  C   UNL     1       6.004   5.972  15.217  0.00  0.00    +0.000 A 
ATOM     10  C   UNL     1       6.567   4.945  14.457  0.00  0.00    +0.000 A 
ATOM     11  C   UNL     1       6.103   3.635  14.650  0.00  0.00    +0.000 A 
ATOM     12  C   UNL     1       5.099   3.361  15.592  0.00  0.00    +0.000 A 
BRANCH  10  13
ATOM     13  C   UNL     1       7.647   5.177  13.455  0.00  0.00    +0.000 C 
ATOM     14  N   UNL     1       7.542   4.587  12.226  0.00  0.00    +0.000 N 
ATOM     15  O   UNL     1       8.613   5.887  13.711  0.00  0.00    +0.000 OA
ATOM     16  H   UNL     1       6.779   4.010  11.920  0.00  0.00    +0.000 HD
ATOM     17  H   UNL     1       8.281   4.779  11.563  0.00  0.00    +0.000 HD
ENDBRANCH  10  13
ENDBRANCH   5   7
ENDBRANCH   1   3
BRANCH   1  18
ATOM     18  S   UNL     1       2.422   4.037  20.931  0.00  0.00    +0.000 S 
BRANCH  18  22
ATOM     19  C   UNL     1       1.458   7.701  20.477  0.00  0.00    +0.000 A 
ATOM     20  N   UNL     1       2.334   7.611  19.492  0.00  0.00    +0.000 NA
ATOM     21  N   UNL     1       2.795   6.310  19.487  0.00  0.00    +0.000 NA
ATOM     22  C   UNL     1       2.172   5.691  20.467  0.00  0.00    +0.000 A 
ATOM     23  O   UNL     1       1.302   6.511  21.132  0.00  0.00    +0.000 OA
BRANCH  19  29
ATOM     24  C   UNL     1       0.246   9.922  20.137  0.00  0.00    +0.000 A 
ATOM     25  C   UNL     1      -0.516  10.958  20.707  0.00  0.00    +0.000 A 
ATOM     26  C   UNL     1      -0.747  11.007  22.081  0.00  0.00    +0.000 A 
ATOM     27  C   UNL     1      -0.229  10.018  22.903  0.00  0.00    +0.000 A 
ATOM     28  C   UNL     1       0.495   8.965  22.345  0.00  0.00    +0.000 A 
ATOM     29  C   UNL     1       0.733   8.880  20.957  0.00  0.00    +0.000 A 
BRANCH  24  31
ATOM     30  C   UNL     1      -0.644  10.010  17.942  0.00  0.00    +0.000 C 
ATOM     31  O   UNL     1       0.497   9.876  18.788  0.00  0.00    +0.000 OA
ENDBRANCH  24  31
ENDBRANCH  19  29
ENDBRANCH  18  22
ENDBRANCH   1  18
TORSDOF 7
ENDMDL
MODEL 8
REMARK VINA RESULT:      -7.1      2.022      2.614
REMARK  Name = 
REMARK  9 active torsions:
REMARK  status: ('A' for Active; 'I' for Inactive)
REMARK    1  A    between atoms: C_1  and  O_2
REMARK    2  A    between atoms: O_2  and  C_3
REMARK    3  A    between atoms: C_8  and  C_9
REMARK    4  A    between atoms: C_12  and  S_13
REMARK    5  A    between atoms: S_13  and  C_14
REMARK    6  A    between atoms: C_14  and  C_15
REMARK    7  A    between atoms: C_14  and  C_16
REMARK    8  A    between atoms: N_18  and  C_19
REMARK    9  A    between atoms: C_22  and  C_23
REMARK                            x       y       z     vdW  Elec       q    Type
REMARK                         _______ _______ _______ _____ _____    ______ ____
ROOT
ATOM      1  C   UNL     1       1.568   3.246  20.469  0.00  0.00    +0.000 C 
ATOM      2  C   UNL     1       2.262   3.519  21.801  0.00  0.00    +0.000 C 
ENDROOT
BRANCH   1   3
ATOM      3  C   UNL     1       1.515   4.530  19.631  0.00  0.00    +0.000 C 
ATOM      4  O   UNL     1       1.142   4.478  18.460  0.00  0.00    +0.000 OA
ATOM      5  N   UNL     1       1.872   5.691  20.309  0.00  0.00    +0.000 N 
ATOM      6  H   UNL     1       2.333   5.564  21.203  0.00  0.00    +0.000 HD
BRANCH   5   7
ATOM      7  C   UNL     1       1.830   7.007  19.800  0.00  0.00    +0.000 A 
ATOM      8  C   UNL     1       2.379   7.368  18.568  0.00  0.00    +0.000 A 
ATOM      9  C   UNL     1       2.314   8.687  18.104  0.00  0.00    +0.000 A 
ATOM     10  C   UNL     1       1.689   9.676  18.866  0.00  0.00    +0.000 A 
ATOM     11  C   UNL     1       1.132   9.319  20.103  0.00  0.00    +0.000 A 
ATOM     12  C   UNL     1       1.196   7.994  20.563  0.00  0.00    +0.000 A 
BRANCH  10  13
ATOM     13  C   UNL     1       1.578  11.094  18.419  0.00  0.00    +0.000 C 
ATOM     14  N   UNL     1       2.562  11.612  17.623  0.00  0.00    +0.000 N 
ATOM     15  O   UNL     1       0.624  11.793  18.745  0.00  0.00    +0.000 OA
ATOM     16  H   UNL     1       3.365  11.111  17.289  0.00  0.00    +0.000 HD
ATOM     17  H   UNL     1       2.447  12.571  17.322  0.00  0.00    +0.000 HD
ENDBRANCH  10  13
ENDBRANCH   5   7
ENDBRANCH   1   3
BRANCH   1  18
ATOM     18  S   UNL     1       2.406   1.934  19.509  0.00  0.00    +0.000 S 
BRANCH  18  22
ATOM     19  C   UNL     1       5.269   3.720  17.727  0.00  0.00    +0.000 A 
ATOM     20  N   UNL     1       5.733   3.799  18.961  0.00  0.00    +0.000 NA
ATOM     21  N   UNL     1       4.812   3.172  19.774  0.00  0.00    +0.000 NA
ATOM     22  C   UNL     1       3.846   2.751  18.986  0.00  0.00    +0.000 A 
ATOM     23  O   UNL     1       4.074   3.056  17.672  0.00  0.00    +0.000 OA
BRANCH  19  29
ATOM     24  C   UNL     1       6.369   5.587  16.378  0.00  0.00    +0.000 A 
ATOM     25  C   UNL     1       6.956   5.987  15.164  0.00  0.00    +0.000 A 
ATOM     26  C   UNL     1       6.955   5.144  14.053  0.00  0.00    +0.000 A 
ATOM     27  C   UNL     1       6.376   3.888  14.142  0.00  0.00    +0.000 A 
ATOM     28  C   UNL     1       5.825   3.465  15.353  0.00  0.00    +0.000 A 
ATOM     29  C   UNL     1       5.825   4.290  16.497  0.00  0.00    +0.000 A 
BRANCH  24  31
ATOM     30  C   UNL     1       7.621   6.763  18.011  0.00  0.00    +0.000 C 
ATOM     31  O   UNL     1       6.347   6.418  17.472  0.00  0.00    +0.000 OA
ENDBRANCH  24  31
ENDBRANCH  19  29
ENDBRANCH  18  22
ENDBRANCH   1  18
TORSDOF 7
ENDMDL
MODEL 9
REMARK VINA RESULT:      -7.1      3.894      6.679
REMARK  Name = 
REMARK  9 active torsions:
REMARK  status: ('A' for Active; 'I' for Inactive)
REMARK    1  A    between atoms: C_1  and  O_2
REMARK    2  A    between atoms: O_2  and  C_3
REMARK    3  A    between atoms: C_8  and  C_9
REMARK    4  A    between atoms: C_12  and  S_13
REMARK    5  A    between atoms: S_13  and  C_14
REMARK    6  A    between atoms: C_14  and  C_15
REMARK    7  A    between atoms: C_14  and  C_16
REMARK    8  A    between atoms: N_18  and  C_19
REMARK    9  A    between atoms: C_22  and  C_23
REMARK                            x       y       z     vdW  Elec       q    Type
REMARK                         _______ _______ _______ _____ _____    ______ ____
ROOT
ATOM      1  C   UNL     1       1.659  11.668  19.123  0.00  0.00    +0.000 C 
ATOM      2  C   UNL     1       2.165  12.828  18.269  0.00  0.00    +0.000 C 
ENDROOT
BRANCH   1   3
ATOM      3  C   UNL     1       0.772  12.198  20.257  0.00  0.00    +0.000 C 
ATOM      4  O   UNL     1       1.124  13.191  20.891  0.00  0.00    +0.000 OA
ATOM      5  N   UNL     1      -0.417  11.502  20.450  0.00  0.00    +0.000 N 
ATOM      6  H   UNL     1      -0.490  10.603  19.988  0.00  0.00    +0.000 HD
BRANCH   5   7
ATOM      7  C   UNL     1      -1.442  11.829  21.364  0.00  0.00    +0.000 A 
ATOM      8  C   UNL     1      -1.389  11.502  22.720  0.00  0.00    +0.000 A 
ATOM      9  C   UNL     1      -2.431  11.846  23.590  0.00  0.00    +0.000 A 
ATOM     10  C   UNL     1      -3.550  12.534  23.117  0.00  0.00    +0.000 A 
ATOM     11  C   UNL     1      -3.608  12.869  21.756  0.00  0.00    +0.000 A 
ATOM     12  C   UNL     1      -2.559  12.525  20.888  0.00  0.00    +0.000 A 
BRANCH  10  13
ATOM     13  C   UNL     1      -4.684  12.938  23.997  0.00  0.00    +0.000 C 
ATOM     14  N   UNL     1      -5.024  14.260  24.068  0.00  0.00    +0.000 N 
ATOM     15  O   UNL     1      -5.315  12.109  24.645  0.00  0.00    +0.000 OA
ATOM     16  H   UNL     1      -4.581  15.004  23.558  0.00  0.00    +0.000 HD
ATOM     17  H   UNL     1      -5.810  14.498  24.658  0.00  0.00    +0.000 HD
ENDBRANCH  10  13
ENDBRANCH   5   7
ENDBRANCH   1   3
BRANCH   1  18
ATOM     18  S   UNL     1       0.716  10.446  18.141  0.00  0.00    +0.000 S 
BRANCH  18  22
ATOM     19  C   UNL     1       2.756   7.226  18.312  0.00  0.00    +0.000 A 
ATOM     20  N   UNL     1       2.423   7.309  19.588  0.00  0.00    +0.000 NA
ATOM     21  N   UNL     1       1.643   8.439  19.723  0.00  0.00    +0.000 NA
ATOM     22  C   UNL     1       1.551   8.973  18.524  0.00  0.00    +0.000 A 
ATOM     23  O   UNL     1       2.225   8.250  17.578  0.00  0.00    +0.000 OA
BRANCH  19  29
ATOM     24  C   UNL     1       3.544   4.853  17.795  0.00  0.00    +0.000 A 
ATOM     25  C   UNL     1       4.387   4.021  17.038  0.00  0.00    +0.000 A 
ATOM     26  C   UNL     1       5.355   4.559  16.190  0.00  0.00    +0.000 A 
ATOM     27  C   UNL     1       5.487   5.935  16.082  0.00  0.00    +0.000 A 
ATOM     28  C   UNL     1       4.631   6.771  16.799  0.00  0.00    +0.000 A 
ATOM     29  C   UNL     1       3.633   6.255  17.652  0.00  0.00    +0.000 A 
BRANCH  24  31
ATOM     30  C   UNL     1       1.464   3.740  18.024  0.00  0.00    +0.000 C 
ATOM     31  O   UNL     1       2.601   4.333  18.648  0.00  0.00    +0.000 OA
ENDBRANCH  24  31
ENDBRANCH  19  29
ENDBRANCH  18  22
ENDBRANCH   1  18
TORSDOF 7
ENDMDL
