MODEL 1
REMARK VINA RESULT:      -7.6      0.000      0.000
REMARK  Name = 
REMARK  6 active torsions:
REMARK  status: ('A' for Active; 'I' for Inactive)
REMARK    1  A    between atoms: C_1  and  O_2
REMARK    2  A    between atoms: O_2  and  C_3
REMARK    3  A    between atoms: C_7  and  C_9
REMARK    4  A    between atoms: C_9  and  C_10
REMARK    5  A    between atoms: N_16  and  C_17
REMARK    6  A    between atoms: C_17  and  C_18
REMARK                            x       y       z     vdW  Elec       q    Type
REMARK                         _______ _______ _______ _____ _____    ______ ____
ROOT
ATOM      1  C   UNL     1       2.634   4.866  18.886  0.00  0.00    +0.000 C 
ATOM      2  C   UNL     1       1.627   4.047  19.763  0.00  0.00    +0.000 C 
ATOM      3  O   UNL     1       0.726   4.598  20.403  0.00  0.00    +0.000 OA
ATOM      4  N   UNL     1       1.673   2.687  19.748  0.00  0.00    +0.000 N 
ATOM      5  C   UNL     1       2.686   1.970  19.023  0.00  0.00    +0.000 C 
ATOM      6  C   UNL     1       3.032   2.725  17.739  0.00  0.00    +0.000 C 
ATOM      7  N   UNL     1       3.586   4.070  18.023  0.00  0.00    +0.000 NA
ATOM      8  H   UNL     1       1.039   2.213  20.379  0.00  0.00    +0.000 HD
ENDROOT
BRANCH   1   9
ATOM      9  C   UNL     1       2.968   6.164  19.670  0.00  0.00    +0.000 C 
BRANCH   9  14
ATOM     10  C   UNL     1       0.847  10.487  21.606  0.00  0.00    +0.000 C 
ATOM     11  C   UNL     1       1.354  10.648  20.169  0.00  0.00    +0.000 C 
ATOM     12  C   UNL     1       0.946   9.449  19.315  0.00  0.00    +0.000 C 
ATOM     13  N   UNL     1       1.491   8.211  19.882  0.00  0.00    +0.000 N 
ATOM     14  C   UNL     1       2.311   7.415  19.086  0.00  0.00    +0.000 C 
ATOM     15  O   UNL     1       2.520   7.688  17.896  0.00  0.00    +0.000 OA
ATOM     16  C   UNL     1       1.031   7.954  21.252  0.00  0.00    +0.000 C 
ATOM     17  C   UNL     1       1.313   9.141  22.185  0.00  0.00    +0.000 C 
BRANCH  10  19
ATOM     18  C   UNL     1      -1.170  11.027  22.793  0.00  0.00    +0.000 C 
ATOM     19  O   UNL     1      -0.581  10.612  21.567  0.00  0.00    +0.000 OA
ENDBRANCH  10  19
ENDBRANCH   9  14
ENDBRANCH   1   9
BRANCH   7  20
ATOM     20  C   UNL     1       5.042   4.003  18.247  0.00  0.00    +0.000 C 
BRANCH  20  21
ATOM     21  C   UNL     1       5.977   4.561  17.140  0.00  0.00    +0.000 C 
ATOM     22  C   UNL     1       5.466   5.885  16.497  0.00  0.00    +0.000 C 
ATOM     23  C   UNL     1       5.965   7.214  17.082  0.00  0.00    +0.000 C 
ATOM     24  C   UNL     1       7.411   7.194  17.561  0.00  0.00    +0.000 C 
ATOM     25  C   UNL     1       7.663   5.973  18.428  0.00  0.00    +0.000 C 
ATOM     26  C   UNL     1       7.435   4.711  17.602  0.00  0.00    +0.000 C 
ENDBRANCH  20  21
ENDBRANCH   7  20
TORSDOF 5
ENDMDL
MODEL 2
REMARK VINA RESULT:      -7.5      1.713      4.281
REMARK  Name = 
REMARK  6 active torsions:
REMARK  status: ('A' for Active; 'I' for Inactive)
REMARK    1  A    between atoms: C_1  and  O_2
REMARK    2  A    between atoms: O_2  and  C_3
REMARK    3  A    between atoms: C_7  and  C_9
REMARK    4  A    between atoms: C_9  and  C_10
REMARK    5  A    between atoms: N_16  and  C_17
REMARK    6  A    between atoms: C_17  and  C_18
REMARK                            x       y       z     vdW  Elec       q    Type
REMARK                         _______ _______ _______ _____ _____    ______ ____
ROOT
ATOM      1  C   UNL     1       3.703   5.744  17.877  0.00  0.00    +0.000 C 
ATOM      2  C   UNL     1       4.599   6.546  16.876  0.00  0.00    +0.000 C 
ATOM      3  O   UNL     1       4.710   7.774  16.943  0.00  0.00    +0.000 OA
ATOM      4  N   UNL     1       5.359   5.875  15.966  0.00  0.00    +0.000 N 
ATOM      5  C   UNL     1       5.292   4.446  15.829  0.00  0.00    +0.000 C 
ATOM      6  C   UNL     1       5.063   3.807  17.199  0.00  0.00    +0.000 C 
ATOM      7  N   UNL     1       3.776   4.236  17.797  0.00  0.00    +0.000 NA
ATOM      8  H   UNL     1       5.872   6.447  15.306  0.00  0.00    +0.000 HD
ENDROOT
BRANCH   1   9
ATOM      9  C   UNL     1       2.425   6.591  18.122  0.00  0.00    +0.000 C 
BRANCH   9  14
ATOM     10  C   UNL     1      -0.406  10.095  20.699  0.00  0.00    +0.000 C 
ATOM     11  C   UNL     1      -0.058   8.860  21.535  0.00  0.00    +0.000 C 
ATOM     12  C   UNL     1       1.409   8.478  21.349  0.00  0.00    +0.000 C 
ATOM     13  N   UNL     1       1.687   8.197  19.937  0.00  0.00    +0.000 N 
ATOM     14  C   UNL     1       2.205   6.951  19.592  0.00  0.00    +0.000 C 
ATOM     15  O   UNL     1       2.509   6.115  20.455  0.00  0.00    +0.000 OA
ATOM     16  C   UNL     1       1.414   9.340  19.058  0.00  0.00    +0.000 C 
ATOM     17  C   UNL     1      -0.019   9.866  19.229  0.00  0.00    +0.000 C 
BRANCH  10  19
ATOM     18  C   UNL     1      -0.543  12.036  22.107  0.00  0.00    +0.000 C 
ATOM     19  O   UNL     1       0.275  11.210  21.288  0.00  0.00    +0.000 OA
ENDBRANCH  10  19
ENDBRANCH   9  14
ENDBRANCH   1   9
BRANCH   7  20
ATOM     20  C   UNL     1       2.669   3.380  17.333  0.00  0.00    +0.000 C 
BRANCH  20  21
ATOM     21  C   UNL     1       2.196   2.229  18.262  0.00  0.00    +0.000 C 
ATOM     22  C   UNL     1       3.158   1.953  19.457  0.00  0.00    +0.000 C 
ATOM     23  C   UNL     1       2.876   2.660  20.790  0.00  0.00    +0.000 C 
ATOM     24  C   UNL     1       1.398   2.829  21.120  0.00  0.00    +0.000 C 
ATOM     25  C   UNL     1       0.651   3.391  19.923  0.00  0.00    +0.000 C 
ATOM     26  C   UNL     1       0.753   2.411  18.759  0.00  0.00    +0.000 C 
ENDBRANCH  20  21
ENDBRANCH   7  20
TORSDOF 5
ENDMDL
MODEL 3
REMARK VINA RESULT:      -7.2      1.259      1.932
REMARK  Name = 
REMARK  6 active torsions:
REMARK  status: ('A' for Active; 'I' for Inactive)
REMARK    1  A    between atoms: C_1  and  O_2
REMARK    2  A    between atoms: O_2  and  C_3
REMARK    3  A    between atoms: C_7  and  C_9
REMARK    4  A    between atoms: C_9  and  C_10
REMARK    5  A    between atoms: N_16  and  C_17
REMARK    6  A    between atoms: C_17  and  C_18
REMARK                            x       y       z     vdW  Elec       q    Type
REMARK                         _______ _______ _______ _____ _____    ______ ____
ROOT
ATOM      1  C   UNL     1       2.897   5.348  19.266  0.00  0.00    +0.000 C 
ATOM      2  C   UNL     1       2.036   4.312  20.063  0.00  0.00    +0.000 C 
ATOM      3  O   UNL     1       0.895   4.580  20.456  0.00  0.00    +0.000 OA
ATOM      4  N   UNL     1       2.504   3.047  20.249  0.00  0.00    +0.000 N 
ATOM      5  C   UNL     1       3.817   2.655  19.817  0.00  0.00    +0.000 C 
ATOM      6  C   UNL     1       4.170   3.379  18.517  0.00  0.00    +0.000 C 
ATOM      7  N   UNL     1       4.207   4.849  18.700  0.00  0.00    +0.000 NA
ATOM      8  H   UNL     1       1.932   2.440  20.823  0.00  0.00    +0.000 HD
ENDROOT
BRANCH   1   9
ATOM      9  C   UNL     1       2.640   6.739  19.904  0.00  0.00    +0.000 C 
BRANCH   9  14
ATOM     10  C   UNL     1       0.670  11.532  20.191  0.00  0.00    +0.000 C 
ATOM     11  C   UNL     1       1.392  11.249  18.870  0.00  0.00    +0.000 C 
ATOM     12  C   UNL     1       1.004   9.875  18.326  0.00  0.00    +0.000 C 
ATOM     13  N   UNL     1       1.344   8.829  19.295  0.00  0.00    +0.000 N 
ATOM     14  C   UNL     1       2.193   7.800  18.897  0.00  0.00    +0.000 C 
ATOM     15  O   UNL     1       2.596   7.708  17.729  0.00  0.00    +0.000 OA
ATOM     16  C   UNL     1       0.669   8.999  20.587  0.00  0.00    +0.000 C 
ATOM     17  C   UNL     1       0.922  10.390  21.188  0.00  0.00    +0.000 C 
BRANCH  10  19
ATOM     18  C   UNL     1      -1.010  12.870  19.116  0.00  0.00    +0.000 C 
ATOM     19  O   UNL     1      -0.719  11.709  19.884  0.00  0.00    +0.000 OA
ENDBRANCH  10  19
ENDBRANCH   9  14
ENDBRANCH   1   9
BRANCH   7  20
ATOM     20  C   UNL     1       5.531   5.288  19.177  0.00  0.00    +0.000 C 
BRANCH  20  21
ATOM     21  C   UNL     1       6.532   5.856  18.134  0.00  0.00    +0.000 C 
ATOM     22  C   UNL     1       7.345   4.759  17.384  0.00  0.00    +0.000 C 
ATOM     23  C   UNL     1       6.801   4.243  16.044  0.00  0.00    +0.000 C 
ATOM     24  C   UNL     1       6.118   5.302  15.187  0.00  0.00    +0.000 C 
ATOM     25  C   UNL     1       5.129   6.098  16.021  0.00  0.00    +0.000 C 
ATOM     26  C   UNL     1       5.877   6.823  17.135  0.00  0.00    +0.000 C 
ENDBRANCH  20  21
ENDBRANCH   7  20
TORSDOF 5
ENDMDL
MODEL 4
REMARK VINA RESULT:      -7.0      1.563      2.334
REMARK  Name = 
REMARK  6 active torsions:
REMARK  status: ('A' for Active; 'I' for Inactive)
REMARK    1  A    between atoms: C_1  and  O_2
REMARK    2  A    between atoms: O_2  and  C_3
REMARK    3  A    between atoms: C_7  and  C_9
REMARK    4  A    between atoms: C_9  and  C_10
REMARK    5  A    between atoms: N_16  and  C_17
REMARK    6  A    between atoms: C_17  and  C_18
REMARK                            x       y       z     vdW  Elec       q    Type
REMARK                         _______ _______ _______ _____ _____    ______ ____
ROOT
ATOM      1  C   UNL     1       2.964   4.318  18.350  0.00  0.00    +0.000 C 
ATOM      2  C   UNL     1       1.995   3.436  19.207  0.00  0.00    +0.000 C 
ATOM      3  O   UNL     1       0.773   3.456  19.032  0.00  0.00    +0.000 OA
ATOM      4  N   UNL     1       2.508   2.547  20.101  0.00  0.00    +0.000 N 
ATOM      5  C   UNL     1       3.919   2.458  20.359  0.00  0.00    +0.000 C 
ATOM      6  C   UNL     1       4.695   2.722  19.068  0.00  0.00    +0.000 C 
ATOM      7  N   UNL     1       4.445   4.085  18.545  0.00  0.00    +0.000 NA
ATOM      8  H   UNL     1       1.834   2.048  20.669  0.00  0.00    +0.000 HD
ENDROOT
BRANCH   1   9
ATOM      9  C   UNL     1       2.267   5.689  18.143  0.00  0.00    +0.000 C 
BRANCH   9  14
ATOM     10  C   UNL     1       0.374  10.356  19.394  0.00  0.00    +0.000 C 
ATOM     11  C   UNL     1       0.366   9.363  20.560  0.00  0.00    +0.000 C 
ATOM     12  C   UNL     1       1.688   8.601  20.630  0.00  0.00    +0.000 C 
ATOM     13  N   UNL     1       1.922   7.873  19.379  0.00  0.00    +0.000 N 
ATOM     14  C   UNL     1       2.107   6.494  19.434  0.00  0.00    +0.000 C 
ATOM     15  O   UNL     1       2.160   5.889  20.514  0.00  0.00    +0.000 OA
ATOM     16  C   UNL     1       1.980   8.750  18.205  0.00  0.00    +0.000 C 
ATOM     17  C   UNL     1       0.729   9.634  18.085  0.00  0.00    +0.000 C 
BRANCH  10  19
ATOM     18  C   UNL     1       0.793  12.386  20.609  0.00  0.00    +0.000 C 
ATOM     19  O   UNL     1       1.305  11.393  19.728  0.00  0.00    +0.000 OA
ENDBRANCH  10  19
ENDBRANCH   9  14
ENDBRANCH   1   9
BRANCH   7  20
ATOM     20  C   UNL     1       5.358   5.063  19.166  0.00  0.00    +0.000 C 
BRANCH  20  21
ATOM     21  C   UNL     1       6.428   5.738  18.265  0.00  0.00    +0.000 C 
ATOM     22  C   UNL     1       7.352   4.725  17.524  0.00  0.00    +0.000 C 
ATOM     23  C   UNL     1       6.956   4.289  16.106  0.00  0.00    +0.000 C 
ATOM     24  C   UNL     1       6.314   5.382  15.261  0.00  0.00    +0.000 C 
ATOM     25  C   UNL     1       5.221   6.083  16.048  0.00  0.00    +0.000 C 
ATOM     26  C   UNL     1       5.831   6.751  17.276  0.00  0.00    +0.000 C 
ENDBRANCH  20  21
ENDBRANCH   7  20
TORSDOF 5
ENDMDL
MODEL 5
REMARK VINA RESULT:      -7.0      2.346      6.911
REMARK  Name = 
REMARK  6 active torsions:
REMARK  status: ('A' for Active; 'I' for Inactive)
REMARK    1  A    between atoms: C_1  and  O_2
REMARK    2  A    between atoms: O_2  and  C_3
REMARK    3  A    between atoms: C_7  and  C_9
REMARK    4  A    between atoms: C_9  and  C_10
REMARK    5  A    between atoms: N_16  and  C_17
REMARK    6  A    between atoms: C_17  and  C_18
REMARK                            x       y       z     vdW  Elec       q    Type
REMARK                         _______ _______ _______ _____ _____    ______ ____
ROOT
ATOM      1  C   UNL     1       3.438   4.806  20.029  0.00  0.00    +0.000 C 
ATOM      2  C   UNL     1       3.503   3.469  19.218  0.00  0.00    +0.000 C 
ATOM      3  O   UNL     1       4.576   2.996  18.831  0.00  0.00    +0.000 OA
ATOM      4  N   UNL     1       2.366   2.749  19.013  0.00  0.00    +0.000 N 
ATOM      5  C   UNL     1       1.079   3.228  19.437  0.00  0.00    +0.000 C 
ATOM      6  C   UNL     1       1.225   4.004  20.747  0.00  0.00    +0.000 C 
ATOM      7  N   UNL     1       2.088   5.197  20.586  0.00  0.00    +0.000 NA
ATOM      8  H   UNL     1       2.459   1.925  18.432  0.00  0.00    +0.000 HD
ENDROOT
BRANCH   1   9
ATOM      9  C   UNL     1       4.492   5.765  19.411  0.00  0.00    +0.000 C 
BRANCH   9  14
ATOM     10  C   UNL     1       7.082   4.496  15.097  0.00  0.00    +0.000 C 
ATOM     11  C   UNL     1       5.593   4.759  14.857  0.00  0.00    +0.000 C 
ATOM     12  C   UNL     1       5.140   6.015  15.601  0.00  0.00    +0.000 C 
ATOM     13  N   UNL     1       5.377   5.867  17.040  0.00  0.00    +0.000 N 
ATOM     14  C   UNL     1       4.299   5.998  17.912  0.00  0.00    +0.000 C 
ATOM     15  O   UNL     1       3.172   6.314  17.506  0.00  0.00    +0.000 OA
ATOM     16  C   UNL     1       6.789   5.644  17.371  0.00  0.00    +0.000 C 
ATOM     17  C   UNL     1       7.376   4.449  16.605  0.00  0.00    +0.000 C 
BRANCH  10  19
ATOM     18  C   UNL     1       7.932   5.340  13.015  0.00  0.00    +0.000 C 
ATOM     19  O   UNL     1       7.809   5.529  14.420  0.00  0.00    +0.000 OA
ENDBRANCH  10  19
ENDBRANCH   9  14
ENDBRANCH   1   9
BRANCH   7  20
ATOM     20  C   UNL     1       1.305   6.354  20.113  0.00  0.00    +0.000 C 
BRANCH  20  21
ATOM     21  C   UNL     1       1.827   7.777  20.451  0.00  0.00    +0.000 C 
ATOM     22  C   UNL     1       1.720   8.782  19.265  0.00  0.00    +0.000 C 
ATOM     23  C   UNL     1       0.463   9.659  19.173  0.00  0.00    +0.000 C 
ATOM     24  C   UNL     1      -0.094  10.115  20.515  0.00  0.00    +0.000 C 
ATOM     25  C   UNL     1      -0.199   8.939  21.470  0.00  0.00    +0.000 C 
ATOM     26  C   UNL     1       1.192   8.366  21.720  0.00  0.00    +0.000 C 
ENDBRANCH  20  21
ENDBRANCH   7  20
TORSDOF 5
ENDMDL
MODEL 6
REMARK VINA RESULT:      -6.9      0.637      1.273
REMARK  Name = 
REMARK  6 active torsions:
REMARK  status: ('A' for Active; 'I' for Inactive)
REMARK    1  A    between atoms: C_1  and  O_2
REMARK    2  A    between atoms: O_2  and  C_3
REMARK    3  A    between atoms: C_7  and  C_9
REMARK    4  A    between atoms: C_9  and  C_10
REMARK    5  A    between atoms: N_16  and  C_17
REMARK    6  A    between atoms: C_17  and  C_18
REMARK                            x       y       z     vdW  Elec       q    Type
REMARK                         _______ _______ _______ _____ _____    ______ ____
ROOT
ATOM      1  C   UNL     1       2.834   4.895  18.966  0.00  0.00    +0.000 C 
ATOM      2  C   UNL     1       1.784   4.014  19.722  0.00  0.00    +0.000 C 
ATOM      3  O   UNL     1       0.781   4.506  20.249  0.00  0.00    +0.000 OA
ATOM      4  N   UNL     1       1.916   2.659  19.720  0.00  0.00    +0.000 N 
ATOM      5  C   UNL     1       3.050   2.008  19.124  0.00  0.00    +0.000 C 
ATOM      6  C   UNL     1       3.497   2.785  17.885  0.00  0.00    +0.000 C 
ATOM      7  N   UNL     1       3.929   4.161  18.225  0.00  0.00    +0.000 NA
ATOM      8  H   UNL     1       1.243   2.145  20.275  0.00  0.00    +0.000 HD
ENDROOT
BRANCH   1   9
ATOM      9  C   UNL     1       2.992   6.209  19.777  0.00  0.00    +0.000 C 
BRANCH   9  14
ATOM     10  C   UNL     1       0.820  10.553  21.606  0.00  0.00    +0.000 C 
ATOM     11  C   UNL     1       1.215  10.646  20.129  0.00  0.00    +0.000 C 
ATOM     12  C   UNL     1       0.803   9.380  19.379  0.00  0.00    +0.000 C 
ATOM     13  N   UNL     1       1.443   8.203  19.976  0.00  0.00    +0.000 N 
ATOM     14  C   UNL     1       2.239   7.394  19.170  0.00  0.00    +0.000 C 
ATOM     15  O   UNL     1       2.350   7.601  17.953  0.00  0.00    +0.000 OA
ATOM     16  C   UNL     1       1.094   8.013  21.389  0.00  0.00    +0.000 C 
ATOM     17  C   UNL     1       1.387   9.267  22.227  0.00  0.00    +0.000 C 
BRANCH  10  19
ATOM     18  C   UNL     1      -1.140  10.769  22.976  0.00  0.00    +0.000 C 
ATOM     19  O   UNL     1      -0.611  10.617  21.665  0.00  0.00    +0.000 OA
ENDBRANCH  10  19
ENDBRANCH   9  14
ENDBRANCH   1   9
BRANCH   7  20
ATOM     20  C   UNL     1       5.350   4.185  18.620  0.00  0.00    +0.000 C 
BRANCH  20  21
ATOM     21  C   UNL     1       6.383   4.730  17.597  0.00  0.00    +0.000 C 
ATOM     22  C   UNL     1       6.296   4.051  16.197  0.00  0.00    +0.000 C 
ATOM     23  C   UNL     1       5.423   4.716  15.123  0.00  0.00    +0.000 C 
ATOM     24  C   UNL     1       5.432   6.239  15.151  0.00  0.00    +0.000 C 
ATOM     25  C   UNL     1       5.208   6.743  16.566  0.00  0.00    +0.000 C 
ATOM     26  C   UNL     1       6.345   6.261  17.460  0.00  0.00    +0.000 C 
ENDBRANCH  20  21
ENDBRANCH   7  20
TORSDOF 5
ENDMDL
MODEL 7
REMARK VINA RESULT:      -6.8      1.932      4.350
REMARK  Name = 
REMARK  6 active torsions:
REMARK  status: ('A' for Active; 'I' for Inactive)
REMARK    1  A    between atoms: C_1  and  O_2
REMARK    2  A    between atoms: O_2  and  C_3
REMARK    3  A    between atoms: C_7  and  C_9
REMARK    4  A    between atoms: C_9  and  C_10
REMARK    5  A    between atoms: N_16  and  C_17
REMARK    6  A    between atoms: C_17  and  C_18
REMARK                            x       y       z     vdW  Elec       q    Type
REMARK                         _______ _______ _______ _____ _____    ______ ____
ROOT
ATOM      1  C   UNL     1       3.581   6.068  17.930  0.00  0.00    +0.000 C 
ATOM      2  C   UNL     1       4.739   6.342  16.912  0.00  0.00    +0.000 C 
ATOM      3  O   UNL     1       5.190   7.477  16.731  0.00  0.00    +0.000 OA
ATOM      4  N   UNL     1       5.339   5.297  16.279  0.00  0.00    +0.000 N 
ATOM      5  C   UNL     1       4.878   3.946  16.441  0.00  0.00    +0.000 C 
ATOM      6  C   UNL     1       4.379   3.741  17.872  0.00  0.00    +0.000 C 
ATOM      7  N   UNL     1       3.228   4.621  18.184  0.00  0.00    +0.000 NA
ATOM      8  H   UNL     1       6.039   5.537  15.588  0.00  0.00    +0.000 HD
ENDROOT
BRANCH   1   9
ATOM      9  C   UNL     1       2.584   7.253  17.814  0.00  0.00    +0.000 C 
BRANCH   9  14
ATOM     10  C   UNL     1      -0.975  10.656  19.451  0.00  0.00    +0.000 C 
ATOM     11  C   UNL     1      -0.526   9.675  20.538  0.00  0.00    +0.000 C 
ATOM     12  C   UNL     1       0.993   9.514  20.526  0.00  0.00    +0.000 C 
ATOM     13  N   UNL     1       1.443   9.024  19.219  0.00  0.00    +0.000 N 
ATOM     14  C   UNL     1       2.173   7.840  19.165  0.00  0.00    +0.000 C 
ATOM     15  O   UNL     1       2.516   7.242  20.194  0.00  0.00    +0.000 OA
ATOM     16  C   UNL     1       1.086   9.921  18.114  0.00  0.00    +0.000 C 
ATOM     17  C   UNL     1      -0.420  10.224  18.084  0.00  0.00    +0.000 C 
BRANCH  10  19
ATOM     18  C   UNL     1      -1.461  12.688  20.636  0.00  0.00    +0.000 C 
ATOM     19  O   UNL     1      -0.528  11.959  19.847  0.00  0.00    +0.000 OA
ENDBRANCH  10  19
ENDBRANCH   9  14
ENDBRANCH   1   9
BRANCH   7  20
ATOM     20  C   UNL     1       1.959   3.997  17.767  0.00  0.00    +0.000 C 
BRANCH  20  21
ATOM     21  C   UNL     1       1.130   3.239  18.840  0.00  0.00    +0.000 C 
ATOM     22  C   UNL     1       1.786   1.908  19.314  0.00  0.00    +0.000 C 
ATOM     23  C   UNL     1       2.686   1.947  20.558  0.00  0.00    +0.000 C 
ATOM     24  C   UNL     1       2.227   2.914  21.643  0.00  0.00    +0.000 C 
ATOM     25  C   UNL     1       1.903   4.269  21.039  0.00  0.00    +0.000 C 
ATOM     26  C   UNL     1       0.757   4.118  20.044  0.00  0.00    +0.000 C 
ENDBRANCH  20  21
ENDBRANCH   7  20
TORSDOF 5
ENDMDL
MODEL 8
REMARK VINA RESULT:      -6.7      2.003      4.232
REMARK  Name = 
REMARK  6 active torsions:
REMARK  status: ('A' for Active; 'I' for Inactive)
REMARK    1  A    between atoms: C_1  and  O_2
REMARK    2  A    between atoms: O_2  and  C_3
REMARK    3  A    between atoms: C_7  and  C_9
REMARK    4  A    between atoms: C_9  and  C_10
REMARK    5  A    between atoms: N_16  and  C_17
REMARK    6  A    between atoms: C_17  and  C_18
REMARK                            x       y       z     vdW  Elec       q    Type
REMARK                         _______ _______ _______ _____ _____    ______ ____
ROOT
ATOM      1  C   UNL     1       5.222   5.328  17.943  0.00  0.00    +0.000 C 
ATOM      2  C   UNL     1       6.185   6.239  17.110  0.00  0.00    +0.000 C 
ATOM      3  O   UNL     1       6.712   7.245  17.597  0.00  0.00    +0.000 OA
ATOM      4  N   UNL     1       6.536   5.871  15.848  0.00  0.00    +0.000 N 
ATOM      5  C   UNL     1       5.973   4.712  15.212  0.00  0.00    +0.000 C 
ATOM      6  C   UNL     1       5.739   3.616  16.252  0.00  0.00    +0.000 C 
ATOM      7  N   UNL     1       4.772   4.041  17.291  0.00  0.00    +0.000 NA
ATOM      8  H   UNL     1       7.112   6.528  15.336  0.00  0.00    +0.000 HD
ENDROOT
BRANCH   1   9
ATOM      9  C   UNL     1       4.354   6.268  18.823  0.00  0.00    +0.000 C 
BRANCH   9  14
ATOM     10  C   UNL     1       0.912   9.989  19.934  0.00  0.00    +0.000 C 
ATOM     11  C   UNL     1       1.495  10.101  18.522  0.00  0.00    +0.000 C 
ATOM     12  C   UNL     1       1.532   8.733  17.843  0.00  0.00    +0.000 C 
ATOM     13  N   UNL     1       2.345   7.798  18.627  0.00  0.00    +0.000 N 
ATOM     14  C   UNL     1       3.433   7.181  18.013  0.00  0.00    +0.000 C 
ATOM     15  O   UNL     1       3.675   7.343  16.809  0.00  0.00    +0.000 OA
ATOM     16  C   UNL     1       1.841   7.600  19.990  0.00  0.00    +0.000 C 
ATOM     17  C   UNL     1       1.679   8.930  20.742  0.00  0.00    +0.000 C 
BRANCH  10  19
ATOM     18  C   UNL     1      -1.273  10.751  19.292  0.00  0.00    +0.000 C 
ATOM     19  O   UNL     1      -0.481   9.682  19.793  0.00  0.00    +0.000 OA
ENDBRANCH  10  19
ENDBRANCH   9  14
ENDBRANCH   1   9
BRANCH   7  20
ATOM     20  C   UNL     1       3.386   3.777  16.859  0.00  0.00    +0.000 C 
BRANCH  20  21
ATOM     21  C   UNL     1       2.570   2.710  17.638  0.00  0.00    +0.000 C 
ATOM     22  C   UNL     1       3.390   1.977  18.742  0.00  0.00    +0.000 C 
ATOM     23  C   UNL     1       3.338   2.534  20.172  0.00  0.00    +0.000 C 
ATOM     24  C   UNL     1       1.987   3.106  20.582  0.00  0.00    +0.000 C 
ATOM     25  C   UNL     1       1.461   4.041  19.507  0.00  0.00    +0.000 C 
ATOM     26  C   UNL     1       1.255   3.259  18.214  0.00  0.00    +0.000 C 
ENDBRANCH  20  21
ENDBRANCH   7  20
TORSDOF 5
ENDMDL
MODEL 9
REMARK VINA RESULT:      -6.6      3.106      8.313
REMARK  Name = 
REMARK  6 active torsions:
REMARK  status: ('A' for Active; 'I' for Inactive)
REMARK    1  A    between atoms: C_1  and  O_2
REMARK    2  A    between atoms: O_2  and  C_3
REMARK    3  A    between atoms: C_7  and  C_9
REMARK    4  A    between atoms: C_9  and  C_10
REMARK    5  A    between atoms: N_16  and  C_17
REMARK    6  A    between atoms: C_17  and  C_18
REMARK                            x       y       z     vdW  Elec       q    Type
REMARK                         _______ _______ _______ _____ _____    ______ ____
ROOT
ATOM      1  C   UNL     1       0.152  10.047  21.318  0.00  0.00    +0.000 C 
ATOM      2  C   UNL     1      -0.247  10.271  22.815  0.00  0.00    +0.000 C 
ATOM      3  O   UNL     1       0.294   9.645  23.732  0.00  0.00    +0.000 OA
ATOM      4  N   UNL     1      -1.141  11.247  23.135  0.00  0.00    +0.000 N 
ATOM      5  C   UNL     1      -1.810  12.022  22.127  0.00  0.00    +0.000 C 
ATOM      6  C   UNL     1      -0.865  12.257  20.947  0.00  0.00    +0.000 C 
ATOM      7  N   UNL     1      -0.462  10.985  20.304  0.00  0.00    +0.000 NA
ATOM      8  H   UNL     1      -1.406  11.305  24.110  0.00  0.00    +0.000 HD
ENDROOT
BRANCH   1   9
ATOM      9  C   UNL     1       0.396   8.525  21.135  0.00  0.00    +0.000 C 
BRANCH   9  14
ATOM     10  C   UNL     1       2.237   4.190  18.955  0.00  0.00    +0.000 C 
ATOM     11  C   UNL     1       2.387   5.429  18.067  0.00  0.00    +0.000 C 
ATOM     12  C   UNL     1       2.900   6.617  18.878  0.00  0.00    +0.000 C 
ATOM     13  N   UNL     1       1.977   6.920  19.977  0.00  0.00    +0.000 N 
ATOM     14  C   UNL     1       1.429   8.198  20.055  0.00  0.00    +0.000 C 
ATOM     15  O   UNL     1       1.766   9.097  19.272  0.00  0.00    +0.000 OA
ATOM     16  C   UNL     1       1.797   5.797  20.904  0.00  0.00    +0.000 C 
ATOM     17  C   UNL     1       1.362   4.516  20.176  0.00  0.00    +0.000 C 
BRANCH  10  19
ATOM     18  C   UNL     1       3.604   2.587  20.109  0.00  0.00    +0.000 C 
ATOM     19  O   UNL     1       3.558   3.765  19.313  0.00  0.00    +0.000 OA
ENDBRANCH  10  19
ENDBRANCH   9  14
ENDBRANCH   1   9
BRANCH   7  20
ATOM     20  C   UNL     1      -1.450  10.570  19.290  0.00  0.00    +0.000 C 
BRANCH  20  21
ATOM     21  C   UNL     1      -2.154  11.678  18.461  0.00  0.00    +0.000 C 
ATOM     22  C   UNL     1      -1.813  11.635  16.941  0.00  0.00    +0.000 C 
ATOM     23  C   UNL     1      -2.750  10.850  16.012  0.00  0.00    +0.000 C 
ATOM     24  C   UNL     1      -4.225  10.926  16.386  0.00  0.00    +0.000 C 
ATOM     25  C   UNL     1      -4.408  10.650  17.868  0.00  0.00    +0.000 C 
ATOM     26  C   UNL     1      -3.675  11.716  18.674  0.00  0.00    +0.000 C 
ENDBRANCH  20  21
ENDBRANCH   7  20
TORSDOF 5
ENDMDL
