MODEL 1
REMARK VINA RESULT:      -8.1      0.000      0.000
REMARK  Name = 
REMARK  12 active torsions:
REMARK  status: ('A' for Active; 'I' for Inactive)
REMARK    1  A    between atoms: C_1  and  C_2
REMARK    2  A    between atoms: C_2  and  C_3
REMARK    3  A    between atoms: C_3  and  C_4
REMARK    4  A    between atoms: C_4  and  N_5
REMARK    5  A    between atoms: N_5  and  C_6
REMARK    6  A    between atoms: N_5  and  S_20
REMARK    7  A    between atoms: C_6  and  C_7
REMARK    8  A    between atoms: C_11  and  O_12
REMARK    9  A    between atoms: O_12  and  C_13
REMARK   10  A    between atoms: C_18  and  O_19
REMARK   11  A    between atoms: S_20  and  C_23
REMARK   12  A    between atoms: C_26  and  C_27
REMARK                            x       y       z     vdW  Elec       q    Type
REMARK                         _______ _______ _______ _____ _____    ______ ____
ROOT
ATOM      1  N   UNL     1       3.511   4.913  18.922  0.00  0.00    +0.000 NA
ENDROOT
BRANCH   1   2
ATOM      2  S   UNL     1       5.168   4.351  19.018  0.00  0.00    +0.000 S 
ATOM      3  O   UNL     1       5.978   5.325  19.714  0.00  0.00    +0.000 OA
ATOM      4  O   UNL     1       5.128   2.965  19.437  0.00  0.00    +0.000 OA
BRANCH   2   5
ATOM      5  C   UNL     1       5.698   4.402  17.323  0.00  0.00    +0.000 A 
ATOM      6  C   UNL     1       7.037   4.683  17.052  0.00  0.00    +0.000 A 
ATOM      7  C   UNL     1       7.467   4.760  15.731  0.00  0.00    +0.000 A 
ATOM      8  C   UNL     1       6.563   4.558  14.679  0.00  0.00    +0.000 A 
ATOM      9  C   UNL     1       7.007   4.691  13.251  0.00  0.00    +0.000 C 
ATOM     10  C   UNL     1       5.231   4.225  14.968  0.00  0.00    +0.000 A 
ATOM     11  C   UNL     1       4.794   4.149  16.291  0.00  0.00    +0.000 A 
ENDBRANCH   2   5
ENDBRANCH   1   2
BRANCH   1  12
ATOM     12  C   UNL     1       2.550   3.742  18.956  0.00  0.00    +0.000 C 
BRANCH  12  13
ATOM     13  C   UNL     1       1.271   3.944  19.777  0.00  0.00    +0.000 C 
BRANCH  13  15
ATOM     14  C   UNL     1       2.446   2.686  21.603  0.00  0.00    +0.000 C 
ATOM     15  C   UNL     1       1.097   2.985  20.954  0.00  0.00    +0.000 C 
ENDBRANCH  13  15
ENDBRANCH  12  13
ENDBRANCH   1  12
BRANCH   1  16
ATOM     16  C   UNL     1       3.222   5.894  20.019  0.00  0.00    +0.000 C 
BRANCH  16  17
ATOM     17  C   UNL     1       2.381   7.095  19.680  0.00  0.00    +0.000 A 
ATOM     18  C   UNL     1       1.485   7.654  20.591  0.00  0.00    +0.000 A 
ATOM     19  C   UNL     1       0.900   8.902  20.322  0.00  0.00    +0.000 A 
ATOM     20  C   UNL     1       0.121   9.572  21.280  0.00  0.00    +0.000 A 
ATOM     21  C   UNL     1      -0.354  10.863  21.044  0.00  0.00    +0.000 A 
ATOM     22  C   UNL     1      -0.117  11.456  19.809  0.00  0.00    +0.000 A 
ATOM     23  C   UNL     1       0.630  10.771  18.839  0.00  0.00    +0.000 A 
ATOM     24  C   UNL     1       1.170   9.516  19.079  0.00  0.00    +0.000 A 
ATOM     25  N   UNL     1       1.959   8.945  18.156  0.00  0.00    +0.000 NA
ATOM     26  C   UNL     1       2.545   7.781  18.490  0.00  0.00    +0.000 A 
BRANCH  21  27
ATOM     27  O   UNL     1      -1.004  11.434  22.103  0.00  0.00    +0.000 OA
ATOM     28  C   UNL     1      -0.941  12.850  22.213  0.00  0.00    +0.000 C 
ENDBRANCH  21  27
BRANCH  26  29
ATOM     29  O   UNL     1       3.398   7.333  17.536  0.00  0.00    +0.000 OA
ATOM     30  H   UNL     1       3.365   6.375  17.727  0.00  0.00    +0.000 HD
ENDBRANCH  26  29
ENDBRANCH  16  17
ENDBRANCH   1  16
TORSDOF 9
ENDMDL
MODEL 2
REMARK VINA RESULT:      -7.9      1.836      2.335
REMARK  Name = 
REMARK  12 active torsions:
REMARK  status: ('A' for Active; 'I' for Inactive)
REMARK    1  A    between atoms: C_1  and  C_2
REMARK    2  A    between atoms: C_2  and  C_3
REMARK    3  A    between atoms: C_3  and  C_4
REMARK    4  A    between atoms: C_4  and  N_5
REMARK    5  A    between atoms: N_5  and  C_6
REMARK    6  A    between atoms: N_5  and  S_20
REMARK    7  A    between atoms: C_6  and  C_7
REMARK    8  A    between atoms: C_11  and  O_12
REMARK    9  A    between atoms: O_12  and  C_13
REMARK   10  A    between atoms: C_18  and  O_19
REMARK   11  A    between atoms: S_20  and  C_23
REMARK   12  A    between atoms: C_26  and  C_27
REMARK                            x       y       z     vdW  Elec       q    Type
REMARK                         _______ _______ _______ _____ _____    ______ ____
ROOT
ATOM      1  N   UNL     1       3.570   5.238  17.980  0.00  0.00    +0.000 NA
ENDROOT
BRANCH   1   2
ATOM      2  S   UNL     1       5.150   4.487  17.878  0.00  0.00    +0.000 S 
ATOM      3  O   UNL     1       5.414   3.733  19.083  0.00  0.00    +0.000 OA
ATOM      4  O   UNL     1       5.253   3.877  16.568  0.00  0.00    +0.000 OA
BRANCH   2   5
ATOM      5  C   UNL     1       6.251   5.881  17.927  0.00  0.00    +0.000 A 
ATOM      6  C   UNL     1       7.324   5.851  18.816  0.00  0.00    +0.000 A 
ATOM      7  C   UNL     1       8.180   6.946  18.894  0.00  0.00    +0.000 A 
ATOM      8  C   UNL     1       7.965   8.071  18.087  0.00  0.00    +0.000 A 
ATOM      9  C   UNL     1       8.852   9.277  18.202  0.00  0.00    +0.000 C 
ATOM     10  C   UNL     1       6.912   8.065  17.161  0.00  0.00    +0.000 A 
ATOM     11  C   UNL     1       6.050   6.972  17.080  0.00  0.00    +0.000 A 
ENDBRANCH   2   5
ENDBRANCH   1   2
BRANCH   1  12
ATOM     12  C   UNL     1       2.477   4.198  17.831  0.00  0.00    +0.000 C 
BRANCH  12  13
ATOM     13  C   UNL     1       1.595   3.968  19.064  0.00  0.00    +0.000 C 
BRANCH  13  15
ATOM     14  C   UNL     1       1.297   2.882  21.307  0.00  0.00    +0.000 C 
ATOM     15  C   UNL     1       2.042   2.827  19.976  0.00  0.00    +0.000 C 
ENDBRANCH  13  15
ENDBRANCH  12  13
ENDBRANCH   1  12
BRANCH   1  16
ATOM     16  C   UNL     1       3.432   6.003  19.263  0.00  0.00    +0.000 C 
BRANCH  16  17
ATOM     17  C   UNL     1       2.460   7.152  19.290  0.00  0.00    +0.000 A 
ATOM     18  C   UNL     1       1.698   7.451  20.419  0.00  0.00    +0.000 A 
ATOM     19  C   UNL     1       0.987   8.661  20.483  0.00  0.00    +0.000 A 
ATOM     20  C   UNL     1       0.340   9.073  21.660  0.00  0.00    +0.000 A 
ATOM     21  C   UNL     1      -0.260  10.331  21.747  0.00  0.00    +0.000 A 
ATOM     22  C   UNL     1      -0.283  11.148  20.623  0.00  0.00    +0.000 A 
ATOM     23  C   UNL     1       0.331  10.721  19.436  0.00  0.00    +0.000 A 
ATOM     24  C   UNL     1       0.993   9.504  19.350  0.00  0.00    +0.000 A 
ATOM     25  N   UNL     1       1.650   9.184  18.225  0.00  0.00    +0.000 NA
ATOM     26  C   UNL     1       2.366   8.045  18.238  0.00  0.00    +0.000 A 
BRANCH  21  27
ATOM     27  O   UNL     1      -0.756  10.641  22.982  0.00  0.00    +0.000 OA
ATOM     28  C   UNL     1      -1.461  11.870  23.106  0.00  0.00    +0.000 C 
ENDBRANCH  21  27
BRANCH  26  29
ATOM     29  O   UNL     1       3.071   7.858  17.096  0.00  0.00    +0.000 OA
ATOM     30  H   UNL     1       2.332   7.752  16.466  0.00  0.00    +0.000 HD
ENDBRANCH  26  29
ENDBRANCH  16  17
ENDBRANCH   1  16
TORSDOF 9
ENDMDL
MODEL 3
REMARK VINA RESULT:      -7.8      0.843      1.309
REMARK  Name = 
REMARK  12 active torsions:
REMARK  status: ('A' for Active; 'I' for Inactive)
REMARK    1  A    between atoms: C_1  and  C_2
REMARK    2  A    between atoms: C_2  and  C_3
REMARK    3  A    between atoms: C_3  and  C_4
REMARK    4  A    between atoms: C_4  and  N_5
REMARK    5  A    between atoms: N_5  and  C_6
REMARK    6  A    between atoms: N_5  and  S_20
REMARK    7  A    between atoms: C_6  and  C_7
REMARK    8  A    between atoms: C_11  and  O_12
REMARK    9  A    between atoms: O_12  and  C_13
REMARK   10  A    between atoms: C_18  and  O_19
REMARK   11  A    between atoms: S_20  and  C_23
REMARK   12  A    between atoms: C_26  and  C_27
REMARK                            x       y       z     vdW  Elec       q    Type
REMARK                         _______ _______ _______ _____ _____    ______ ____
ROOT
ATOM      1  N   UNL     1       3.792   5.069  18.580  0.00  0.00    +0.000 NA
ENDROOT
BRANCH   1   2
ATOM      2  S   UNL     1       5.536   4.946  18.475  0.00  0.00    +0.000 S 
ATOM      3  O   UNL     1       6.137   6.231  18.754  0.00  0.00    +0.000 OA
ATOM      4  O   UNL     1       5.928   3.756  19.202  0.00  0.00    +0.000 OA
BRANCH   2   5
ATOM      5  C   UNL     1       5.805   4.651  16.744  0.00  0.00    +0.000 A 
ATOM      6  C   UNL     1       4.744   4.170  15.977  0.00  0.00    +0.000 A 
ATOM      7  C   UNL     1       4.942   3.901  14.626  0.00  0.00    +0.000 A 
ATOM      8  C   UNL     1       6.196   4.108  14.039  0.00  0.00    +0.000 A 
ATOM      9  C   UNL     1       6.433   3.771  12.596  0.00  0.00    +0.000 C 
ATOM     10  C   UNL     1       7.240   4.641  14.811  0.00  0.00    +0.000 A 
ATOM     11  C   UNL     1       7.049   4.910  16.166  0.00  0.00    +0.000 A 
ENDBRANCH   2   5
ENDBRANCH   1   2
BRANCH   1  12
ATOM     12  C   UNL     1       3.169   3.693  18.709  0.00  0.00    +0.000 C 
BRANCH  12  13
ATOM     13  C   UNL     1       1.761   3.534  18.124  0.00  0.00    +0.000 C 
BRANCH  13  15
ATOM     14  C   UNL     1       1.000   3.339  20.509  0.00  0.00    +0.000 C 
ATOM     15  C   UNL     1       0.734   2.910  19.068  0.00  0.00    +0.000 C 
ENDBRANCH  13  15
ENDBRANCH  12  13
ENDBRANCH   1  12
BRANCH   1  16
ATOM     16  C   UNL     1       3.393   5.963  19.717  0.00  0.00    +0.000 C 
BRANCH  16  17
ATOM     17  C   UNL     1       2.536   7.158  19.399  0.00  0.00    +0.000 A 
ATOM     18  C   UNL     1       1.586   7.648  20.294  0.00  0.00    +0.000 A 
ATOM     19  C   UNL     1       0.980   8.894  20.061  0.00  0.00    +0.000 A 
ATOM     20  C   UNL     1       0.142   9.495  21.015  0.00  0.00    +0.000 A 
ATOM     21  C   UNL     1      -0.356  10.785  20.822  0.00  0.00    +0.000 A 
ATOM     22  C   UNL     1      -0.080  11.445  19.630  0.00  0.00    +0.000 A 
ATOM     23  C   UNL     1       0.727  10.829  18.662  0.00  0.00    +0.000 A 
ATOM     24  C   UNL     1       1.289   9.576  18.864  0.00  0.00    +0.000 A 
ATOM     25  N   UNL     1       2.134   9.073  17.952  0.00  0.00    +0.000 NA
ATOM     26  C   UNL     1       2.734   7.907  18.253  0.00  0.00    +0.000 A 
BRANCH  21  27
ATOM     27  O   UNL     1      -1.068  11.285  21.876  0.00  0.00    +0.000 OA
ATOM     28  C   UNL     1      -0.937  10.611  23.122  0.00  0.00    +0.000 C 
ENDBRANCH  21  27
BRANCH  26  29
ATOM     29  O   UNL     1       3.641   7.530  17.319  0.00  0.00    +0.000 OA
ATOM     30  H   UNL     1       4.362   8.153  17.533  0.00  0.00    +0.000 HD
ENDBRANCH  26  29
ENDBRANCH  16  17
ENDBRANCH   1  16
TORSDOF 9
ENDMDL
MODEL 4
REMARK VINA RESULT:      -7.8      2.543      4.818
REMARK  Name = 
REMARK  12 active torsions:
REMARK  status: ('A' for Active; 'I' for Inactive)
REMARK    1  A    between atoms: C_1  and  C_2
REMARK    2  A    between atoms: C_2  and  C_3
REMARK    3  A    between atoms: C_3  and  C_4
REMARK    4  A    between atoms: C_4  and  N_5
REMARK    5  A    between atoms: N_5  and  C_6
REMARK    6  A    between atoms: N_5  and  S_20
REMARK    7  A    between atoms: C_6  and  C_7
REMARK    8  A    between atoms: C_11  and  O_12
REMARK    9  A    between atoms: O_12  and  C_13
REMARK   10  A    between atoms: C_18  and  O_19
REMARK   11  A    between atoms: S_20  and  C_23
REMARK   12  A    between atoms: C_26  and  C_27
REMARK                            x       y       z     vdW  Elec       q    Type
REMARK                         _______ _______ _______ _____ _____    ______ ____
ROOT
ATOM      1  N   UNL     1       5.636   4.888  16.388  0.00  0.00    +0.000 NA
ENDROOT
BRANCH   1   2
ATOM      2  S   UNL     1       6.919   4.688  17.565  0.00  0.00    +0.000 S 
ATOM      3  O   UNL     1       6.369   4.217  18.816  0.00  0.00    +0.000 OA
ATOM      4  O   UNL     1       8.002   3.989  16.906  0.00  0.00    +0.000 OA
BRANCH   2   5
ATOM      5  C   UNL     1       7.440   6.361  17.865  0.00  0.00    +0.000 A 
ATOM      6  C   UNL     1       6.960   7.368  17.028  0.00  0.00    +0.000 A 
ATOM      7  C   UNL     1       7.381   8.680  17.224  0.00  0.00    +0.000 A 
ATOM      8  C   UNL     1       8.280   8.988  18.252  0.00  0.00    +0.000 A 
ATOM      9  C   UNL     1       8.780  10.392  18.439  0.00  0.00    +0.000 C 
ATOM     10  C   UNL     1       8.714   7.973  19.118  0.00  0.00    +0.000 A 
ATOM     11  C   UNL     1       8.297   6.656  18.925  0.00  0.00    +0.000 A 
ENDBRANCH   2   5
ENDBRANCH   1   2
BRANCH   1  12
ATOM     12  C   UNL     1       5.919   4.062  15.149  0.00  0.00    +0.000 C 
BRANCH  12  13
ATOM     13  C   UNL     1       6.810   4.721  14.090  0.00  0.00    +0.000 C 
BRANCH  13  15
ATOM     14  C   UNL     1       5.389   3.323  12.563  0.00  0.00    +0.000 C 
ATOM     15  C   UNL     1       6.664   4.155  12.678  0.00  0.00    +0.000 C 
ENDBRANCH  13  15
ENDBRANCH  12  13
ENDBRANCH   1  12
BRANCH   1  16
ATOM     16  C   UNL     1       4.308   4.538  16.992  0.00  0.00    +0.000 C 
BRANCH  16  17
ATOM     17  C   UNL     1       3.704   5.514  17.965  0.00  0.00    +0.000 A 
ATOM     18  C   UNL     1       3.385   6.822  17.603  0.00  0.00    +0.000 A 
ATOM     19  C   UNL     1       2.613   7.620  18.464  0.00  0.00    +0.000 A 
ATOM     20  C   UNL     1       2.136   8.881  18.069  0.00  0.00    +0.000 A 
ATOM     21  C   UNL     1       1.271   9.610  18.887  0.00  0.00    +0.000 A 
ATOM     22  C   UNL     1       0.947   9.109  20.143  0.00  0.00    +0.000 A 
ATOM     23  C   UNL     1       1.453   7.867  20.551  0.00  0.00    +0.000 A 
ATOM     24  C   UNL     1       2.258   7.095  19.725  0.00  0.00    +0.000 A 
ATOM     25  N   UNL     1       2.635   5.870  20.123  0.00  0.00    +0.000 NA
ATOM     26  C   UNL     1       3.319   5.125  19.236  0.00  0.00    +0.000 A 
BRANCH  21  27
ATOM     27  O   UNL     1       0.801  10.767  18.332  0.00  0.00    +0.000 OA
ATOM     28  C   UNL     1      -0.021  11.589  19.150  0.00  0.00    +0.000 C 
ENDBRANCH  21  27
BRANCH  26  29
ATOM     29  O   UNL     1       3.569   3.872  19.690  0.00  0.00    +0.000 OA
ATOM     30  H   UNL     1       3.045   3.359  19.044  0.00  0.00    +0.000 HD
ENDBRANCH  26  29
ENDBRANCH  16  17
ENDBRANCH   1  16
TORSDOF 9
ENDMDL
MODEL 5
REMARK VINA RESULT:      -7.7      0.958      1.040
REMARK  Name = 
REMARK  12 active torsions:
REMARK  status: ('A' for Active; 'I' for Inactive)
REMARK    1  A    between atoms: C_1  and  C_2
REMARK    2  A    between atoms: C_2  and  C_3
REMARK    3  A    between atoms: C_3  and  C_4
REMARK    4  A    between atoms: C_4  and  N_5
REMARK    5  A    between atoms: N_5  and  C_6
REMARK    6  A    between atoms: N_5  and  S_20
REMARK    7  A    between atoms: C_6  and  C_7
REMARK    8  A    between atoms: C_11  and  O_12
REMARK    9  A    between atoms: O_12  and  C_13
REMARK   10  A    between atoms: C_18  and  O_19
REMARK   11  A    between atoms: S_20  and  C_23
REMARK   12  A    between atoms: C_26  and  C_27
REMARK                            x       y       z     vdW  Elec       q    Type
REMARK                         _______ _______ _______ _____ _____    ______ ____
ROOT
ATOM      1  N   UNL     1       3.109   4.755  18.102  0.00  0.00    +0.000 NA
ENDROOT
BRANCH   1   2
ATOM      2  S   UNL     1       4.358   3.527  18.093  0.00  0.00    +0.000 S 
ATOM      3  O   UNL     1       5.188   3.660  19.269  0.00  0.00    +0.000 OA
ATOM      4  O   UNL     1       3.723   2.269  17.756  0.00  0.00    +0.000 OA
BRANCH   2   5
ATOM      5  C   UNL     1       5.378   4.016  16.722  0.00  0.00    +0.000 A 
ATOM      6  C   UNL     1       6.635   4.561  16.988  0.00  0.00    +0.000 A 
ATOM      7  C   UNL     1       7.437   4.980  15.931  0.00  0.00    +0.000 A 
ATOM      8  C   UNL     1       6.987   4.860  14.610  0.00  0.00    +0.000 A 
ATOM      9  C   UNL     1       7.823   5.358  13.467  0.00  0.00    +0.000 C 
ATOM     10  C   UNL     1       5.743   4.263  14.356  0.00  0.00    +0.000 A 
ATOM     11  C   UNL     1       4.934   3.843  15.411  0.00  0.00    +0.000 A 
ENDBRANCH   2   5
ENDBRANCH   1   2
BRANCH   1  12
ATOM     12  C   UNL     1       1.739   4.119  18.232  0.00  0.00    +0.000 C 
BRANCH  12  13
ATOM     13  C   UNL     1       1.577   3.095  19.361  0.00  0.00    +0.000 C 
BRANCH  13  15
ATOM     14  C   UNL     1       1.922   2.992  21.845  0.00  0.00    +0.000 C 
ATOM     15  C   UNL     1       1.165   3.680  20.712  0.00  0.00    +0.000 C 
ENDBRANCH  13  15
ENDBRANCH  12  13
ENDBRANCH   1  12
BRANCH   1  16
ATOM     16  C   UNL     1       3.358   5.752  19.195  0.00  0.00    +0.000 C 
BRANCH  16  17
ATOM     17  C   UNL     1       2.580   7.040  19.156  0.00  0.00    +0.000 A 
ATOM     18  C   UNL     1       1.872   7.512  20.261  0.00  0.00    +0.000 A 
ATOM     19  C   UNL     1       1.361   8.820  20.259  0.00  0.00    +0.000 A 
ATOM     20  C   UNL     1       0.785   9.388  21.408  0.00  0.00    +0.000 A 
ATOM     21  C   UNL     1       0.390  10.727  21.427  0.00  0.00    +0.000 A 
ATOM     22  C   UNL     1       0.500  11.480  20.264  0.00  0.00    +0.000 A 
ATOM     23  C   UNL     1       1.042  10.903  19.107  0.00  0.00    +0.000 A 
ATOM     24  C   UNL     1       1.503   9.594  19.087  0.00  0.00    +0.000 A 
ATOM     25  N   UNL     1       2.104   9.119  17.985  0.00  0.00    +0.000 NA
ATOM     26  C   UNL     1       2.631   7.884  18.061  0.00  0.00    +0.000 A 
BRANCH  21  27
ATOM     27  O   UNL     1      -0.053  11.173  22.641  0.00  0.00    +0.000 OA
ATOM     28  C   UNL     1      -1.150  10.480  23.223  0.00  0.00    +0.000 C 
ENDBRANCH  21  27
BRANCH  26  29
ATOM     29  O   UNL     1       3.300   7.531  16.936  0.00  0.00    +0.000 OA
ATOM     30  H   UNL     1       4.217   7.679  17.242  0.00  0.00    +0.000 HD
ENDBRANCH  26  29
ENDBRANCH  16  17
ENDBRANCH   1  16
TORSDOF 9
ENDMDL
MODEL 6
REMARK VINA RESULT:      -7.6      0.918      1.383
REMARK  Name = 
REMARK  12 active torsions:
REMARK  status: ('A' for Active; 'I' for Inactive)
REMARK    1  A    between atoms: C_1  and  C_2
REMARK    2  A    between atoms: C_2  and  C_3
REMARK    3  A    between atoms: C_3  and  C_4
REMARK    4  A    between atoms: C_4  and  N_5
REMARK    5  A    between atoms: N_5  and  C_6
REMARK    6  A    between atoms: N_5  and  S_20
REMARK    7  A    between atoms: C_6  and  C_7
REMARK    8  A    between atoms: C_11  and  O_12
REMARK    9  A    between atoms: O_12  and  C_13
REMARK   10  A    between atoms: C_18  and  O_19
REMARK   11  A    between atoms: S_20  and  C_23
REMARK   12  A    between atoms: C_26  and  C_27
REMARK                            x       y       z     vdW  Elec       q    Type
REMARK                         _______ _______ _______ _____ _____    ______ ____
ROOT
ATOM      1  N   UNL     1       3.482   5.178  19.222  0.00  0.00    +0.000 NA
ENDROOT
BRANCH   1   2
ATOM      2  S   UNL     1       4.990   4.284  19.220  0.00  0.00    +0.000 S 
ATOM      3  O   UNL     1       6.010   5.040  19.912  0.00  0.00    +0.000 OA
ATOM      4  O   UNL     1       4.681   2.918  19.589  0.00  0.00    +0.000 OA
BRANCH   2   5
ATOM      5  C   UNL     1       5.453   4.303  17.505  0.00  0.00    +0.000 A 
ATOM      6  C   UNL     1       4.468   4.072  16.545  0.00  0.00    +0.000 A 
ATOM      7  C   UNL     1       4.815   4.049  15.198  0.00  0.00    +0.000 A 
ATOM      8  C   UNL     1       6.144   4.255  14.806  0.00  0.00    +0.000 A 
ATOM      9  C   UNL     1       6.537   4.181  13.359  0.00  0.00    +0.000 C 
ATOM     10  C   UNL     1       7.115   4.538  15.779  0.00  0.00    +0.000 A 
ATOM     11  C   UNL     1       6.773   4.559  17.131  0.00  0.00    +0.000 A 
ENDBRANCH   2   5
ENDBRANCH   1   2
BRANCH   1  12
ATOM     12  C   UNL     1       2.644   4.801  20.428  0.00  0.00    +0.000 C 
BRANCH  12  13
ATOM     13  C   UNL     1       1.229   4.291  20.132  0.00  0.00    +0.000 C 
BRANCH  13  15
ATOM     14  C   UNL     1       1.304   2.301  18.604  0.00  0.00    +0.000 C 
ATOM     15  C   UNL     1       1.094   2.772  20.041  0.00  0.00    +0.000 C 
ENDBRANCH  13  15
ENDBRANCH  12  13
ENDBRANCH   1  12
BRANCH   1  16
ATOM     16  C   UNL     1       3.744   6.654  19.173  0.00  0.00    +0.000 C 
BRANCH  16  17
ATOM     17  C   UNL     1       2.560   7.577  19.271  0.00  0.00    +0.000 A 
ATOM     18  C   UNL     1       1.902   7.814  20.478  0.00  0.00    +0.000 A 
ATOM     19  C   UNL     1       0.962   8.853  20.571  0.00  0.00    +0.000 A 
ATOM     20  C   UNL     1       0.399   9.229  21.802  0.00  0.00    +0.000 A 
ATOM     21  C   UNL     1      -0.442  10.339  21.898  0.00  0.00    +0.000 A 
ATOM     22  C   UNL     1      -0.786  11.029  20.742  0.00  0.00    +0.000 A 
ATOM     23  C   UNL     1      -0.252  10.632  19.507  0.00  0.00    +0.000 A 
ATOM     24  C   UNL     1       0.640   9.574  19.400  0.00  0.00    +0.000 A 
ATOM     25  N   UNL     1       1.200   9.295  18.213  0.00  0.00    +0.000 NA
ATOM     26  C   UNL     1       2.140   8.334  18.191  0.00  0.00    +0.000 A 
BRANCH  21  27
ATOM     27  O   UNL     1      -0.830  10.651  23.171  0.00  0.00    +0.000 OA
ATOM     28  C   UNL     1      -1.858  11.623  23.314  0.00  0.00    +0.000 C 
ENDBRANCH  21  27
BRANCH  26  29
ATOM     29  O   UNL     1       2.716   8.193  16.972  0.00  0.00    +0.000 OA
ATOM     30  H   UNL     1       3.655   8.163  17.240  0.00  0.00    +0.000 HD
ENDBRANCH  26  29
ENDBRANCH  16  17
ENDBRANCH   1  16
TORSDOF 9
ENDMDL
MODEL 7
REMARK VINA RESULT:      -7.5      0.883      1.143
REMARK  Name = 
REMARK  12 active torsions:
REMARK  status: ('A' for Active; 'I' for Inactive)
REMARK    1  A    between atoms: C_1  and  C_2
REMARK    2  A    between atoms: C_2  and  C_3
REMARK    3  A    between atoms: C_3  and  C_4
REMARK    4  A    between atoms: C_4  and  N_5
REMARK    5  A    between atoms: N_5  and  C_6
REMARK    6  A    between atoms: N_5  and  S_20
REMARK    7  A    between atoms: C_6  and  C_7
REMARK    8  A    between atoms: C_11  and  O_12
REMARK    9  A    between atoms: O_12  and  C_13
REMARK   10  A    between atoms: C_18  and  O_19
REMARK   11  A    between atoms: S_20  and  C_23
REMARK   12  A    between atoms: C_26  and  C_27
REMARK                            x       y       z     vdW  Elec       q    Type
REMARK                         _______ _______ _______ _____ _____    ______ ____
ROOT
ATOM      1  N   UNL     1       3.688   5.145  19.164  0.00  0.00    +0.000 NA
ENDROOT
BRANCH   1   2
ATOM      2  S   UNL     1       5.221   4.295  19.151  0.00  0.00    +0.000 S 
ATOM      3  O   UNL     1       6.215   5.063  19.866  0.00  0.00    +0.000 OA
ATOM      4  O   UNL     1       4.949   2.912  19.487  0.00  0.00    +0.000 OA
BRANCH   2   5
ATOM      5  C   UNL     1       5.693   4.365  17.439  0.00  0.00    +0.000 A 
ATOM      6  C   UNL     1       7.046   4.492  17.126  0.00  0.00    +0.000 A 
ATOM      7  C   UNL     1       7.435   4.582  15.792  0.00  0.00    +0.000 A 
ATOM      8  C   UNL     1       6.476   4.546  14.771  0.00  0.00    +0.000 A 
ATOM      9  C   UNL     1       6.881   4.695  13.334  0.00  0.00    +0.000 C 
ATOM     10  C   UNL     1       5.124   4.366  15.100  0.00  0.00    +0.000 A 
ATOM     11  C   UNL     1       4.728   4.278  16.434  0.00  0.00    +0.000 A 
ENDBRANCH   2   5
ENDBRANCH   1   2
BRANCH   1  12
ATOM     12  C   UNL     1       2.756   4.542  20.196  0.00  0.00    +0.000 C 
BRANCH  12  13
ATOM     13  C   UNL     1       1.502   3.851  19.649  0.00  0.00    +0.000 C 
BRANCH  13  15
ATOM     14  C   UNL     1       2.057   2.169  17.869  0.00  0.00    +0.000 C 
ATOM     15  C   UNL     1       1.520   3.571  18.146  0.00  0.00    +0.000 C 
ENDBRANCH  13  15
ENDBRANCH  12  13
ENDBRANCH   1  12
BRANCH   1  16
ATOM     16  C   UNL     1       3.900   6.610  19.403  0.00  0.00    +0.000 C 
BRANCH  16  17
ATOM     17  C   UNL     1       2.742   7.535  19.144  0.00  0.00    +0.000 A 
ATOM     18  C   UNL     1       1.897   7.969  20.166  0.00  0.00    +0.000 A 
ATOM     19  C   UNL     1       0.983   9.007  19.925  0.00  0.00    +0.000 A 
ATOM     20  C   UNL     1       0.230   9.582  20.963  0.00  0.00    +0.000 A 
ATOM     21  C   UNL     1      -0.584  10.691  20.731  0.00  0.00    +0.000 A 
ATOM     22  C   UNL     1      -0.709  11.179  19.435  0.00  0.00    +0.000 A 
ATOM     23  C   UNL     1       0.014  10.582  18.392  0.00  0.00    +0.000 A 
ATOM     24  C   UNL     1       0.882   9.523  18.614  0.00  0.00    +0.000 A 
ATOM     25  N   UNL     1       1.627   9.051  17.602  0.00  0.00    +0.000 NA
ATOM     26  C   UNL     1       2.531   8.101  17.900  0.00  0.00    +0.000 A 
BRANCH  21  27
ATOM     27  O   UNL     1      -1.173  11.211  21.850  0.00  0.00    +0.000 OA
ATOM     28  C   UNL     1      -0.948  10.525  23.076  0.00  0.00    +0.000 C 
ENDBRANCH  21  27
BRANCH  26  29
ATOM     29  O   UNL     1       3.300   7.760  16.836  0.00  0.00    +0.000 OA
ATOM     30  H   UNL     1       3.092   8.507  16.241  0.00  0.00    +0.000 HD
ENDBRANCH  26  29
ENDBRANCH  16  17
ENDBRANCH   1  16
TORSDOF 9
ENDMDL
MODEL 8
REMARK VINA RESULT:      -7.4      2.726      8.418
REMARK  Name = 
REMARK  12 active torsions:
REMARK  status: ('A' for Active; 'I' for Inactive)
REMARK    1  A    between atoms: C_1  and  C_2
REMARK    2  A    between atoms: C_2  and  C_3
REMARK    3  A    between atoms: C_3  and  C_4
REMARK    4  A    between atoms: C_4  and  N_5
REMARK    5  A    between atoms: N_5  and  C_6
REMARK    6  A    between atoms: N_5  and  S_20
REMARK    7  A    between atoms: C_6  and  C_7
REMARK    8  A    between atoms: C_11  and  O_12
REMARK    9  A    between atoms: O_12  and  C_13
REMARK   10  A    between atoms: C_18  and  O_19
REMARK   11  A    between atoms: S_20  and  C_23
REMARK   12  A    between atoms: C_26  and  C_27
REMARK                            x       y       z     vdW  Elec       q    Type
REMARK                         _______ _______ _______ _____ _____    ______ ____
ROOT
ATOM      1  N   UNL     1       1.446   9.254  19.820  0.00  0.00    +0.000 NA
ENDROOT
BRANCH   1   2
ATOM      2  S   UNL     1       1.287  10.851  19.117  0.00  0.00    +0.000 S 
ATOM      3  O   UNL     1       1.457  11.858  20.140  0.00  0.00    +0.000 OA
ATOM      4  O   UNL     1       2.078  10.868  17.903  0.00  0.00    +0.000 OA
BRANCH   2   5
ATOM      5  C   UNL     1      -0.429  10.909  18.660  0.00  0.00    +0.000 A 
ATOM      6  C   UNL     1      -1.265  11.808  19.323  0.00  0.00    +0.000 A 
ATOM      7  C   UNL     1      -2.619  11.847  19.004  0.00  0.00    +0.000 A 
ATOM      8  C   UNL     1      -3.141  10.991  18.026  0.00  0.00    +0.000 A 
ATOM      9  C   UNL     1      -4.609  10.990  17.712  0.00  0.00    +0.000 C 
ATOM     10  C   UNL     1      -2.278  10.129  17.331  0.00  0.00    +0.000 A 
ATOM     11  C   UNL     1      -0.921  10.084  17.648  0.00  0.00    +0.000 A 
ENDBRANCH   2   5
ENDBRANCH   1   2
BRANCH   1  12
ATOM     12  C   UNL     1       0.431   9.058  20.928  0.00  0.00    +0.000 C 
BRANCH  12  13
ATOM     13  C   UNL     1       0.967   9.172  22.360  0.00  0.00    +0.000 C 
BRANCH  13  15
ATOM     14  C   UNL     1      -0.940  10.718  22.885  0.00  0.00    +0.000 C 
ATOM     15  C   UNL     1      -0.067   9.581  23.409  0.00  0.00    +0.000 C 
ENDBRANCH  13  15
ENDBRANCH  12  13
ENDBRANCH   1  12
BRANCH   1  16
ATOM     16  C   UNL     1       1.317   8.198  18.762  0.00  0.00    +0.000 C 
BRANCH  16  17
ATOM     17  C   UNL     1       2.417   7.177  18.656  0.00  0.00    +0.000 A 
ATOM     18  C   UNL     1       3.255   7.102  17.544  0.00  0.00    +0.000 A 
ATOM     19  C   UNL     1       4.407   6.300  17.586  0.00  0.00    +0.000 A 
ATOM     20  C   UNL     1       5.358   6.322  16.552  0.00  0.00    +0.000 A 
ATOM     21  C   UNL     1       6.555   5.612  16.663  0.00  0.00    +0.000 A 
ATOM     22  C   UNL     1       6.766   4.811  17.779  0.00  0.00    +0.000 A 
ATOM     23  C   UNL     1       5.799   4.762  18.795  0.00  0.00    +0.000 A 
ATOM     24  C   UNL     1       4.634   5.513  18.736  0.00  0.00    +0.000 A 
ATOM     25  N   UNL     1       3.788   5.508  19.778  0.00  0.00    +0.000 NA
ATOM     26  C   UNL     1       2.734   6.341  19.712  0.00  0.00    +0.000 A 
BRANCH  21  27
ATOM     27  O   UNL     1       7.432   5.810  15.633  0.00  0.00    +0.000 OA
ATOM     28  C   UNL     1       7.222   5.050  14.450  0.00  0.00    +0.000 C 
ENDBRANCH  21  27
BRANCH  26  29
ATOM     29  O   UNL     1       1.994   6.337  20.848  0.00  0.00    +0.000 OA
ATOM     30  H   UNL     1       1.617   5.437  20.792  0.00  0.00    +0.000 HD
ENDBRANCH  26  29
ENDBRANCH  16  17
ENDBRANCH   1  16
TORSDOF 9
ENDMDL
MODEL 9
REMARK VINA RESULT:      -7.4      2.932      9.469
REMARK  Name = 
REMARK  12 active torsions:
REMARK  status: ('A' for Active; 'I' for Inactive)
REMARK    1  A    between atoms: C_1  and  C_2
REMARK    2  A    between atoms: C_2  and  C_3
REMARK    3  A    between atoms: C_3  and  C_4
REMARK    4  A    between atoms: C_4  and  N_5
REMARK    5  A    between atoms: N_5  and  C_6
REMARK    6  A    between atoms: N_5  and  S_20
REMARK    7  A    between atoms: C_6  and  C_7
REMARK    8  A    between atoms: C_11  and  O_12
REMARK    9  A    between atoms: O_12  and  C_13
REMARK   10  A    between atoms: C_18  and  O_19
REMARK   11  A    between atoms: S_20  and  C_23
REMARK   12  A    between atoms: C_26  and  C_27
REMARK                            x       y       z     vdW  Elec       q    Type
REMARK                         _______ _______ _______ _____ _____    ______ ____
ROOT
ATOM      1  N   UNL     1       0.007  10.830  19.318  0.00  0.00    +0.000 NA
ENDROOT
BRANCH   1   2
ATOM      2  S   UNL     1       0.354  12.262  20.267  0.00  0.00    +0.000 S 
ATOM      3  O   UNL     1       1.539  12.047  21.067  0.00  0.00    +0.000 OA
ATOM      4  O   UNL     1       0.238  13.403  19.382  0.00  0.00    +0.000 OA
BRANCH   2   5
ATOM      5  C   UNL     1      -1.003  12.310  21.413  0.00  0.00    +0.000 A 
ATOM      6  C   UNL     1      -2.035  13.221  21.186  0.00  0.00    +0.000 A 
ATOM      7  C   UNL     1      -3.091  13.298  22.089  0.00  0.00    +0.000 A 
ATOM      8  C   UNL     1      -3.119  12.470  23.219  0.00  0.00    +0.000 A 
ATOM      9  C   UNL     1      -4.227  12.583  24.225  0.00  0.00    +0.000 C 
ATOM     10  C   UNL     1      -2.100  11.524  23.407  0.00  0.00    +0.000 A 
ATOM     11  C   UNL     1      -1.037  11.444  22.506  0.00  0.00    +0.000 A 
ENDBRANCH   2   5
ENDBRANCH   1   2
BRANCH   1  12
ATOM     12  C   UNL     1      -1.150  11.086  18.373  0.00  0.00    +0.000 C 
BRANCH  12  13
ATOM     13  C   UNL     1      -1.443   9.981  17.352  0.00  0.00    +0.000 C 
BRANCH  13  15
ATOM     14  C   UNL     1      -2.848  10.324  15.301  0.00  0.00    +0.000 C 
ATOM     15  C   UNL     1      -2.863   9.979  16.788  0.00  0.00    +0.000 C 
ENDBRANCH  13  15
ENDBRANCH  12  13
ENDBRANCH   1  12
BRANCH   1  16
ATOM     16  C   UNL     1       1.232  10.378  18.579  0.00  0.00    +0.000 C 
BRANCH  16  17
ATOM     17  C   UNL     1       1.692   8.961  18.791  0.00  0.00    +0.000 A 
ATOM     18  C   UNL     1       2.417   8.264  17.824  0.00  0.00    +0.000 A 
ATOM     19  C   UNL     1       3.025   7.041  18.151  0.00  0.00    +0.000 A 
ATOM     20  C   UNL     1       3.894   6.390  17.259  0.00  0.00    +0.000 A 
ATOM     21  C   UNL     1       4.585   5.239  17.641  0.00  0.00    +0.000 A 
ATOM     22  C   UNL     1       4.343   4.691  18.896  0.00  0.00    +0.000 A 
ATOM     23  C   UNL     1       3.449   5.322  19.773  0.00  0.00    +0.000 A 
ATOM     24  C   UNL     1       2.805   6.504  19.438  0.00  0.00    +0.000 A 
ATOM     25  N   UNL     1       2.035   7.122  20.347  0.00  0.00    +0.000 NA
ATOM     26  C   UNL     1       1.528   8.320  20.006  0.00  0.00    +0.000 A 
BRANCH  21  27
ATOM     27  O   UNL     1       5.475   4.774  16.714  0.00  0.00    +0.000 OA
ATOM     28  C   UNL     1       6.857   4.911  17.018  0.00  0.00    +0.000 C 
ENDBRANCH  21  27
BRANCH  26  29
ATOM     29  O   UNL     1       0.849   8.908  21.021  0.00  0.00    +0.000 OA
ATOM     30  H   UNL     1       0.819   8.160  21.650  0.00  0.00    +0.000 HD
ENDBRANCH  26  29
ENDBRANCH  16  17
ENDBRANCH   1  16
TORSDOF 9
ENDMDL
