MODEL 1
REMARK VINA RESULT:      -6.3      0.000      0.000
REMARK  Name = 
REMARK  11 active torsions:
REMARK  status: ('A' for Active; 'I' for Inactive)
REMARK    1  A    between atoms: C_1  and  C_2
REMARK    2  A    between atoms: C_2  and  O_3
REMARK    3  A    between atoms: O_3  and  C_4
REMARK    4  A    between atoms: C_4  and  N_5
REMARK    5  A    between atoms: N_5  and  C_19
REMARK    6  A    between atoms: C_6  and  C_8
REMARK    7  A    between atoms: C_8  and  N_9
REMARK    8  A    between atoms: C_10  and  C_11
REMARK    9  A    between atoms: C_20  and  C_21
REMARK   10  A    between atoms: C_25  and  C_26
REMARK   11  A    between atoms: C_26  and  C_27
REMARK                            x       y       z     vdW  Elec       q    Type
REMARK                         _______ _______ _______ _____ _____    ______ ____
ROOT
ATOM      1  N   UNL     1       0.090  10.662  19.573  0.00  0.00    +0.000 N 
ATOM      2  C   UNL     1      -1.075  10.663  18.788  0.00  0.00    +0.000 C 
ATOM      3  O   UNL     1      -1.649   9.614  18.461  0.00  0.00    +0.000 OA
ENDROOT
BRANCH   1   4
ATOM      4  C   UNL     1       0.681   9.373  19.849  0.00  0.00    +0.000 A 
ATOM      5  C   UNL     1       1.616   8.843  18.920  0.00  0.00    +0.000 A 
ATOM      6  C   UNL     1       1.846   9.421  17.546  0.00  0.00    +0.000 C 
ATOM      7  C   UNL     1       2.313   7.659  19.222  0.00  0.00    +0.000 A 
ATOM      8  C   UNL     1       2.119   7.004  20.429  0.00  0.00    +0.000 A 
ATOM      9  C   UNL     1       1.177   7.491  21.323  0.00  0.00    +0.000 A 
ATOM     10  C   UNL     1       0.426   8.656  21.051  0.00  0.00    +0.000 A 
BRANCH  10  11
ATOM     11  C   UNL     1      -0.579   9.026  22.122  0.00  0.00    +0.000 C 
ATOM     12  C   UNL     1       0.104   9.460  23.419  0.00  0.00    +0.000 C 
ENDBRANCH  10  11
ENDBRANCH   1   4
BRANCH   1  13
ATOM     13  C   UNL     1       0.918  11.829  19.849  0.00  0.00    +0.000 C 
BRANCH  13  14
ATOM     14  O   UNL     1       0.890  12.172  21.231  0.00  0.00    +0.000 OA
BRANCH  14  16
ATOM     15  C   UNL     1      -0.935  12.847  22.633  0.00  0.00    +0.000 C 
ATOM     16  C   UNL     1      -0.045  13.231  21.468  0.00  0.00    +0.000 C 
ENDBRANCH  14  16
ENDBRANCH  13  14
ENDBRANCH   1  13
BRANCH   2  17
ATOM     17  C   UNL     1      -1.703  11.976  18.346  0.00  0.00    +0.000 C 
BRANCH  17  18
ATOM     18  N   UNL     1      -3.142  11.843  18.169  0.00  0.00    +0.000 N 
ATOM     19  C   UNL     1      -3.819  11.401  17.052  0.00  0.00    +0.000 A 
ATOM     20  C   UNL     1      -3.185  11.106  15.741  0.00  0.00    +0.000 C 
ATOM     21  N   UNL     1      -5.106  11.284  17.308  0.00  0.00    +0.000 NA
ATOM     22  C   UNL     1      -5.280  11.724  18.594  0.00  0.00    +0.000 A 
ATOM     23  C   UNL     1      -6.455  11.842  19.349  0.00  0.00    +0.000 A 
ATOM     24  C   UNL     1      -6.375  12.358  20.648  0.00  0.00    +0.000 A 
ATOM     25  C   UNL     1      -5.147  12.733  21.190  0.00  0.00    +0.000 A 
ATOM     26  C   UNL     1      -3.963  12.602  20.461  0.00  0.00    +0.000 A 
ATOM     27  C   UNL     1      -4.068  12.097  19.156  0.00  0.00    +0.000 A 
ENDBRANCH  17  18
ENDBRANCH   2  17
TORSDOF 7
ENDMDL
MODEL 2
REMARK VINA RESULT:      -6.3      5.997     10.439
REMARK  Name = 
REMARK  11 active torsions:
REMARK  status: ('A' for Active; 'I' for Inactive)
REMARK    1  A    between atoms: C_1  and  C_2
REMARK    2  A    between atoms: C_2  and  O_3
REMARK    3  A    between atoms: O_3  and  C_4
REMARK    4  A    between atoms: C_4  and  N_5
REMARK    5  A    between atoms: N_5  and  C_19
REMARK    6  A    between atoms: C_6  and  C_8
REMARK    7  A    between atoms: C_8  and  N_9
REMARK    8  A    between atoms: C_10  and  C_11
REMARK    9  A    between atoms: C_20  and  C_21
REMARK   10  A    between atoms: C_25  and  C_26
REMARK   11  A    between atoms: C_26  and  C_27
REMARK                            x       y       z     vdW  Elec       q    Type
REMARK                         _______ _______ _______ _____ _____    ______ ____
ROOT
ATOM      1  N   UNL     1       3.443   5.000  18.659  0.00  0.00    +0.000 N 
ATOM      2  C   UNL     1       4.803   4.991  19.012  0.00  0.00    +0.000 C 
ATOM      3  O   UNL     1       5.242   5.665  19.956  0.00  0.00    +0.000 OA
ENDROOT
BRANCH   1   4
ATOM      4  C   UNL     1       2.604   5.955  19.346  0.00  0.00    +0.000 A 
ATOM      5  C   UNL     1       1.941   5.545  20.534  0.00  0.00    +0.000 A 
ATOM      6  C   UNL     1       1.857   4.109  20.988  0.00  0.00    +0.000 C 
ATOM      7  C   UNL     1       1.229   6.484  21.301  0.00  0.00    +0.000 A 
ATOM      8  C   UNL     1       1.179   7.819  20.931  0.00  0.00    +0.000 A 
ATOM      9  C   UNL     1       1.787   8.220  19.750  0.00  0.00    +0.000 A 
ATOM     10  C   UNL     1       2.485   7.308  18.926  0.00  0.00    +0.000 A 
BRANCH  10  11
ATOM     11  C   UNL     1       3.060   7.911  17.661  0.00  0.00    +0.000 C 
ATOM     12  C   UNL     1       2.551   9.333  17.424  0.00  0.00    +0.000 C 
ENDBRANCH  10  11
ENDBRANCH   1   4
BRANCH   1  13
ATOM     13  C   UNL     1       2.882   4.382  17.465  0.00  0.00    +0.000 C 
BRANCH  13  14
ATOM     14  O   UNL     1       1.982   3.329  17.797  0.00  0.00    +0.000 OA
BRANCH  14  16
ATOM     15  C   UNL     1       3.339   1.551  18.662  0.00  0.00    +0.000 C 
ATOM     16  C   UNL     1       2.553   2.057  17.469  0.00  0.00    +0.000 C 
ENDBRANCH  14  16
ENDBRANCH  13  14
ENDBRANCH   1  13
BRANCH   2  17
ATOM     17  C   UNL     1       5.786   4.105  18.263  0.00  0.00    +0.000 C 
BRANCH  17  18
ATOM     18  N   UNL     1       6.387   4.810  17.140  0.00  0.00    +0.000 N 
ATOM     19  C   UNL     1       7.235   5.897  17.180  0.00  0.00    +0.000 A 
ATOM     20  C   UNL     1       7.585   6.652  18.411  0.00  0.00    +0.000 C 
ATOM     21  N   UNL     1       7.685   6.175  15.973  0.00  0.00    +0.000 NA
ATOM     22  C   UNL     1       7.064   5.299  15.123  0.00  0.00    +0.000 A 
ATOM     23  C   UNL     1       7.159   5.184  13.730  0.00  0.00    +0.000 A 
ATOM     24  C   UNL     1       6.387   4.214  13.077  0.00  0.00    +0.000 A 
ATOM     25  C   UNL     1       5.551   3.367  13.800  0.00  0.00    +0.000 A 
ATOM     26  C   UNL     1       5.461   3.451  15.192  0.00  0.00    +0.000 A 
ATOM     27  C   UNL     1       6.230   4.439  15.823  0.00  0.00    +0.000 A 
ENDBRANCH  17  18
ENDBRANCH   2  17
TORSDOF 7
ENDMDL
MODEL 3
REMARK VINA RESULT:      -6.2      6.088     10.412
REMARK  Name = 
REMARK  11 active torsions:
REMARK  status: ('A' for Active; 'I' for Inactive)
REMARK    1  A    between atoms: C_1  and  C_2
REMARK    2  A    between atoms: C_2  and  O_3
REMARK    3  A    between atoms: O_3  and  C_4
REMARK    4  A    between atoms: C_4  and  N_5
REMARK    5  A    between atoms: N_5  and  C_19
REMARK    6  A    between atoms: C_6  and  C_8
REMARK    7  A    between atoms: C_8  and  N_9
REMARK    8  A    between atoms: C_10  and  C_11
REMARK    9  A    between atoms: C_20  and  C_21
REMARK   10  A    between atoms: C_25  and  C_26
REMARK   11  A    between atoms: C_26  and  C_27
REMARK                            x       y       z     vdW  Elec       q    Type
REMARK                         _______ _______ _______ _____ _____    ______ ____
ROOT
ATOM      1  N   UNL     1       3.651   4.909  18.605  0.00  0.00    +0.000 N 
ATOM      2  C   UNL     1       5.026   4.895  18.890  0.00  0.00    +0.000 C 
ATOM      3  O   UNL     1       5.513   5.557  19.818  0.00  0.00    +0.000 OA
ENDROOT
BRANCH   1   4
ATOM      4  C   UNL     1       2.849   5.858  19.343  0.00  0.00    +0.000 A 
ATOM      5  C   UNL     1       2.650   7.153  18.792  0.00  0.00    +0.000 A 
ATOM      6  C   UNL     1       3.424   7.684  17.611  0.00  0.00    +0.000 C 
ATOM      7  C   UNL     1       1.766   8.053  19.413  0.00  0.00    +0.000 A 
ATOM      8  C   UNL     1       1.060   7.692  20.550  0.00  0.00    +0.000 A 
ATOM      9  C   UNL     1       1.280   6.446  21.120  0.00  0.00    +0.000 A 
ATOM     10  C   UNL     1       2.185   5.519  20.554  0.00  0.00    +0.000 A 
BRANCH  10  11
ATOM     11  C   UNL     1       2.324   4.222  21.323  0.00  0.00    +0.000 C 
ATOM     12  C   UNL     1       1.133   3.291  21.091  0.00  0.00    +0.000 C 
ENDBRANCH  10  11
ENDBRANCH   1   4
BRANCH   1  13
ATOM     13  C   UNL     1       3.029   4.307  17.433  0.00  0.00    +0.000 C 
BRANCH  13  14
ATOM     14  O   UNL     1       1.703   3.871  17.714  0.00  0.00    +0.000 OA
BRANCH  14  16
ATOM     15  C   UNL     1       3.080   1.911  17.816  0.00  0.00    +0.000 C 
ATOM     16  C   UNL     1       1.682   2.467  17.996  0.00  0.00    +0.000 C 
ENDBRANCH  14  16
ENDBRANCH  13  14
ENDBRANCH   1  13
BRANCH   2  17
ATOM     17  C   UNL     1       5.969   4.016  18.083  0.00  0.00    +0.000 C 
BRANCH  17  18
ATOM     18  N   UNL     1       6.519   4.734  16.943  0.00  0.00    +0.000 N 
ATOM     19  C   UNL     1       7.326   5.852  16.957  0.00  0.00    +0.000 A 
ATOM     20  C   UNL     1       7.674   6.629  18.175  0.00  0.00    +0.000 C 
ATOM     21  N   UNL     1       7.740   6.138  15.739  0.00  0.00    +0.000 NA
ATOM     22  C   UNL     1       7.134   5.233  14.909  0.00  0.00    +0.000 A 
ATOM     23  C   UNL     1       7.204   5.111  13.514  0.00  0.00    +0.000 A 
ATOM     24  C   UNL     1       6.455   4.108  12.884  0.00  0.00    +0.000 A 
ATOM     25  C   UNL     1       5.666   3.236  13.631  0.00  0.00    +0.000 A 
ATOM     26  C   UNL     1       5.603   3.327  15.024  0.00  0.00    +0.000 A 
ATOM     27  C   UNL     1       6.348   4.347  15.632  0.00  0.00    +0.000 A 
ENDBRANCH  17  18
ENDBRANCH   2  17
TORSDOF 7
ENDMDL
MODEL 4
REMARK VINA RESULT:      -6.1      2.075      4.396
REMARK  Name = 
REMARK  11 active torsions:
REMARK  status: ('A' for Active; 'I' for Inactive)
REMARK    1  A    between atoms: C_1  and  C_2
REMARK    2  A    between atoms: C_2  and  O_3
REMARK    3  A    between atoms: O_3  and  C_4
REMARK    4  A    between atoms: C_4  and  N_5
REMARK    5  A    between atoms: N_5  and  C_19
REMARK    6  A    between atoms: C_6  and  C_8
REMARK    7  A    between atoms: C_8  and  N_9
REMARK    8  A    between atoms: C_10  and  C_11
REMARK    9  A    between atoms: C_20  and  C_21
REMARK   10  A    between atoms: C_25  and  C_26
REMARK   11  A    between atoms: C_26  and  C_27
REMARK                            x       y       z     vdW  Elec       q    Type
REMARK                         _______ _______ _______ _____ _____    ______ ____
ROOT
ATOM      1  N   UNL     1      -0.041  10.779  19.691  0.00  0.00    +0.000 N 
ATOM      2  C   UNL     1       0.547  11.875  20.343  0.00  0.00    +0.000 C 
ATOM      3  O   UNL     1       1.612  11.774  20.970  0.00  0.00    +0.000 OA
ENDROOT
BRANCH   1   4
ATOM      4  C   UNL     1       0.568   9.489  19.919  0.00  0.00    +0.000 A 
ATOM      5  C   UNL     1       1.517   9.010  18.976  0.00  0.00    +0.000 A 
ATOM      6  C   UNL     1       1.744   9.645  17.626  0.00  0.00    +0.000 C 
ATOM      7  C   UNL     1       2.230   7.826  19.235  0.00  0.00    +0.000 A 
ATOM      8  C   UNL     1       2.041   7.122  20.414  0.00  0.00    +0.000 A 
ATOM      9  C   UNL     1       1.087   7.559  21.322  0.00  0.00    +0.000 A 
ATOM     10  C   UNL     1       0.319   8.722  21.091  0.00  0.00    +0.000 A 
BRANCH  10  11
ATOM     11  C   UNL     1      -0.697   9.035  22.170  0.00  0.00    +0.000 C 
ATOM     12  C   UNL     1      -0.040   9.618  23.420  0.00  0.00    +0.000 C 
ENDBRANCH  10  11
ENDBRANCH   1   4
BRANCH   1  13
ATOM     13  C   UNL     1      -1.368  10.773  19.089  0.00  0.00    +0.000 C 
BRANCH  13  14
ATOM     14  O   UNL     1      -1.322  11.170  17.722  0.00  0.00    +0.000 OA
BRANCH  14  16
ATOM     15  C   UNL     1      -2.683  10.650  15.817  0.00  0.00    +0.000 C 
ATOM     16  C   UNL     1      -2.645  11.295  17.188  0.00  0.00    +0.000 C 
ENDBRANCH  14  16
ENDBRANCH  13  14
ENDBRANCH   1  13
BRANCH   2  17
ATOM     17  C   UNL     1      -0.091  13.253  20.258  0.00  0.00    +0.000 C 
BRANCH  17  18
ATOM     18  N   UNL     1      -0.370  13.790  21.582  0.00  0.00    +0.000 N 
ATOM     19  C   UNL     1       0.361  14.721  22.289  0.00  0.00    +0.000 A 
ATOM     20  C   UNL     1       1.683  15.253  21.869  0.00  0.00    +0.000 C 
ATOM     21  N   UNL     1      -0.272  15.066  23.391  0.00  0.00    +0.000 NA
ATOM     22  C   UNL     1      -1.403  14.295  23.438  0.00  0.00    +0.000 A 
ATOM     23  C   UNL     1      -2.409  14.238  24.413  0.00  0.00    +0.000 A 
ATOM     24  C   UNL     1      -3.462  13.330  24.246  0.00  0.00    +0.000 A 
ATOM     25  C   UNL     1      -3.520  12.507  23.124  0.00  0.00    +0.000 A 
ATOM     26  C   UNL     1      -2.539  12.566  22.130  0.00  0.00    +0.000 A 
ATOM     27  C   UNL     1      -1.486  13.472  22.325  0.00  0.00    +0.000 A 
ENDBRANCH  17  18
ENDBRANCH   2  17
TORSDOF 7
ENDMDL
MODEL 5
REMARK VINA RESULT:      -6.1      1.149      2.512
REMARK  Name = 
REMARK  11 active torsions:
REMARK  status: ('A' for Active; 'I' for Inactive)
REMARK    1  A    between atoms: C_1  and  C_2
REMARK    2  A    between atoms: C_2  and  O_3
REMARK    3  A    between atoms: O_3  and  C_4
REMARK    4  A    between atoms: C_4  and  N_5
REMARK    5  A    between atoms: N_5  and  C_19
REMARK    6  A    between atoms: C_6  and  C_8
REMARK    7  A    between atoms: C_8  and  N_9
REMARK    8  A    between atoms: C_10  and  C_11
REMARK    9  A    between atoms: C_20  and  C_21
REMARK   10  A    between atoms: C_25  and  C_26
REMARK   11  A    between atoms: C_26  and  C_27
REMARK                            x       y       z     vdW  Elec       q    Type
REMARK                         _______ _______ _______ _____ _____    ______ ____
ROOT
ATOM      1  N   UNL     1      -0.358  11.301  19.514  0.00  0.00    +0.000 N 
ATOM      2  C   UNL     1      -1.414  10.908  18.674  0.00  0.00    +0.000 C 
ATOM      3  O   UNL     1      -1.808   9.734  18.617  0.00  0.00    +0.000 OA
ENDROOT
BRANCH   1   4
ATOM      4  C   UNL     1       0.355  10.242  20.191  0.00  0.00    +0.000 A 
ATOM      5  C   UNL     1       0.116  10.042  21.577  0.00  0.00    +0.000 A 
ATOM      6  C   UNL     1      -0.644  11.017  22.442  0.00  0.00    +0.000 C 
ATOM      7  C   UNL     1       0.686   8.938  22.236  0.00  0.00    +0.000 A 
ATOM      8  C   UNL     1       1.466   8.021  21.550  0.00  0.00    +0.000 A 
ATOM      9  C   UNL     1       1.740   8.231  20.206  0.00  0.00    +0.000 A 
ATOM     10  C   UNL     1       1.220   9.344  19.507  0.00  0.00    +0.000 A 
BRANCH  10  11
ATOM     11  C   UNL     1       1.645   9.435  18.057  0.00  0.00    +0.000 C 
ATOM     12  C   UNL     1       2.591   8.299  17.667  0.00  0.00    +0.000 C 
ENDBRANCH  10  11
ENDBRANCH   1   4
BRANCH   1  13
ATOM     13  C   UNL     1       0.277  12.612  19.507  0.00  0.00    +0.000 C 
BRANCH  13  14
ATOM     14  O   UNL     1       1.221  12.727  18.446  0.00  0.00    +0.000 OA
BRANCH  14  16
ATOM     15  C   UNL     1       2.375  13.397  20.439  0.00  0.00    +0.000 C 
ATOM     16  C   UNL     1       2.476  13.212  18.938  0.00  0.00    +0.000 C 
ENDBRANCH  14  16
ENDBRANCH  13  14
ENDBRANCH   1  13
BRANCH   2  17
ATOM     17  C   UNL     1      -2.147  11.938  17.829  0.00  0.00    +0.000 C 
BRANCH  17  18
ATOM     18  N   UNL     1      -3.591  11.782  17.937  0.00  0.00    +0.000 N 
ATOM     19  C   UNL     1      -4.455  11.248  17.005  0.00  0.00    +0.000 A 
ATOM     20  C   UNL     1      -4.073  10.854  15.624  0.00  0.00    +0.000 C 
ATOM     21  N   UNL     1      -5.669  11.143  17.507  0.00  0.00    +0.000 NA
ATOM     22  C   UNL     1      -5.608  11.683  18.765  0.00  0.00    +0.000 A 
ATOM     23  C   UNL     1      -6.623  11.852  19.716  0.00  0.00    +0.000 A 
ATOM     24  C   UNL     1      -6.312  12.470  20.934  0.00  0.00    +0.000 A 
ATOM     25  C   UNL     1      -5.013  12.896  21.204  0.00  0.00    +0.000 A 
ATOM     26  C   UNL     1      -3.984  12.715  20.277  0.00  0.00    +0.000 A 
ATOM     27  C   UNL     1      -4.321  12.108  19.059  0.00  0.00    +0.000 A 
ENDBRANCH  17  18
ENDBRANCH   2  17
TORSDOF 7
ENDMDL
MODEL 6
REMARK VINA RESULT:      -6.0      2.170      6.859
REMARK  Name = 
REMARK  11 active torsions:
REMARK  status: ('A' for Active; 'I' for Inactive)
REMARK    1  A    between atoms: C_1  and  C_2
REMARK    2  A    between atoms: C_2  and  O_3
REMARK    3  A    between atoms: O_3  and  C_4
REMARK    4  A    between atoms: C_4  and  N_5
REMARK    5  A    between atoms: N_5  and  C_19
REMARK    6  A    between atoms: C_6  and  C_8
REMARK    7  A    between atoms: C_8  and  N_9
REMARK    8  A    between atoms: C_10  and  C_11
REMARK    9  A    between atoms: C_20  and  C_21
REMARK   10  A    between atoms: C_25  and  C_26
REMARK   11  A    between atoms: C_26  and  C_27
REMARK                            x       y       z     vdW  Elec       q    Type
REMARK                         _______ _______ _______ _____ _____    ______ ____
ROOT
ATOM      1  N   UNL     1       0.261  10.655  20.198  0.00  0.00    +0.000 N 
ATOM      2  C   UNL     1       0.363   9.319  20.619  0.00  0.00    +0.000 C 
ATOM      3  O   UNL     1      -0.637   8.613  20.817  0.00  0.00    +0.000 OA
ENDROOT
BRANCH   1   4
ATOM      4  C   UNL     1      -1.068  11.220  20.161  0.00  0.00    +0.000 A 
ATOM      5  C   UNL     1      -1.537  11.926  21.302  0.00  0.00    +0.000 A 
ATOM      6  C   UNL     1      -0.836  11.911  22.638  0.00  0.00    +0.000 C 
ATOM      7  C   UNL     1      -2.767  12.605  21.251  0.00  0.00    +0.000 A 
ATOM      8  C   UNL     1      -3.530  12.619  20.094  0.00  0.00    +0.000 A 
ATOM      9  C   UNL     1      -3.100  11.898  18.989  0.00  0.00    +0.000 A 
ATOM     10  C   UNL     1      -1.889  11.169  19.001  0.00  0.00    +0.000 A 
BRANCH  10  11
ATOM     11  C   UNL     1      -1.591  10.415  17.722  0.00  0.00    +0.000 C 
ATOM     12  C   UNL     1      -2.868   9.926  17.038  0.00  0.00    +0.000 C 
ENDBRANCH  10  11
ENDBRANCH   1   4
BRANCH   1  13
ATOM     13  C   UNL     1       1.370  11.597  20.116  0.00  0.00    +0.000 C 
BRANCH  13  14
ATOM     14  O   UNL     1       1.331  12.342  18.903  0.00  0.00    +0.000 OA
BRANCH  14  16
ATOM     15  C   UNL     1       0.089  14.394  18.875  0.00  0.00    +0.000 C 
ATOM     16  C   UNL     1       1.427  13.746  19.170  0.00  0.00    +0.000 C 
ENDBRANCH  14  16
ENDBRANCH  13  14
ENDBRANCH   1  13
BRANCH   2  17
ATOM     17  C   UNL     1       1.727   8.673  20.803  0.00  0.00    +0.000 C 
BRANCH  17  18
ATOM     18  N   UNL     1       1.992   7.688  19.764  0.00  0.00    +0.000 N 
ATOM     19  C   UNL     1       2.330   7.917  18.447  0.00  0.00    +0.000 A 
ATOM     20  C   UNL     1       2.347   9.254  17.799  0.00  0.00    +0.000 C 
ATOM     21  N   UNL     1       2.628   6.785  17.843  0.00  0.00    +0.000 NA
ATOM     22  C   UNL     1       2.413   5.794  18.764  0.00  0.00    +0.000 A 
ATOM     23  C   UNL     1       2.545   4.405  18.631  0.00  0.00    +0.000 A 
ATOM     24  C   UNL     1       2.230   3.588  19.725  0.00  0.00    +0.000 A 
ATOM     25  C   UNL     1       1.807   4.145  20.929  0.00  0.00    +0.000 A 
ATOM     26  C   UNL     1       1.691   5.529  21.087  0.00  0.00    +0.000 A 
ATOM     27  C   UNL     1       1.998   6.326  19.975  0.00  0.00    +0.000 A 
ENDBRANCH  17  18
ENDBRANCH   2  17
TORSDOF 7
ENDMDL
MODEL 7
REMARK VINA RESULT:      -6.0      1.638      6.937
REMARK  Name = 
REMARK  11 active torsions:
REMARK  status: ('A' for Active; 'I' for Inactive)
REMARK    1  A    between atoms: C_1  and  C_2
REMARK    2  A    between atoms: C_2  and  O_3
REMARK    3  A    between atoms: O_3  and  C_4
REMARK    4  A    between atoms: C_4  and  N_5
REMARK    5  A    between atoms: N_5  and  C_19
REMARK    6  A    between atoms: C_6  and  C_8
REMARK    7  A    between atoms: C_8  and  N_9
REMARK    8  A    between atoms: C_10  and  C_11
REMARK    9  A    between atoms: C_20  and  C_21
REMARK   10  A    between atoms: C_25  and  C_26
REMARK   11  A    between atoms: C_26  and  C_27
REMARK                            x       y       z     vdW  Elec       q    Type
REMARK                         _______ _______ _______ _____ _____    ______ ____
ROOT
ATOM      1  N   UNL     1      -1.605  12.068  19.030  0.00  0.00    +0.000 N 
ATOM      2  C   UNL     1      -0.937  10.892  19.409  0.00  0.00    +0.000 C 
ATOM      3  O   UNL     1      -1.446   9.771  19.269  0.00  0.00    +0.000 OA
ENDROOT
BRANCH   1   4
ATOM      4  C   UNL     1      -2.982  11.924  18.617  0.00  0.00    +0.000 A 
ATOM      5  C   UNL     1      -4.006  12.318  19.520  0.00  0.00    +0.000 A 
ATOM      6  C   UNL     1      -3.757  12.643  20.972  0.00  0.00    +0.000 C 
ATOM      7  C   UNL     1      -5.348  12.321  19.102  0.00  0.00    +0.000 A 
ATOM      8  C   UNL     1      -5.695  11.964  17.808  0.00  0.00    +0.000 A 
ATOM      9  C   UNL     1      -4.707  11.537  16.933  0.00  0.00    +0.000 A 
ATOM     10  C   UNL     1      -3.347  11.482  17.316  0.00  0.00    +0.000 A 
BRANCH  10  11
ATOM     11  C   UNL     1      -2.409  10.964  16.246  0.00  0.00    +0.000 C 
ATOM     12  C   UNL     1      -3.169  10.384  15.053  0.00  0.00    +0.000 C 
ENDBRANCH  10  11
ENDBRANCH   1   4
BRANCH   1  13
ATOM     13  C   UNL     1      -1.153  13.423  19.323  0.00  0.00    +0.000 C 
BRANCH  13  14
ATOM     14  O   UNL     1      -0.346  13.941  18.271  0.00  0.00    +0.000 OA
BRANCH  14  16
ATOM     15  C   UNL     1       1.969  14.142  18.866  0.00  0.00    +0.000 C 
ATOM     16  C   UNL     1       0.632  14.852  18.788  0.00  0.00    +0.000 C 
ENDBRANCH  14  16
ENDBRANCH  13  14
ENDBRANCH   1  13
BRANCH   2  17
ATOM     17  C   UNL     1       0.476  10.958  19.969  0.00  0.00    +0.000 C 
BRANCH  17  18
ATOM     18  N   UNL     1       0.973   9.632  20.311  0.00  0.00    +0.000 N 
ATOM     19  C   UNL     1       0.807   8.946  21.495  0.00  0.00    +0.000 A 
ATOM     20  C   UNL     1       0.192   9.514  22.722  0.00  0.00    +0.000 C 
ATOM     21  N   UNL     1       1.277   7.720  21.388  0.00  0.00    +0.000 NA
ATOM     22  C   UNL     1       1.821   7.629  20.134  0.00  0.00    +0.000 A 
ATOM     23  C   UNL     1       2.482   6.555  19.521  0.00  0.00    +0.000 A 
ATOM     24  C   UNL     1       2.985   6.723  18.224  0.00  0.00    +0.000 A 
ATOM     25  C   UNL     1       2.818   7.929  17.548  0.00  0.00    +0.000 A 
ATOM     26  C   UNL     1       2.142   9.002  18.134  0.00  0.00    +0.000 A 
ATOM     27  C   UNL     1       1.661   8.818  19.438  0.00  0.00    +0.000 A 
ENDBRANCH  17  18
ENDBRANCH   2  17
TORSDOF 7
ENDMDL
MODEL 8
REMARK VINA RESULT:      -5.8      3.164      5.754
REMARK  Name = 
REMARK  11 active torsions:
REMARK  status: ('A' for Active; 'I' for Inactive)
REMARK    1  A    between atoms: C_1  and  C_2
REMARK    2  A    between atoms: C_2  and  O_3
REMARK    3  A    between atoms: O_3  and  C_4
REMARK    4  A    between atoms: C_4  and  N_5
REMARK    5  A    between atoms: N_5  and  C_19
REMARK    6  A    between atoms: C_6  and  C_8
REMARK    7  A    between atoms: C_8  and  N_9
REMARK    8  A    between atoms: C_10  and  C_11
REMARK    9  A    between atoms: C_20  and  C_21
REMARK   10  A    between atoms: C_25  and  C_26
REMARK   11  A    between atoms: C_26  and  C_27
REMARK                            x       y       z     vdW  Elec       q    Type
REMARK                         _______ _______ _______ _____ _____    ______ ____
ROOT
ATOM      1  N   UNL     1       0.475  11.438  19.444  0.00  0.00    +0.000 N 
ATOM      2  C   UNL     1       1.438  12.460  19.488  0.00  0.00    +0.000 C 
ATOM      3  O   UNL     1       1.975  12.814  20.548  0.00  0.00    +0.000 OA
ENDROOT
BRANCH   1   4
ATOM      4  C   UNL     1       0.021  10.925  20.716  0.00  0.00    +0.000 A 
ATOM      5  C   UNL     1       0.528   9.677  21.165  0.00  0.00    +0.000 A 
ATOM      6  C   UNL     1       1.318   8.735  20.290  0.00  0.00    +0.000 C 
ATOM      7  C   UNL     1       0.216   9.213  22.455  0.00  0.00    +0.000 A 
ATOM      8  C   UNL     1      -0.567   9.967  23.315  0.00  0.00    +0.000 A 
ATOM      9  C   UNL     1      -1.102  11.168  22.871  0.00  0.00    +0.000 A 
ATOM     10  C   UNL     1      -0.847  11.660  21.571  0.00  0.00    +0.000 A 
BRANCH  10  11
ATOM     11  C   UNL     1      -1.536  12.968  21.243  0.00  0.00    +0.000 C 
ATOM     12  C   UNL     1      -3.016  12.769  20.918  0.00  0.00    +0.000 C 
ENDBRANCH  10  11
ENDBRANCH   1   4
BRANCH   1  13
ATOM     13  C   UNL     1      -0.327  11.089  18.279  0.00  0.00    +0.000 C 
BRANCH  13  14
ATOM     14  O   UNL     1      -1.323  12.073  18.018  0.00  0.00    +0.000 OA
BRANCH  14  16
ATOM     15  C   UNL     1      -2.562  10.027  17.854  0.00  0.00    +0.000 C 
ATOM     16  C   UNL     1      -2.477  11.475  17.418  0.00  0.00    +0.000 C 
ENDBRANCH  14  16
ENDBRANCH  13  14
ENDBRANCH   1  13
BRANCH   2  17
ATOM     17  C   UNL     1       1.891  13.144  18.207  0.00  0.00    +0.000 C 
BRANCH  17  18
ATOM     18  N   UNL     1       2.165  14.557  18.429  0.00  0.00    +0.000 N 
ATOM     19  C   UNL     1       3.385  15.198  18.387  0.00  0.00    +0.000 A 
ATOM     20  C   UNL     1       4.696  14.513  18.243  0.00  0.00    +0.000 C 
ATOM     21  N   UNL     1       3.226  16.501  18.501  0.00  0.00    +0.000 NA
ATOM     22  C   UNL     1       1.885  16.706  18.690  0.00  0.00    +0.000 A 
ATOM     23  C   UNL     1       1.183  17.901  18.899  0.00  0.00    +0.000 A 
ATOM     24  C   UNL     1      -0.202  17.845  19.102  0.00  0.00    +0.000 A 
ATOM     25  C   UNL     1      -0.874  16.624  19.082  0.00  0.00    +0.000 A 
ATOM     26  C   UNL     1      -0.194  15.426  18.852  0.00  0.00    +0.000 A 
ATOM     27  C   UNL     1       1.193  15.504  18.666  0.00  0.00    +0.000 A 
ENDBRANCH  17  18
ENDBRANCH   2  17
TORSDOF 7
ENDMDL
MODEL 9
REMARK VINA RESULT:      -5.7      3.382      6.095
REMARK  Name = 
REMARK  11 active torsions:
REMARK  status: ('A' for Active; 'I' for Inactive)
REMARK    1  A    between atoms: C_1  and  C_2
REMARK    2  A    between atoms: C_2  and  O_3
REMARK    3  A    between atoms: O_3  and  C_4
REMARK    4  A    between atoms: C_4  and  N_5
REMARK    5  A    between atoms: N_5  and  C_19
REMARK    6  A    between atoms: C_6  and  C_8
REMARK    7  A    between atoms: C_8  and  N_9
REMARK    8  A    between atoms: C_10  and  C_11
REMARK    9  A    between atoms: C_20  and  C_21
REMARK   10  A    between atoms: C_25  and  C_26
REMARK   11  A    between atoms: C_26  and  C_27
REMARK                            x       y       z     vdW  Elec       q    Type
REMARK                         _______ _______ _______ _____ _____    ______ ____
ROOT
ATOM      1  N   UNL     1       0.156  12.267  19.499  0.00  0.00    +0.000 N 
ATOM      2  C   UNL     1       1.376  12.958  19.581  0.00  0.00    +0.000 C 
ATOM      3  O   UNL     1       2.086  12.924  20.597  0.00  0.00    +0.000 OA
ENDROOT
BRANCH   1   4
ATOM      4  C   UNL     1      -0.314  11.643  20.715  0.00  0.00    +0.000 A 
ATOM      5  C   UNL     1       0.104  10.317  21.002  0.00  0.00    +0.000 A 
ATOM      6  C   UNL     1       0.804   9.428  20.003  0.00  0.00    +0.000 C 
ATOM      7  C   UNL     1      -0.220   9.729  22.238  0.00  0.00    +0.000 A 
ATOM      8  C   UNL     1      -0.929  10.432  23.200  0.00  0.00    +0.000 A 
ATOM      9  C   UNL     1      -1.378  11.713  22.912  0.00  0.00    +0.000 A 
ATOM     10  C   UNL     1      -1.109  12.334  21.671  0.00  0.00    +0.000 A 
BRANCH  10  11
ATOM     11  C   UNL     1      -1.701  13.719  21.515  0.00  0.00    +0.000 C 
ATOM     12  C   UNL     1      -0.796  14.797  22.113  0.00  0.00    +0.000 C 
ENDBRANCH  10  11
ENDBRANCH   1   4
BRANCH   1  13
ATOM     13  C   UNL     1      -0.814  12.399  18.420  0.00  0.00    +0.000 C 
BRANCH  13  14
ATOM     14  O   UNL     1      -1.229  11.126  17.935  0.00  0.00    +0.000 OA
BRANCH  14  16
ATOM     15  C   UNL     1      -2.602   9.984  16.335  0.00  0.00    +0.000 C 
ATOM     16  C   UNL     1      -2.419  11.250  17.148  0.00  0.00    +0.000 C 
ENDBRANCH  14  16
ENDBRANCH  13  14
ENDBRANCH   1  13
BRANCH   2  17
ATOM     17  C   UNL     1       1.895  13.745  18.387  0.00  0.00    +0.000 C 
BRANCH  17  18
ATOM     18  N   UNL     1       2.100  15.146  18.724  0.00  0.00    +0.000 N 
ATOM     19  C   UNL     1       3.292  15.788  18.983  0.00  0.00    +0.000 A 
ATOM     20  C   UNL     1       4.608  15.110  19.107  0.00  0.00    +0.000 C 
ATOM     21  N   UNL     1       3.100  17.085  19.114  0.00  0.00    +0.000 NA
ATOM     22  C   UNL     1       1.749  17.282  19.007  0.00  0.00    +0.000 A 
ATOM     23  C   UNL     1       1.006  18.467  19.104  0.00  0.00    +0.000 A 
ATOM     24  C   UNL     1      -0.388  18.403  18.991  0.00  0.00    +0.000 A 
ATOM     25  C   UNL     1      -1.028  17.185  18.768  0.00  0.00    +0.000 A 
ATOM     26  C   UNL     1      -0.303  15.997  18.646  0.00  0.00    +0.000 A 
ATOM     27  C   UNL     1       1.091  16.083  18.778  0.00  0.00    +0.000 A 
ENDBRANCH  17  18
ENDBRANCH   2  17
TORSDOF 7
ENDMDL
