MODEL 1
REMARK VINA RESULT:      -7.8      0.000      0.000
REMARK  Name = 
REMARK  3 active torsions:
REMARK  status: ('A' for Active; 'I' for Inactive)
REMARK    1  A    between atoms: C_2  and  C_15
REMARK    2  A    between atoms: N_3  and  C_4
REMARK    3  A    between atoms: C_4  and  N_6
REMARK                            x       y       z     vdW  Elec       q    Type
REMARK                         _______ _______ _______ _____ _____    ______ ____
ROOT
ATOM      1  C   UNL     1       5.731   5.107  18.014  0.00  0.00    +0.000 C 
ATOM      2  S   UNL     1       6.900   5.435  19.182  0.00  0.00    +0.000 S 
ENDROOT
BRANCH   1   3
ATOM      3  N   UNL     1       4.368   5.146  18.310  0.00  0.00    +0.000 N 
ATOM      4  C   UNL     1       3.585   6.378  18.546  0.00  0.00    +0.000 C 
ATOM      5  C   UNL     1       2.137   5.963  18.828  0.00  0.00    +0.000 C 
ATOM      6  C   UNL     1       2.218   4.479  18.733  0.00  0.00    +0.000 A 
ATOM      7  C   UNL     1       1.199   3.552  18.849  0.00  0.00    +0.000 A 
ATOM      8  C   UNL     1       1.527   2.208  18.690  0.00  0.00    +0.000 A 
ATOM      9  C   UNL     1       2.853   1.867  18.432  0.00  0.00    +0.000 A 
ATOM     10  N   UNL     1       3.863   2.762  18.310  0.00  0.00    +0.000 NA
ATOM     11  C   UNL     1       3.506   4.050  18.462  0.00  0.00    +0.000 A 
ENDBRANCH   1   3
BRANCH   1  14
ATOM     12  O   UNL     1       7.597   6.323  16.000  0.00  0.00    +0.000 OA
ATOM     13  C   UNL     1       6.842   5.381  15.766  0.00  0.00    +0.000 C 
ATOM     14  N   UNL     1       6.015   4.757  16.692  0.00  0.00    +0.000 N 
ATOM     15  H   UNL     1       5.501   3.940  16.378  0.00  0.00    +0.000 HD
BRANCH  13  16
ATOM     16  C   UNL     1       6.839   4.833  14.381  0.00  0.00    +0.000 A 
ATOM     17  C   UNL     1       7.713   5.272  13.380  0.00  0.00    +0.000 A 
ATOM     18  C   UNL     1       7.631   4.719  12.098  0.00  0.00    +0.000 A 
ATOM     19  C   UNL     1       6.672   3.749  11.810  0.00  0.00    +0.000 A 
ATOM     20  C   UNL     1       5.785   3.326  12.798  0.00  0.00    +0.000 A 
ATOM     21  C   UNL     1       5.866   3.870  14.078  0.00  0.00    +0.000 A 
ENDBRANCH  13  16
ENDBRANCH   1  14
TORSDOF 3
ENDMDL
MODEL 2
REMARK VINA RESULT:      -7.8      0.236      1.106
REMARK  Name = 
REMARK  3 active torsions:
REMARK  status: ('A' for Active; 'I' for Inactive)
REMARK    1  A    between atoms: C_2  and  C_15
REMARK    2  A    between atoms: N_3  and  C_4
REMARK    3  A    between atoms: C_4  and  N_6
REMARK                            x       y       z     vdW  Elec       q    Type
REMARK                         _______ _______ _______ _____ _____    ______ ____
ROOT
ATOM      1  C   UNL     1       5.785   5.109  18.182  0.00  0.00    +0.000 C 
ATOM      2  S   UNL     1       7.008   5.467  19.283  0.00  0.00    +0.000 S 
ENDROOT
BRANCH   1   3
ATOM      3  N   UNL     1       4.439   5.121  18.551  0.00  0.00    +0.000 N 
ATOM      4  C   UNL     1       3.709   6.303  19.060  0.00  0.00    +0.000 C 
ATOM      5  C   UNL     1       2.263   5.876  19.334  0.00  0.00    +0.000 C 
ATOM      6  C   UNL     1       2.291   4.436  18.952  0.00  0.00    +0.000 A 
ATOM      7  C   UNL     1       1.249   3.528  18.942  0.00  0.00    +0.000 A 
ATOM      8  C   UNL     1       1.524   2.233  18.512  0.00  0.00    +0.000 A 
ATOM      9  C   UNL     1       2.824   1.917  18.123  0.00  0.00    +0.000 A 
ATOM     10  N   UNL     1       3.857   2.795  18.121  0.00  0.00    +0.000 NA
ATOM     11  C   UNL     1       3.550   4.037  18.536  0.00  0.00    +0.000 A 
ENDBRANCH   1   3
BRANCH   1  14
ATOM     12  O   UNL     1       7.550   6.322  16.077  0.00  0.00    +0.000 OA
ATOM     13  C   UNL     1       6.785   5.380  15.882  0.00  0.00    +0.000 C 
ATOM     14  N   UNL     1       6.004   4.757  16.848  0.00  0.00    +0.000 N 
ATOM     15  H   UNL     1       5.475   3.939  16.561  0.00  0.00    +0.000 HD
BRANCH  13  16
ATOM     16  C   UNL     1       6.713   4.830  14.499  0.00  0.00    +0.000 A 
ATOM     17  C   UNL     1       5.799   3.843  14.113  0.00  0.00    +0.000 A 
ATOM     18  C   UNL     1       5.810   3.365  12.798  0.00  0.00    +0.000 A 
ATOM     19  C   UNL     1       6.739   3.854  11.880  0.00  0.00    +0.000 A 
ATOM     20  C   UNL     1       7.665   4.820  12.268  0.00  0.00    +0.000 A 
ATOM     21  C   UNL     1       7.655   5.302  13.574  0.00  0.00    +0.000 A 
ENDBRANCH  13  16
ENDBRANCH   1  14
TORSDOF 3
ENDMDL
MODEL 3
REMARK VINA RESULT:      -7.5      1.188      1.504
REMARK  Name = 
REMARK  3 active torsions:
REMARK  status: ('A' for Active; 'I' for Inactive)
REMARK    1  A    between atoms: C_2  and  C_15
REMARK    2  A    between atoms: N_3  and  C_4
REMARK    3  A    between atoms: C_4  and  N_6
REMARK                            x       y       z     vdW  Elec       q    Type
REMARK                         _______ _______ _______ _____ _____    ______ ____
ROOT
ATOM      1  C   UNL     1       6.066   4.628  16.900  0.00  0.00    +0.000 C 
ATOM      2  S   UNL     1       7.480   4.821  17.796  0.00  0.00    +0.000 S 
ENDROOT
BRANCH   1   3
ATOM      3  N   UNL     1       4.823   5.018  17.398  0.00  0.00    +0.000 N 
ATOM      4  C   UNL     1       4.423   6.412  17.688  0.00  0.00    +0.000 C 
ATOM      5  C   UNL     1       2.982   6.386  18.210  0.00  0.00    +0.000 C 
ATOM      6  C   UNL     1       2.671   4.930  18.180  0.00  0.00    +0.000 A 
ATOM      7  C   UNL     1       1.485   4.296  18.499  0.00  0.00    +0.000 A 
ATOM      8  C   UNL     1       1.435   2.911  18.361  0.00  0.00    +0.000 A 
ATOM      9  C   UNL     1       2.572   2.239  17.920  0.00  0.00    +0.000 A 
ATOM     10  N   UNL     1       3.742   2.843  17.599  0.00  0.00    +0.000 NA
ATOM     11  C   UNL     1       3.749   4.181  17.737  0.00  0.00    +0.000 A 
ENDBRANCH   1   3
BRANCH   1  14
ATOM     12  O   UNL     1       7.407   5.401  14.326  0.00  0.00    +0.000 OA
ATOM     13  C   UNL     1       6.601   4.479  14.439  0.00  0.00    +0.000 C 
ATOM     14  N   UNL     1       6.013   4.058  15.626  0.00  0.00    +0.000 N 
ATOM     15  H   UNL     1       5.423   3.233  15.584  0.00  0.00    +0.000 HD
BRANCH  13  16
ATOM     16  C   UNL     1       6.249   3.720  13.206  0.00  0.00    +0.000 A 
ATOM     17  C   UNL     1       7.198   3.068  12.410  0.00  0.00    +0.000 A 
ATOM     18  C   UNL     1       6.788   2.394  11.256  0.00  0.00    +0.000 A 
ATOM     19  C   UNL     1       5.443   2.385  10.887  0.00  0.00    +0.000 A 
ATOM     20  C   UNL     1       4.498   3.052  11.665  0.00  0.00    +0.000 A 
ATOM     21  C   UNL     1       4.902   3.721  12.818  0.00  0.00    +0.000 A 
ENDBRANCH  13  16
ENDBRANCH   1  14
TORSDOF 3
ENDMDL
MODEL 4
REMARK VINA RESULT:      -7.4      1.000      1.000
REMARK  Name = 
REMARK  3 active torsions:
REMARK  status: ('A' for Active; 'I' for Inactive)
REMARK    1  A    between atoms: C_2  and  C_15
REMARK    2  A    between atoms: N_3  and  C_4
REMARK    3  A    between atoms: C_4  and  N_6
REMARK                            x       y       z     vdW  Elec       q    Type
REMARK                         _______ _______ _______ _____ _____    ______ ____
ROOT
ATOM      1  C   UNL     1       5.611   5.117  18.135  0.00  0.00    +0.000 C 
ATOM      2  S   UNL     1       6.805   5.317  19.307  0.00  0.00    +0.000 S 
ENDROOT
BRANCH   1   3
ATOM      3  N   UNL     1       4.259   5.299  18.427  0.00  0.00    +0.000 N 
ATOM      4  C   UNL     1       3.408   6.375  17.876  0.00  0.00    +0.000 C 
ATOM      5  C   UNL     1       1.999   6.198  18.452  0.00  0.00    +0.000 C 
ATOM      6  C   UNL     1       2.170   4.998  19.318  0.00  0.00    +0.000 A 
ATOM      7  C   UNL     1       1.217   4.331  20.064  0.00  0.00    +0.000 A 
ATOM      8  C   UNL     1       1.623   3.206  20.775  0.00  0.00    +0.000 A 
ATOM      9  C   UNL     1       2.958   2.815  20.707  0.00  0.00    +0.000 A 
ATOM     10  N   UNL     1       3.906   3.452  19.978  0.00  0.00    +0.000 NA
ATOM     11  C   UNL     1       3.473   4.530  19.298  0.00  0.00    +0.000 A 
ENDBRANCH   1   3
BRANCH   1  14
ATOM     12  O   UNL     1       7.428   6.292  16.051  0.00  0.00    +0.000 OA
ATOM     13  C   UNL     1       6.665   5.348  15.855  0.00  0.00    +0.000 C 
ATOM     14  N   UNL     1       5.861   4.742  16.813  0.00  0.00    +0.000 N 
ATOM     15  H   UNL     1       5.337   3.921  16.528  0.00  0.00    +0.000 HD
BRANCH  13  16
ATOM     16  C   UNL     1       6.625   4.774  14.480  0.00  0.00    +0.000 A 
ATOM     17  C   UNL     1       7.626   4.995  13.527  0.00  0.00    +0.000 A 
ATOM     18  C   UNL     1       7.503   4.435  12.251  0.00  0.00    +0.000 A 
ATOM     19  C   UNL     1       6.380   3.677  11.921  0.00  0.00    +0.000 A 
ATOM     20  C   UNL     1       5.371   3.474  12.861  0.00  0.00    +0.000 A 
ATOM     21  C   UNL     1       5.491   4.025  14.134  0.00  0.00    +0.000 A 
ENDBRANCH  13  16
ENDBRANCH   1  14
TORSDOF 3
ENDMDL
MODEL 5
REMARK VINA RESULT:      -7.4      1.067      2.034
REMARK  Name = 
REMARK  3 active torsions:
REMARK  status: ('A' for Active; 'I' for Inactive)
REMARK    1  A    between atoms: C_2  and  C_15
REMARK    2  A    between atoms: N_3  and  C_4
REMARK    3  A    between atoms: C_4  and  N_6
REMARK                            x       y       z     vdW  Elec       q    Type
REMARK                         _______ _______ _______ _____ _____    ______ ____
ROOT
ATOM      1  C   UNL     1       5.490   4.357  18.040  0.00  0.00    +0.000 C 
ATOM      2  S   UNL     1       6.313   5.197  19.247  0.00  0.00    +0.000 S 
ENDROOT
BRANCH   1   3
ATOM      3  N   UNL     1       4.301   3.674  18.303  0.00  0.00    +0.000 N 
ATOM      4  C   UNL     1       3.971   2.322  17.804  0.00  0.00    +0.000 C 
ATOM      5  C   UNL     1       2.579   1.957  18.333  0.00  0.00    +0.000 C 
ATOM      6  C   UNL     1       2.217   3.175  19.110  0.00  0.00    +0.000 A 
ATOM      7  C   UNL     1       1.080   3.411  19.861  0.00  0.00    +0.000 A 
ATOM      8  C   UNL     1       0.986   4.630  20.526  0.00  0.00    +0.000 A 
ATOM      9  C   UNL     1       2.028   5.547  20.397  0.00  0.00    +0.000 A 
ATOM     10  N   UNL     1       3.151   5.331  19.670  0.00  0.00    +0.000 NA
ATOM     11  C   UNL     1       3.209   4.139  19.050  0.00  0.00    +0.000 A 
ENDBRANCH   1   3
BRANCH   1  14
ATOM     12  O   UNL     1       5.644   6.397  15.842  0.00  0.00    +0.000 OA
ATOM     13  C   UNL     1       5.923   5.207  15.706  0.00  0.00    +0.000 C 
ATOM     14  N   UNL     1       5.923   4.254  16.717  0.00  0.00    +0.000 N 
ATOM     15  H   UNL     1       6.250   3.323  16.477  0.00  0.00    +0.000 HD
BRANCH  13  16
ATOM     16  C   UNL     1       6.336   4.751  14.348  0.00  0.00    +0.000 A 
ATOM     17  C   UNL     1       7.451   5.261  13.674  0.00  0.00    +0.000 A 
ATOM     18  C   UNL     1       7.759   4.793  12.392  0.00  0.00    +0.000 A 
ATOM     19  C   UNL     1       6.949   3.837  11.779  0.00  0.00    +0.000 A 
ATOM     20  C   UNL     1       5.825   3.343  12.440  0.00  0.00    +0.000 A 
ATOM     21  C   UNL     1       5.518   3.803  13.718  0.00  0.00    +0.000 A 
ENDBRANCH  13  16
ENDBRANCH   1  14
TORSDOF 3
ENDMDL
MODEL 6
REMARK VINA RESULT:      -7.4      1.100      2.318
REMARK  Name = 
REMARK  3 active torsions:
REMARK  status: ('A' for Active; 'I' for Inactive)
REMARK    1  A    between atoms: C_2  and  C_15
REMARK    2  A    between atoms: N_3  and  C_4
REMARK    3  A    between atoms: C_4  and  N_6
REMARK                            x       y       z     vdW  Elec       q    Type
REMARK                         _______ _______ _______ _____ _____    ______ ____
ROOT
ATOM      1  C   UNL     1       5.487   4.362  18.017  0.00  0.00    +0.000 C 
ATOM      2  S   UNL     1       6.349   5.239  19.168  0.00  0.00    +0.000 S 
ENDROOT
BRANCH   1   3
ATOM      3  N   UNL     1       4.319   3.672  18.345  0.00  0.00    +0.000 N 
ATOM      4  C   UNL     1       4.004   2.288  17.929  0.00  0.00    +0.000 C 
ATOM      5  C   UNL     1       2.633   1.926  18.511  0.00  0.00    +0.000 C 
ATOM      6  C   UNL     1       2.264   3.178  19.229  0.00  0.00    +0.000 A 
ATOM      7  C   UNL     1       1.141   3.433  19.994  0.00  0.00    +0.000 A 
ATOM      8  C   UNL     1       1.038   4.685  20.593  0.00  0.00    +0.000 A 
ATOM      9  C   UNL     1       2.057   5.612  20.390  0.00  0.00    +0.000 A 
ATOM     10  N   UNL     1       3.167   5.379  19.648  0.00  0.00    +0.000 NA
ATOM     11  C   UNL     1       3.235   4.156  19.092  0.00  0.00    +0.000 A 
ENDBRANCH   1   3
BRANCH   1  14
ATOM     12  O   UNL     1       5.608   6.373  15.790  0.00  0.00    +0.000 OA
ATOM     13  C   UNL     1       5.851   5.175  15.658  0.00  0.00    +0.000 C 
ATOM     14  N   UNL     1       5.865   4.233  16.679  0.00  0.00    +0.000 N 
ATOM     15  H   UNL     1       6.158   3.291  16.438  0.00  0.00    +0.000 HD
BRANCH  13  16
ATOM     16  C   UNL     1       6.198   4.694  14.291  0.00  0.00    +0.000 A 
ATOM     17  C   UNL     1       5.442   3.740  13.599  0.00  0.00    +0.000 A 
ATOM     18  C   UNL     1       5.848   3.326  12.326  0.00  0.00    +0.000 A 
ATOM     19  C   UNL     1       7.009   3.846  11.754  0.00  0.00    +0.000 A 
ATOM     20  C   UNL     1       7.775   4.779  12.450  0.00  0.00    +0.000 A 
ATOM     21  C   UNL     1       7.373   5.197  13.716  0.00  0.00    +0.000 A 
ENDBRANCH  13  16
ENDBRANCH   1  14
TORSDOF 3
ENDMDL
MODEL 7
REMARK VINA RESULT:      -7.3      1.476      1.923
REMARK  Name = 
REMARK  3 active torsions:
REMARK  status: ('A' for Active; 'I' for Inactive)
REMARK    1  A    between atoms: C_2  and  C_15
REMARK    2  A    between atoms: N_3  and  C_4
REMARK    3  A    between atoms: C_4  and  N_6
REMARK                            x       y       z     vdW  Elec       q    Type
REMARK                         _______ _______ _______ _____ _____    ______ ____
ROOT
ATOM      1  C   UNL     1       5.955   6.778  17.043  0.00  0.00    +0.000 C 
ATOM      2  S   UNL     1       7.203   7.732  17.652  0.00  0.00    +0.000 S 
ENDROOT
BRANCH   1   3
ATOM      3  N   UNL     1       4.752   6.616  17.731  0.00  0.00    +0.000 N 
ATOM      4  C   UNL     1       3.662   7.614  17.782  0.00  0.00    +0.000 C 
ATOM      5  C   UNL     1       2.533   7.028  18.637  0.00  0.00    +0.000 C 
ATOM      6  C   UNL     1       3.094   5.704  19.022  0.00  0.00    +0.000 A 
ATOM      7  C   UNL     1       2.501   4.699  19.763  0.00  0.00    +0.000 A 
ATOM      8  C   UNL     1       3.227   3.529  19.964  0.00  0.00    +0.000 A 
ATOM      9  C   UNL     1       4.507   3.431  19.422  0.00  0.00    +0.000 A 
ATOM     10  N   UNL     1       5.103   4.403  18.690  0.00  0.00    +0.000 NA
ATOM     11  C   UNL     1       4.367   5.515  18.509  0.00  0.00    +0.000 A 
ENDBRANCH   1   3
BRANCH   1  14
ATOM     12  O   UNL     1       7.700   4.488  16.187  0.00  0.00    +0.000 OA
ATOM     13  C   UNL     1       6.886   5.051  15.457  0.00  0.00    +0.000 C 
ATOM     14  N   UNL     1       6.021   6.069  15.842  0.00  0.00    +0.000 N 
ATOM     15  H   UNL     1       5.347   6.389  15.153  0.00  0.00    +0.000 HD
BRANCH  13  16
ATOM     16  C   UNL     1       6.788   4.578  14.048  0.00  0.00    +0.000 A 
ATOM     17  C   UNL     1       5.901   3.577  13.634  0.00  0.00    +0.000 A 
ATOM     18  C   UNL     1       5.885   3.177  12.294  0.00  0.00    +0.000 A 
ATOM     19  C   UNL     1       6.760   3.757  11.376  0.00  0.00    +0.000 A 
ATOM     20  C   UNL     1       7.660   4.738  11.789  0.00  0.00    +0.000 A 
ATOM     21  C   UNL     1       7.676   5.143  13.121  0.00  0.00    +0.000 A 
ENDBRANCH  13  16
ENDBRANCH   1  14
TORSDOF 3
ENDMDL
MODEL 8
REMARK VINA RESULT:      -7.3      1.291      1.351
REMARK  Name = 
REMARK  3 active torsions:
REMARK  status: ('A' for Active; 'I' for Inactive)
REMARK    1  A    between atoms: C_2  and  C_15
REMARK    2  A    between atoms: N_3  and  C_4
REMARK    3  A    between atoms: C_4  and  N_6
REMARK                            x       y       z     vdW  Elec       q    Type
REMARK                         _______ _______ _______ _____ _____    ______ ____
ROOT
ATOM      1  C   UNL     1       5.736   6.660  16.888  0.00  0.00    +0.000 C 
ATOM      2  S   UNL     1       6.932   7.557  17.666  0.00  0.00    +0.000 S 
ENDROOT
BRANCH   1   3
ATOM      3  N   UNL     1       4.457   6.521  17.426  0.00  0.00    +0.000 N 
ATOM      4  C   UNL     1       3.602   7.637  17.884  0.00  0.00    +0.000 C 
ATOM      5  C   UNL     1       2.286   7.040  18.393  0.00  0.00    +0.000 C 
ATOM      6  C   UNL     1       2.509   5.582  18.183  0.00  0.00    +0.000 A 
ATOM      7  C   UNL     1       1.638   4.535  18.417  0.00  0.00    +0.000 A 
ATOM      8  C   UNL     1       2.074   3.249  18.110  0.00  0.00    +0.000 A 
ATOM      9  C   UNL     1       3.358   3.082  17.594  0.00  0.00    +0.000 A 
ATOM     10  N   UNL     1       4.224   4.096  17.354  0.00  0.00    +0.000 NA
ATOM     11  C   UNL     1       3.763   5.323  17.655  0.00  0.00    +0.000 A 
ENDBRANCH   1   3
BRANCH   1  14
ATOM     12  O   UNL     1       7.734   4.566  16.083  0.00  0.00    +0.000 OA
ATOM     13  C   UNL     1       6.899   5.057  15.326  0.00  0.00    +0.000 C 
ATOM     14  N   UNL     1       5.922   5.979  15.683  0.00  0.00    +0.000 N 
ATOM     15  H   UNL     1       5.249   6.241  14.970  0.00  0.00    +0.000 HD
BRANCH  13  16
ATOM     16  C   UNL     1       6.907   4.598  13.908  0.00  0.00    +0.000 A 
ATOM     17  C   UNL     1       7.743   5.147  12.929  0.00  0.00    +0.000 A 
ATOM     18  C   UNL     1       7.674   4.672  11.615  0.00  0.00    +0.000 A 
ATOM     19  C   UNL     1       6.766   3.670  11.275  0.00  0.00    +0.000 A 
ATOM     20  C   UNL     1       5.917   3.137  12.243  0.00  0.00    +0.000 A 
ATOM     21  C   UNL     1       5.984   3.603  13.554  0.00  0.00    +0.000 A 
ENDBRANCH  13  16
ENDBRANCH   1  14
TORSDOF 3
ENDMDL
MODEL 9
REMARK VINA RESULT:      -7.2      1.387      1.728
REMARK  Name = 
REMARK  3 active torsions:
REMARK  status: ('A' for Active; 'I' for Inactive)
REMARK    1  A    between atoms: C_2  and  C_15
REMARK    2  A    between atoms: N_3  and  C_4
REMARK    3  A    between atoms: C_4  and  N_6
REMARK                            x       y       z     vdW  Elec       q    Type
REMARK                         _______ _______ _______ _____ _____    ______ ____
ROOT
ATOM      1  C   UNL     1       6.224   5.515  17.987  0.00  0.00    +0.000 C 
ATOM      2  S   UNL     1       7.501   5.737  19.064  0.00  0.00    +0.000 S 
ENDROOT
BRANCH   1   3
ATOM      3  N   UNL     1       4.898   5.487  18.418  0.00  0.00    +0.000 N 
ATOM      4  C   UNL     1       3.905   6.557  18.183  0.00  0.00    +0.000 C 
ATOM      5  C   UNL     1       2.582   6.115  18.817  0.00  0.00    +0.000 C 
ATOM      6  C   UNL     1       2.943   4.787  19.386  0.00  0.00    +0.000 A 
ATOM      7  C   UNL     1       2.131   3.882  20.043  0.00  0.00    +0.000 A 
ATOM      8  C   UNL     1       2.703   2.683  20.459  0.00  0.00    +0.000 A 
ATOM      9  C   UNL     1       4.054   2.459  20.201  0.00  0.00    +0.000 A 
ATOM     10  N   UNL     1       4.864   3.331  19.555  0.00  0.00    +0.000 NA
ATOM     11  C   UNL     1       4.273   4.474  19.161  0.00  0.00    +0.000 A 
ENDBRANCH   1   3
BRANCH   1  14
ATOM     12  O   UNL     1       5.088   3.441  16.136  0.00  0.00    +0.000 OA
ATOM     13  C   UNL     1       5.885   4.312  15.796  0.00  0.00    +0.000 C 
ATOM     14  N   UNL     1       6.379   5.323  16.613  0.00  0.00    +0.000 N 
ATOM     15  H   UNL     1       6.973   6.022  16.178  0.00  0.00    +0.000 HD
BRANCH  13  16
ATOM     16  C   UNL     1       6.335   4.312  14.375  0.00  0.00    +0.000 A 
ATOM     17  C   UNL     1       5.816   3.446  13.407  0.00  0.00    +0.000 A 
ATOM     18  C   UNL     1       6.308   3.497  12.098  0.00  0.00    +0.000 A 
ATOM     19  C   UNL     1       7.322   4.393  11.762  0.00  0.00    +0.000 A 
ATOM     20  C   UNL     1       7.856   5.242  12.729  0.00  0.00    +0.000 A 
ATOM     21  C   UNL     1       7.367   5.198  14.033  0.00  0.00    +0.000 A 
ENDBRANCH  13  16
ENDBRANCH   1  14
TORSDOF 3
ENDMDL
