MODEL 1
REMARK VINA RESULT:      -5.6      0.000      0.000
REMARK  Name = 
REMARK  2 active torsions:
REMARK  status: ('A' for Active; 'I' for Inactive)
REMARK    1  A    between atoms: N_1  and  C_2
REMARK    2  A    between atoms: C_9  and  N_10
REMARK                            x       y       z     vdW  Elec       q    Type
REMARK                         _______ _______ _______ _____ _____    ______ ____
ROOT
ATOM      1  C   UNL     1       6.288   4.688  17.364  0.00  0.00    +0.000 A 
ATOM      2  C   UNL     1       5.106   4.092  16.892  0.00  0.00    +0.000 A 
ATOM      3  C   UNL     1       3.943   4.052  17.670  0.00  0.00    +0.000 A 
ATOM      4 CL   UNL     1       2.534   3.337  16.973  0.00  0.00    +0.000 Cl
ATOM      5  C   UNL     1       3.955   4.575  18.965  0.00  0.00    +0.000 A 
ATOM      6 CL   UNL     1       2.562   4.557  19.984  0.00  0.00    +0.000 Cl
ATOM      7  C   UNL     1       5.129   5.130  19.478  0.00  0.00    +0.000 A 
ATOM      8  C   UNL     1       6.294   5.177  18.687  0.00  0.00    +0.000 A 
ENDROOT
BRANCH   1   9
ATOM      9  N   UNL     1       7.436   4.545  16.570  0.00  0.00    +0.000 N 
ATOM     10  H   UNL     1       8.164   5.241  16.709  0.00  0.00    +0.000 HD
ATOM     11  H   UNL     1       7.817   3.594  16.544  0.00  0.00    +0.000 HD
ENDBRANCH   1   9
BRANCH   8  12
ATOM     12  N   UNL     1       7.492   5.801  19.271  0.00  0.00    +0.000 N 
ATOM     13  O   UNL     1       8.044   6.726  18.651  0.00  0.00    +0.000 OA
ATOM     14  O   UNL     1       7.873   5.391  20.378  0.00  0.00    +0.000 OA
ENDBRANCH   8  12
TORSDOF 2
ENDMDL
MODEL 2
REMARK VINA RESULT:      -5.6      1.235      1.359
REMARK  Name = 
REMARK  2 active torsions:
REMARK  status: ('A' for Active; 'I' for Inactive)
REMARK    1  A    between atoms: N_1  and  C_2
REMARK    2  A    between atoms: C_9  and  N_10
REMARK                            x       y       z     vdW  Elec       q    Type
REMARK                         _______ _______ _______ _____ _____    ______ ____
ROOT
ATOM      1  C   UNL     1       5.509   4.204  16.841  0.00  0.00    +0.000 A 
ATOM      2  C   UNL     1       4.119   4.005  16.782  0.00  0.00    +0.000 A 
ATOM      3  C   UNL     1       3.277   4.402  17.828  0.00  0.00    +0.000 A 
ATOM      4 CL   UNL     1       1.579   4.153  17.631  0.00  0.00    +0.000 Cl
ATOM      5  C   UNL     1       3.821   4.971  18.982  0.00  0.00    +0.000 A 
ATOM      6 CL   UNL     1       2.846   5.479  20.312  0.00  0.00    +0.000 Cl
ATOM      7  C   UNL     1       5.204   5.136  19.087  0.00  0.00    +0.000 A 
ATOM      8  C   UNL     1       6.046   4.745  18.028  0.00  0.00    +0.000 A 
ENDROOT
BRANCH   1   9
ATOM      9  N   UNL     1       6.278   3.639  15.812  0.00  0.00    +0.000 N 
ATOM     10  H   UNL     1       6.877   2.862  16.079  0.00  0.00    +0.000 HD
ATOM     11  H   UNL     1       5.756   3.442  14.953  0.00  0.00    +0.000 HD
ENDBRANCH   1   9
BRANCH   8  12
ATOM     12  N   UNL     1       7.492   4.971  18.185  0.00  0.00    +0.000 N 
ATOM     13  O   UNL     1       8.280   4.121  17.737  0.00  0.00    +0.000 OA
ATOM     14  O   UNL     1       7.854   6.024  18.733  0.00  0.00    +0.000 OA
ENDBRANCH   8  12
TORSDOF 2
ENDMDL
MODEL 3
REMARK VINA RESULT:      -5.6      3.970      4.462
REMARK  Name = 
REMARK  2 active torsions:
REMARK  status: ('A' for Active; 'I' for Inactive)
REMARK    1  A    between atoms: N_1  and  C_2
REMARK    2  A    between atoms: C_9  and  N_10
REMARK                            x       y       z     vdW  Elec       q    Type
REMARK                         _______ _______ _______ _____ _____    ______ ____
ROOT
ATOM      1  C   UNL     1       4.291   3.376  19.581  0.00  0.00    +0.000 A 
ATOM      2  C   UNL     1       4.948   4.195  18.647  0.00  0.00    +0.000 A 
ATOM      3  C   UNL     1       4.396   5.408  18.219  0.00  0.00    +0.000 A 
ATOM      4 CL   UNL     1       5.311   6.358  17.104  0.00  0.00    +0.000 Cl
ATOM      5  C   UNL     1       3.143   5.807  18.691  0.00  0.00    +0.000 A 
ATOM      6 CL   UNL     1       2.397   7.285  18.204  0.00  0.00    +0.000 Cl
ATOM      7  C   UNL     1       2.446   4.989  19.583  0.00  0.00    +0.000 A 
ATOM      8  C   UNL     1       3.011   3.774  20.018  0.00  0.00    +0.000 A 
ENDROOT
BRANCH   1   9
ATOM      9  N   UNL     1       4.854   2.115  19.832  0.00  0.00    +0.000 N 
ATOM     10  H   UNL     1       5.141   1.937  20.791  0.00  0.00    +0.000 HD
ATOM     11  H   UNL     1       4.325   1.330  19.439  0.00  0.00    +0.000 HD
ENDBRANCH   1   9
BRANCH   8  12
ATOM     12  N   UNL     1       2.241   2.970  20.982  0.00  0.00    +0.000 N 
ATOM     13  O   UNL     1       2.826   2.520  21.982  0.00  0.00    +0.000 OA
ATOM     14  O   UNL     1       1.031   2.809  20.761  0.00  0.00    +0.000 OA
ENDBRANCH   8  12
TORSDOF 2
ENDMDL
MODEL 4
REMARK VINA RESULT:      -5.6      0.966      1.349
REMARK  Name = 
REMARK  2 active torsions:
REMARK  status: ('A' for Active; 'I' for Inactive)
REMARK    1  A    between atoms: N_1  and  C_2
REMARK    2  A    between atoms: C_9  and  N_10
REMARK                            x       y       z     vdW  Elec       q    Type
REMARK                         _______ _______ _______ _____ _____    ______ ____
ROOT
ATOM      1  C   UNL     1       5.335   4.478  17.402  0.00  0.00    +0.000 A 
ATOM      2  C   UNL     1       3.998   4.127  17.148  0.00  0.00    +0.000 A 
ATOM      3  C   UNL     1       2.963   4.510  18.009  0.00  0.00    +0.000 A 
ATOM      4 CL   UNL     1       1.351   4.065  17.576  0.00  0.00    +0.000 Cl
ATOM      5  C   UNL     1       3.255   5.222  19.176  0.00  0.00    +0.000 A 
ATOM      6 CL   UNL     1       2.033   5.722  20.286  0.00  0.00    +0.000 Cl
ATOM      7  C   UNL     1       4.580   5.542  19.478  0.00  0.00    +0.000 A 
ATOM      8  C   UNL     1       5.617   5.163  18.602  0.00  0.00    +0.000 A 
ENDROOT
BRANCH   1   9
ATOM      9  N   UNL     1       6.312   3.922  16.562  0.00  0.00    +0.000 N 
ATOM     10  H   UNL     1       7.240   4.330  16.628  0.00  0.00    +0.000 HD
ATOM     11  H   UNL     1       6.342   2.898  16.569  0.00  0.00    +0.000 HD
ENDBRANCH   1   9
BRANCH   8  12
ATOM     12  N   UNL     1       6.990   5.556  18.960  0.00  0.00    +0.000 N 
ATOM     13  O   UNL     1       7.393   5.326  20.113  0.00  0.00    +0.000 OA
ATOM     14  O   UNL     1       7.691   6.071  18.075  0.00  0.00    +0.000 OA
ENDBRANCH   8  12
TORSDOF 2
ENDMDL
MODEL 5
REMARK VINA RESULT:      -5.6      2.101      2.474
REMARK  Name = 
REMARK  2 active torsions:
REMARK  status: ('A' for Active; 'I' for Inactive)
REMARK    1  A    between atoms: N_1  and  C_2
REMARK    2  A    between atoms: C_9  and  N_10
REMARK                            x       y       z     vdW  Elec       q    Type
REMARK                         _______ _______ _______ _____ _____    ______ ____
ROOT
ATOM      1  C   UNL     1       5.187   4.311  16.540  0.00  0.00    +0.000 A 
ATOM      2  C   UNL     1       3.920   3.950  17.028  0.00  0.00    +0.000 A 
ATOM      3  C   UNL     1       3.084   4.879  17.657  0.00  0.00    +0.000 A 
ATOM      4 CL   UNL     1       1.528   4.338  18.176  0.00  0.00    +0.000 Cl
ATOM      5  C   UNL     1       3.523   6.191  17.851  0.00  0.00    +0.000 A 
ATOM      6 CL   UNL     1       2.551   7.389  18.623  0.00  0.00    +0.000 Cl
ATOM      7  C   UNL     1       4.798   6.566  17.420  0.00  0.00    +0.000 A 
ATOM      8  C   UNL     1       5.631   5.629  16.777  0.00  0.00    +0.000 A 
ENDROOT
BRANCH   1   9
ATOM      9  N   UNL     1       6.006   3.277  16.060  0.00  0.00    +0.000 N 
ATOM     10  H   UNL     1       5.581   2.650  15.382  0.00  0.00    +0.000 HD
ATOM     11  H   UNL     1       6.941   3.579  15.769  0.00  0.00    +0.000 HD
ENDBRANCH   1   9
BRANCH   8  12
ATOM     12  N   UNL     1       6.951   6.091  16.318  0.00  0.00    +0.000 N 
ATOM     13  O   UNL     1       7.450   5.561  15.311  0.00  0.00    +0.000 OA
ATOM     14  O   UNL     1       7.487   7.018  16.946  0.00  0.00    +0.000 OA
ENDBRANCH   8  12
TORSDOF 2
ENDMDL
MODEL 6
REMARK VINA RESULT:      -5.5      2.458      3.161
REMARK  Name = 
REMARK  2 active torsions:
REMARK  status: ('A' for Active; 'I' for Inactive)
REMARK    1  A    between atoms: N_1  and  C_2
REMARK    2  A    between atoms: C_9  and  N_10
REMARK                            x       y       z     vdW  Elec       q    Type
REMARK                         _______ _______ _______ _____ _____    ______ ____
ROOT
ATOM      1  C   UNL     1       5.310   4.997  18.276  0.00  0.00    +0.000 A 
ATOM      2  C   UNL     1       4.283   5.056  19.233  0.00  0.00    +0.000 A 
ATOM      3  C   UNL     1       3.250   5.996  19.144  0.00  0.00    +0.000 A 
ATOM      4 CL   UNL     1       2.013   5.949  20.349  0.00  0.00    +0.000 Cl
ATOM      5  C   UNL     1       3.250   6.933  18.107  0.00  0.00    +0.000 A 
ATOM      6 CL   UNL     1       2.014   8.125  17.936  0.00  0.00    +0.000 Cl
ATOM      7  C   UNL     1       4.285   6.929  17.170  0.00  0.00    +0.000 A 
ATOM      8  C   UNL     1       5.316   5.973  17.258  0.00  0.00    +0.000 A 
ENDROOT
BRANCH   1   9
ATOM      9  N   UNL     1       6.374   4.120  18.535  0.00  0.00    +0.000 N 
ATOM     10  H   UNL     1       6.751   4.142  19.479  0.00  0.00    +0.000 HD
ATOM     11  H   UNL     1       6.222   3.161  18.207  0.00  0.00    +0.000 HD
ENDBRANCH   1   9
BRANCH   8  12
ATOM     12  N   UNL     1       6.362   6.000  16.223  0.00  0.00    +0.000 N 
ATOM     13  O   UNL     1       6.040   5.767  15.045  0.00  0.00    +0.000 OA
ATOM     14  O   UNL     1       7.516   6.289  16.577  0.00  0.00    +0.000 OA
ENDBRANCH   8  12
TORSDOF 2
ENDMDL
MODEL 7
REMARK VINA RESULT:      -5.5      4.514      4.940
REMARK  Name = 
REMARK  2 active torsions:
REMARK  status: ('A' for Active; 'I' for Inactive)
REMARK    1  A    between atoms: N_1  and  C_2
REMARK    2  A    between atoms: C_9  and  N_10
REMARK                            x       y       z     vdW  Elec       q    Type
REMARK                         _______ _______ _______ _____ _____    ______ ____
ROOT
ATOM      1  C   UNL     1       3.127   2.934  18.040  0.00  0.00    +0.000 A 
ATOM      2  C   UNL     1       4.085   3.658  17.310  0.00  0.00    +0.000 A 
ATOM      3  C   UNL     1       4.071   5.057  17.268  0.00  0.00    +0.000 A 
ATOM      4 CL   UNL     1       5.324   5.847  16.379  0.00  0.00    +0.000 Cl
ATOM      5  C   UNL     1       3.062   5.763  17.927  0.00  0.00    +0.000 A 
ATOM      6 CL   UNL     1       2.977   7.487  17.915  0.00  0.00    +0.000 Cl
ATOM      7  C   UNL     1       2.069   5.067  18.620  0.00  0.00    +0.000 A 
ATOM      8  C   UNL     1       2.094   3.660  18.668  0.00  0.00    +0.000 A 
ENDROOT
BRANCH   1   9
ATOM      9  N   UNL     1       3.138   1.538  17.898  0.00  0.00    +0.000 N 
ATOM     10  H   UNL     1       2.381   1.037  18.356  0.00  0.00    +0.000 HD
ATOM     11  H   UNL     1       3.286   1.211  16.938  0.00  0.00    +0.000 HD
ENDBRANCH   1   9
BRANCH   8  12
ATOM     12  N   UNL     1       1.038   2.984  19.439  0.00  0.00    +0.000 N 
ATOM     13  O   UNL     1       0.957   3.207  20.660  0.00  0.00    +0.000 OA
ATOM     14  O   UNL     1       0.255   2.247  18.821  0.00  0.00    +0.000 OA
ENDBRANCH   8  12
TORSDOF 2
ENDMDL
MODEL 8
REMARK VINA RESULT:      -5.5      1.933      3.057
REMARK  Name = 
REMARK  2 active torsions:
REMARK  status: ('A' for Active; 'I' for Inactive)
REMARK    1  A    between atoms: N_1  and  C_2
REMARK    2  A    between atoms: C_9  and  N_10
REMARK                            x       y       z     vdW  Elec       q    Type
REMARK                         _______ _______ _______ _____ _____    ______ ____
ROOT
ATOM      1  C   UNL     1       6.235   4.687  18.228  0.00  0.00    +0.000 A 
ATOM      2  C   UNL     1       5.336   4.718  19.307  0.00  0.00    +0.000 A 
ATOM      3  C   UNL     1       3.953   4.618  19.113  0.00  0.00    +0.000 A 
ATOM      4 CL   UNL     1       2.942   4.619  20.513  0.00  0.00    +0.000 Cl
ATOM      5  C   UNL     1       3.438   4.529  17.817  0.00  0.00    +0.000 A 
ATOM      6 CL   UNL     1       1.746   4.409  17.500  0.00  0.00    +0.000 Cl
ATOM      7  C   UNL     1       4.306   4.546  16.724  0.00  0.00    +0.000 A 
ATOM      8  C   UNL     1       5.697   4.635  16.926  0.00  0.00    +0.000 A 
ENDROOT
BRANCH   1   9
ATOM      9  N   UNL     1       7.585   4.943  18.515  0.00  0.00    +0.000 N 
ATOM     10  H   UNL     1       8.160   4.129  18.716  0.00  0.00    +0.000 HD
ATOM     11  H   UNL     1       8.044   5.582  17.858  0.00  0.00    +0.000 HD
ENDBRANCH   1   9
BRANCH   8  12
ATOM     12  N   UNL     1       6.563   4.617  15.735  0.00  0.00    +0.000 N 
ATOM     13  O   UNL     1       6.407   3.709  14.900  0.00  0.00    +0.000 OA
ATOM     14  O   UNL     1       7.387   5.535  15.609  0.00  0.00    +0.000 OA
ENDBRANCH   8  12
TORSDOF 2
ENDMDL
MODEL 9
REMARK VINA RESULT:      -5.4      2.568      3.562
REMARK  Name = 
REMARK  2 active torsions:
REMARK  status: ('A' for Active; 'I' for Inactive)
REMARK    1  A    between atoms: N_1  and  C_2
REMARK    2  A    between atoms: C_9  and  N_10
REMARK                            x       y       z     vdW  Elec       q    Type
REMARK                         _______ _______ _______ _____ _____    ______ ____
ROOT
ATOM      1  C   UNL     1       6.536   5.863  16.800  0.00  0.00    +0.000 A 
ATOM      2  C   UNL     1       5.736   5.992  17.948  0.00  0.00    +0.000 A 
ATOM      3  C   UNL     1       4.582   5.220  18.129  0.00  0.00    +0.000 A 
ATOM      4 CL   UNL     1       3.699   5.425  19.600  0.00  0.00    +0.000 Cl
ATOM      5  C   UNL     1       4.180   4.326  17.134  0.00  0.00    +0.000 A 
ATOM      6 CL   UNL     1       2.768   3.345  17.284  0.00  0.00    +0.000 Cl
ATOM      7  C   UNL     1       4.930   4.213  15.961  0.00  0.00    +0.000 A 
ATOM      8  C   UNL     1       6.096   4.985  15.789  0.00  0.00    +0.000 A 
ENDROOT
BRANCH   1   9
ATOM      9  N   UNL     1       7.583   6.784  16.646  0.00  0.00    +0.000 N 
ATOM     10  H   UNL     1       7.950   7.191  17.502  0.00  0.00    +0.000 HD
ATOM     11  H   UNL     1       8.332   6.472  16.020  0.00  0.00    +0.000 HD
ENDBRANCH   1   9
BRANCH   8  12
ATOM     12  N   UNL     1       6.860   4.799  14.544  0.00  0.00    +0.000 N 
ATOM     13  O   UNL     1       7.876   5.491  14.361  0.00  0.00    +0.000 OA
ATOM     14  O   UNL     1       6.466   3.931  13.750  0.00  0.00    +0.000 OA
ENDBRANCH   8  12
TORSDOF 2
ENDMDL
