MODEL 1
REMARK VINA RESULT:      -8.0      0.000      0.000
REMARK  Name = 
REMARK  8 active torsions:
REMARK  status: ('A' for Active; 'I' for Inactive)
REMARK    1  A    between atoms: C_1  and  C_2
REMARK    2  A    between atoms: C_5  and  C_6
REMARK    3  A    between atoms: N_8  and  N_9
REMARK    4  A    between atoms: C_10  and  C_12
REMARK    5  A    between atoms: C_12  and  S_13
REMARK    6  A    between atoms: S_13  and  C_14
REMARK    7  A    between atoms: C_17  and  C_18
REMARK    8  A    between atoms: N_24  and  C_25
REMARK                            x       y       z     vdW  Elec       q    Type
REMARK                         _______ _______ _______ _____ _____    ______ ____
ROOT
ATOM      1  N   UNL     1       7.861   6.721  18.133  0.00  0.00    +0.000 N 
ATOM      2  C   UNL     1       7.469   5.666  18.930  0.00  0.00    +0.000 C 
ATOM      3  O   UNL     1       7.673   5.642  20.145  0.00  0.00    +0.000 OA
ATOM      4  H   UNL     1       7.473   6.874  17.198  0.00  0.00    +0.000 HD
ENDROOT
BRANCH   1   7
ATOM      5  C   UNL     1       8.255   9.074  18.174  0.00  0.00    +0.000 C 
ATOM      6  O   UNL     1       7.536   9.236  17.190  0.00  0.00    +0.000 OA
ATOM      7  N   UNL     1       8.440   7.833  18.753  0.00  0.00    +0.000 N 
ATOM      8  H   UNL     1       9.141   7.625  19.460  0.00  0.00    +0.000 HD
BRANCH   5  13
ATOM      9  C   UNL     1      10.919  13.741  20.398  0.00  0.00    +0.000 C 
ATOM     10  C   UNL     1      10.250  12.526  19.826  0.00  0.00    +0.000 A 
ATOM     11  C   UNL     1       9.823  12.498  18.497  0.00  0.00    +0.000 A 
ATOM     12  C   UNL     1       9.189  11.365  17.983  0.00  0.00    +0.000 A 
ATOM     13  C   UNL     1       8.965  10.237  18.789  0.00  0.00    +0.000 A 
ATOM     14  C   UNL     1       9.399  10.265  20.121  0.00  0.00    +0.000 A 
ATOM     15  C   UNL     1      10.036  11.402  20.632  0.00  0.00    +0.000 A 
ENDBRANCH   5  13
ENDBRANCH   1   7
BRANCH   2  16
ATOM     16  C   UNL     1       6.770   4.547  18.187  0.00  0.00    +0.000 C 
BRANCH  16  17
ATOM     17  S   UNL     1       5.105   4.276  18.843  0.00  0.00    +0.000 S 
BRANCH  17  18
ATOM     18  C   UNL     1       4.298   5.740  18.395  0.00  0.00    +0.000 A 
ATOM     19  N   UNL     1       4.604   6.534  17.402  0.00  0.00    +0.000 NA
ATOM     20  N   UNL     1       3.717   7.586  17.434  0.00  0.00    +0.000 NA
ATOM     21  C   UNL     1       2.900   7.435  18.468  0.00  0.00    +0.000 A 
ATOM     22  N   UNL     1       3.210   6.229  19.071  0.00  0.00    +0.000 N 
ATOM     23  C   UNL     1       2.541   5.563  20.156  0.00  0.00    +0.000 C 
BRANCH  21  24
ATOM     24  C   UNL     1       1.846   8.380  18.853  0.00  0.00    +0.000 A 
ATOM     25  C   UNL     1       1.208   9.153  17.877  0.00  0.00    +0.000 A 
ATOM     26  C   UNL     1       0.204  10.028  18.267  0.00  0.00    +0.000 A 
ATOM     27  N   UNL     1      -0.206  10.180  19.544  0.00  0.00    +0.000 NA
ATOM     28  C   UNL     1       0.441   9.456  20.476  0.00  0.00    +0.000 A 
ATOM     29  C   UNL     1       1.470   8.574  20.187  0.00  0.00    +0.000 A 
ENDBRANCH  21  24
ENDBRANCH  17  18
ENDBRANCH  16  17
ENDBRANCH   2  16
TORSDOF 6
ENDMDL
MODEL 2
REMARK VINA RESULT:      -7.9      4.499      7.048
REMARK  Name = 
REMARK  8 active torsions:
REMARK  status: ('A' for Active; 'I' for Inactive)
REMARK    1  A    between atoms: C_1  and  C_2
REMARK    2  A    between atoms: C_5  and  C_6
REMARK    3  A    between atoms: N_8  and  N_9
REMARK    4  A    between atoms: C_10  and  C_12
REMARK    5  A    between atoms: C_12  and  S_13
REMARK    6  A    between atoms: S_13  and  C_14
REMARK    7  A    between atoms: C_17  and  C_18
REMARK    8  A    between atoms: N_24  and  C_25
REMARK                            x       y       z     vdW  Elec       q    Type
REMARK                         _______ _______ _______ _____ _____    ______ ____
ROOT
ATOM      1  N   UNL     1       2.343   5.387  21.237  0.00  0.00    +0.000 N 
ATOM      2  C   UNL     1       1.602   4.255  20.970  0.00  0.00    +0.000 C 
ATOM      3  O   UNL     1       0.462   4.304  20.504  0.00  0.00    +0.000 OA
ATOM      4  H   UNL     1       3.358   5.358  21.366  0.00  0.00    +0.000 HD
ENDROOT
BRANCH   1   7
ATOM      5  C   UNL     1       2.233   7.225  19.719  0.00  0.00    +0.000 C 
ATOM      6  O   UNL     1       3.012   6.668  18.949  0.00  0.00    +0.000 OA
ATOM      7  N   UNL     1       1.798   6.626  20.887  0.00  0.00    +0.000 N 
ATOM      8  H   UNL     1       1.286   7.104  21.624  0.00  0.00    +0.000 HD
BRANCH   5  13
ATOM      9  C   UNL     1       0.265  12.614  18.761  0.00  0.00    +0.000 C 
ATOM     10  C   UNL     1       0.757  11.216  18.997  0.00  0.00    +0.000 A 
ATOM     11  C   UNL     1       0.717  10.644  20.269  0.00  0.00    +0.000 A 
ATOM     12  C   UNL     1       1.192   9.346  20.475  0.00  0.00    +0.000 A 
ATOM     13  C   UNL     1       1.719   8.595  19.412  0.00  0.00    +0.000 A 
ATOM     14  C   UNL     1       1.753   9.169  18.134  0.00  0.00    +0.000 A 
ATOM     15  C   UNL     1       1.275  10.470  17.932  0.00  0.00    +0.000 A 
ENDBRANCH   5  13
ENDBRANCH   1   7
BRANCH   2  16
ATOM     16  C   UNL     1       2.306   2.955  21.297  0.00  0.00    +0.000 C 
BRANCH  16  17
ATOM     17  S   UNL     1       2.125   1.764  19.946  0.00  0.00    +0.000 S 
BRANCH  17  18
ATOM     18  C   UNL     1       2.651   2.686  18.579  0.00  0.00    +0.000 A 
ATOM     19  N   UNL     1       1.941   3.012  17.530  0.00  0.00    +0.000 NA
ATOM     20  N   UNL     1       2.764   3.720  16.685  0.00  0.00    +0.000 NA
ATOM     21  C   UNL     1       3.977   3.789  17.216  0.00  0.00    +0.000 A 
ATOM     22  N   UNL     1       3.922   3.185  18.459  0.00  0.00    +0.000 N 
ATOM     23  C   UNL     1       4.943   3.102  19.469  0.00  0.00    +0.000 C 
BRANCH  21  24
ATOM     24  C   UNL     1       5.137   4.430  16.586  0.00  0.00    +0.000 A 
ATOM     25  C   UNL     1       5.611   3.963  15.355  0.00  0.00    +0.000 A 
ATOM     26  C   UNL     1       6.700   4.597  14.774  0.00  0.00    +0.000 A 
ATOM     27  N   UNL     1       7.337   5.653  15.324  0.00  0.00    +0.000 NA
ATOM     28  C   UNL     1       6.892   6.068  16.524  0.00  0.00    +0.000 A 
ATOM     29  C   UNL     1       5.827   5.484  17.193  0.00  0.00    +0.000 A 
ENDBRANCH  21  24
ENDBRANCH  17  18
ENDBRANCH  16  17
ENDBRANCH   2  16
TORSDOF 6
ENDMDL
MODEL 3
REMARK VINA RESULT:      -7.8      4.414      7.038
REMARK  Name = 
REMARK  8 active torsions:
REMARK  status: ('A' for Active; 'I' for Inactive)
REMARK    1  A    between atoms: C_1  and  C_2
REMARK    2  A    between atoms: C_5  and  C_6
REMARK    3  A    between atoms: N_8  and  N_9
REMARK    4  A    between atoms: C_10  and  C_12
REMARK    5  A    between atoms: C_12  and  S_13
REMARK    6  A    between atoms: S_13  and  C_14
REMARK    7  A    between atoms: C_17  and  C_18
REMARK    8  A    between atoms: N_24  and  C_25
REMARK                            x       y       z     vdW  Elec       q    Type
REMARK                         _______ _______ _______ _____ _____    ______ ____
ROOT
ATOM      1  N   UNL     1       2.295   5.082  21.302  0.00  0.00    +0.000 N 
ATOM      2  C   UNL     1       1.569   3.962  20.954  0.00  0.00    +0.000 C 
ATOM      3  O   UNL     1       0.447   4.030  20.451  0.00  0.00    +0.000 OA
ATOM      4  H   UNL     1       3.305   5.051  21.466  0.00  0.00    +0.000 HD
ENDROOT
BRANCH   1   7
ATOM      5  C   UNL     1       2.266   7.018  19.906  0.00  0.00    +0.000 C 
ATOM      6  O   UNL     1       3.110   6.523  19.163  0.00  0.00    +0.000 OA
ATOM      7  N   UNL     1       1.755   6.336  20.995  0.00  0.00    +0.000 N 
ATOM      8  H   UNL     1       1.181   6.756  21.721  0.00  0.00    +0.000 HD
BRANCH   5  13
ATOM      9  C   UNL     1       0.223  12.325  18.689  0.00  0.00    +0.000 C 
ATOM     10  C   UNL     1       0.766  10.964  19.014  0.00  0.00    +0.000 A 
ATOM     11  C   UNL     1       1.264  10.130  18.011  0.00  0.00    +0.000 A 
ATOM     12  C   UNL     1       1.753   8.861  18.327  0.00  0.00    +0.000 A 
ATOM     13  C   UNL     1       1.752   8.398  19.653  0.00  0.00    +0.000 A 
ATOM     14  C   UNL     1       1.257   9.240  20.659  0.00  0.00    +0.000 A 
ATOM     15  C   UNL     1       0.769  10.512  20.338  0.00  0.00    +0.000 A 
ENDBRANCH   5  13
ENDBRANCH   1   7
BRANCH   2  16
ATOM     16  C   UNL     1       2.269   2.650  21.241  0.00  0.00    +0.000 C 
BRANCH  16  17
ATOM     17  S   UNL     1       2.205   1.555  19.801  0.00  0.00    +0.000 S 
BRANCH  17  18
ATOM     18  C   UNL     1       2.719   2.605  18.525  0.00  0.00    +0.000 A 
ATOM     19  N   UNL     1       1.993   3.049  17.532  0.00  0.00    +0.000 NA
ATOM     20  N   UNL     1       2.811   3.828  16.746  0.00  0.00    +0.000 NA
ATOM     21  C   UNL     1       4.036   3.822  17.254  0.00  0.00    +0.000 A 
ATOM     22  N   UNL     1       3.997   3.093  18.429  0.00  0.00    +0.000 N 
ATOM     23  C   UNL     1       5.036   2.890  19.402  0.00  0.00    +0.000 C 
BRANCH  21  24
ATOM     24  C   UNL     1       5.195   4.506  16.667  0.00  0.00    +0.000 A 
ATOM     25  C   UNL     1       5.546   5.787  17.104  0.00  0.00    +0.000 A 
ATOM     26  C   UNL     1       6.654   6.405  16.543  0.00  0.00    +0.000 A 
ATOM     27  N   UNL     1       7.430   5.839  15.594  0.00  0.00    +0.000 NA
ATOM     28  C   UNL     1       7.059   4.621  15.158  0.00  0.00    +0.000 A 
ATOM     29  C   UNL     1       5.956   3.935  15.642  0.00  0.00    +0.000 A 
ENDBRANCH  21  24
ENDBRANCH  17  18
ENDBRANCH  16  17
ENDBRANCH   2  16
TORSDOF 6
ENDMDL
MODEL 4
REMARK VINA RESULT:      -7.5      5.119      7.409
REMARK  Name = 
REMARK  8 active torsions:
REMARK  status: ('A' for Active; 'I' for Inactive)
REMARK    1  A    between atoms: C_1  and  C_2
REMARK    2  A    between atoms: C_5  and  C_6
REMARK    3  A    between atoms: N_8  and  N_9
REMARK    4  A    between atoms: C_10  and  C_12
REMARK    5  A    between atoms: C_12  and  S_13
REMARK    6  A    between atoms: S_13  and  C_14
REMARK    7  A    between atoms: C_17  and  C_18
REMARK    8  A    between atoms: N_24  and  C_25
REMARK                            x       y       z     vdW  Elec       q    Type
REMARK                         _______ _______ _______ _____ _____    ______ ____
ROOT
ATOM      1  N   UNL     1       2.479   5.927  20.779  0.00  0.00    +0.000 N 
ATOM      2  C   UNL     1       1.644   4.832  20.862  0.00  0.00    +0.000 C 
ATOM      3  O   UNL     1       0.491   4.844  20.429  0.00  0.00    +0.000 OA
ATOM      4  H   UNL     1       3.494   5.851  20.886  0.00  0.00    +0.000 HD
ENDROOT
BRANCH   1   7
ATOM      5  C   UNL     1       1.475   8.091  20.855  0.00  0.00    +0.000 C 
ATOM      6  O   UNL     1       1.475   8.074  22.084  0.00  0.00    +0.000 OA
ATOM      7  N   UNL     1       2.010   7.060  20.105  0.00  0.00    +0.000 N 
ATOM      8  H   UNL     1       1.892   6.955  19.101  0.00  0.00    +0.000 HD
BRANCH   5  13
ATOM      9  C   UNL     1      -0.853  12.708  18.192  0.00  0.00    +0.000 C 
ATOM     10  C   UNL     1      -0.265  11.504  18.867  0.00  0.00    +0.000 A 
ATOM     11  C   UNL     1      -0.523  11.234  20.212  0.00  0.00    +0.000 A 
ATOM     12  C   UNL     1       0.044  10.117  20.830  0.00  0.00    +0.000 A 
ATOM     13  C   UNL     1       0.884   9.248  20.115  0.00  0.00    +0.000 A 
ATOM     14  C   UNL     1       1.138   9.517  18.764  0.00  0.00    +0.000 A 
ATOM     15  C   UNL     1       0.567  10.637  18.147  0.00  0.00    +0.000 A 
ENDBRANCH   5  13
ENDBRANCH   1   7
BRANCH   2  16
ATOM     16  C   UNL     1       2.266   3.622  21.527  0.00  0.00    +0.000 C 
BRANCH  16  17
ATOM     17  S   UNL     1       2.195   2.178  20.439  0.00  0.00    +0.000 S 
BRANCH  17  18
ATOM     18  C   UNL     1       2.530   2.875  18.891  0.00  0.00    +0.000 A 
ATOM     19  N   UNL     1       1.706   2.979  17.880  0.00  0.00    +0.000 NA
ATOM     20  N   UNL     1       2.399   3.571  16.849  0.00  0.00    +0.000 NA
ATOM     21  C   UNL     1       3.648   3.792  17.235  0.00  0.00    +0.000 A 
ATOM     22  N   UNL     1       3.749   3.409  18.561  0.00  0.00    +0.000 N 
ATOM     23  C   UNL     1       4.860   3.554  19.462  0.00  0.00    +0.000 C 
BRANCH  21  24
ATOM     24  C   UNL     1       4.701   4.372  16.392  0.00  0.00    +0.000 A 
ATOM     25  C   UNL     1       5.534   3.538  15.641  0.00  0.00    +0.000 A 
ATOM     26  C   UNL     1       6.511   4.113  14.841  0.00  0.00    +0.000 A 
ATOM     27  N   UNL     1       6.707   5.444  14.734  0.00  0.00    +0.000 NA
ATOM     28  C   UNL     1       5.921   6.233  15.490  0.00  0.00    +0.000 A 
ATOM     29  C   UNL     1       4.935   5.750  16.336  0.00  0.00    +0.000 A 
ENDBRANCH  21  24
ENDBRANCH  17  18
ENDBRANCH  16  17
ENDBRANCH   2  16
TORSDOF 6
ENDMDL
MODEL 5
REMARK VINA RESULT:      -7.4      4.838      7.471
REMARK  Name = 
REMARK  8 active torsions:
REMARK  status: ('A' for Active; 'I' for Inactive)
REMARK    1  A    between atoms: C_1  and  C_2
REMARK    2  A    between atoms: C_5  and  C_6
REMARK    3  A    between atoms: N_8  and  N_9
REMARK    4  A    between atoms: C_10  and  C_12
REMARK    5  A    between atoms: C_12  and  S_13
REMARK    6  A    between atoms: S_13  and  C_14
REMARK    7  A    between atoms: C_17  and  C_18
REMARK    8  A    between atoms: N_24  and  C_25
REMARK                            x       y       z     vdW  Elec       q    Type
REMARK                         _______ _______ _______ _____ _____    ______ ____
ROOT
ATOM      1  N   UNL     1       2.443   5.997  20.738  0.00  0.00    +0.000 N 
ATOM      2  C   UNL     1       1.612   4.898  20.796  0.00  0.00    +0.000 C 
ATOM      3  O   UNL     1       0.446   4.928  20.398  0.00  0.00    +0.000 OA
ATOM      4  H   UNL     1       3.461   5.918  20.812  0.00  0.00    +0.000 HD
ENDROOT
BRANCH   1   7
ATOM      5  C   UNL     1       1.412   8.140  20.938  0.00  0.00    +0.000 C 
ATOM      6  O   UNL     1       1.424   8.058  22.164  0.00  0.00    +0.000 OA
ATOM      7  N   UNL     1       1.955   7.158  20.130  0.00  0.00    +0.000 N 
ATOM      8  H   UNL     1       1.829   7.106  19.122  0.00  0.00    +0.000 HD
BRANCH   5  13
ATOM      9  C   UNL     1      -0.916  12.658  18.110  0.00  0.00    +0.000 C 
ATOM     10  C   UNL     1      -0.305  11.505  18.853  0.00  0.00    +0.000 A 
ATOM     11  C   UNL     1       0.639  10.677  18.245  0.00  0.00    +0.000 A 
ATOM     12  C   UNL     1       1.188   9.599  18.944  0.00  0.00    +0.000 A 
ATOM     13  C   UNL     1       0.801   9.328  20.267  0.00  0.00    +0.000 A 
ATOM     14  C   UNL     1      -0.143  10.164  20.877  0.00  0.00    +0.000 A 
ATOM     15  C   UNL     1      -0.690  11.244  20.173  0.00  0.00    +0.000 A 
ENDBRANCH   5  13
ENDBRANCH   1   7
BRANCH   2  16
ATOM     16  C   UNL     1       2.254   3.660  21.388  0.00  0.00    +0.000 C 
BRANCH  16  17
ATOM     17  S   UNL     1       2.110   2.254  20.256  0.00  0.00    +0.000 S 
BRANCH  17  18
ATOM     18  C   UNL     1       2.615   2.947  18.753  0.00  0.00    +0.000 A 
ATOM     19  N   UNL     1       1.887   3.112  17.679  0.00  0.00    +0.000 NA
ATOM     20  N   UNL     1       2.698   3.673  16.719  0.00  0.00    +0.000 NA
ATOM     21  C   UNL     1       3.921   3.813  17.211  0.00  0.00    +0.000 A 
ATOM     22  N   UNL     1       3.887   3.410  18.534  0.00  0.00    +0.000 N 
ATOM     23  C   UNL     1       4.926   3.476  19.526  0.00  0.00    +0.000 C 
BRANCH  21  24
ATOM     24  C   UNL     1       5.073   4.337  16.468  0.00  0.00    +0.000 A 
ATOM     25  C   UNL     1       5.783   5.436  16.961  0.00  0.00    +0.000 A 
ATOM     26  C   UNL     1       6.877   5.902  16.246  0.00  0.00    +0.000 A 
ATOM     27  N   UNL     1       7.310   5.351  15.092  0.00  0.00    +0.000 NA
ATOM     28  C   UNL     1       6.596   4.317  14.611  0.00  0.00    +0.000 A 
ATOM     29  C   UNL     1       5.477   3.797  15.242  0.00  0.00    +0.000 A 
ENDBRANCH  21  24
ENDBRANCH  17  18
ENDBRANCH  16  17
ENDBRANCH   2  16
TORSDOF 6
ENDMDL
MODEL 6
REMARK VINA RESULT:      -7.4      4.959      7.858
REMARK  Name = 
REMARK  8 active torsions:
REMARK  status: ('A' for Active; 'I' for Inactive)
REMARK    1  A    between atoms: C_1  and  C_2
REMARK    2  A    between atoms: C_5  and  C_6
REMARK    3  A    between atoms: N_8  and  N_9
REMARK    4  A    between atoms: C_10  and  C_12
REMARK    5  A    between atoms: C_12  and  S_13
REMARK    6  A    between atoms: S_13  and  C_14
REMARK    7  A    between atoms: C_17  and  C_18
REMARK    8  A    between atoms: N_24  and  C_25
REMARK                            x       y       z     vdW  Elec       q    Type
REMARK                         _______ _______ _______ _____ _____    ______ ____
ROOT
ATOM      1  N   UNL     1       1.941   7.814  19.809  0.00  0.00    +0.000 N 
ATOM      2  C   UNL     1       1.305   9.029  19.661  0.00  0.00    +0.000 C 
ATOM      3  O   UNL     1       1.327   9.663  18.605  0.00  0.00    +0.000 OA
ATOM      4  H   UNL     1       1.715   7.167  20.570  0.00  0.00    +0.000 HD
ENDROOT
BRANCH   1   7
ATOM      5  C   UNL     1       3.323   6.116  18.860  0.00  0.00    +0.000 C 
ATOM      6  O   UNL     1       3.397   5.538  19.943  0.00  0.00    +0.000 OA
ATOM      7  N   UNL     1       2.564   7.258  18.687  0.00  0.00    +0.000 N 
ATOM      8  H   UNL     1       2.598   7.853  17.864  0.00  0.00    +0.000 HD
BRANCH   5  13
ATOM      9  C   UNL     1       6.332   4.296  14.227  0.00  0.00    +0.000 C 
ATOM     10  C   UNL     1       5.537   4.758  15.414  0.00  0.00    +0.000 A 
ATOM     11  C   UNL     1       5.351   6.117  15.670  0.00  0.00    +0.000 A 
ATOM     12  C   UNL     1       4.621   6.531  16.788  0.00  0.00    +0.000 A 
ATOM     13  C   UNL     1       4.066   5.593  17.673  0.00  0.00    +0.000 A 
ATOM     14  C   UNL     1       4.250   4.229  17.411  0.00  0.00    +0.000 A 
ATOM     15  C   UNL     1       4.981   3.818  16.289  0.00  0.00    +0.000 A 
ENDBRANCH   5  13
ENDBRANCH   1   7
BRANCH   2  16
ATOM     16  C   UNL     1       0.582   9.511  20.901  0.00  0.00    +0.000 C 
BRANCH  16  17
ATOM     17  S   UNL     1      -0.514  10.898  20.513  0.00  0.00    +0.000 S 
BRANCH  17  18
ATOM     18  C   UNL     1       0.604  12.211  20.362  0.00  0.00    +0.000 A 
ATOM     19  N   UNL     1       1.619  12.474  21.144  0.00  0.00    +0.000 NA
ATOM     20  N   UNL     1       2.214  13.620  20.669  0.00  0.00    +0.000 NA
ATOM     21  C   UNL     1       1.533  14.059  19.619  0.00  0.00    +0.000 A 
ATOM     22  N   UNL     1       0.527  13.145  19.361  0.00  0.00    +0.000 N 
ATOM     23  C   UNL     1      -0.405  13.111  18.266  0.00  0.00    +0.000 C 
BRANCH  21  24
ATOM     24  C   UNL     1       1.840  15.283  18.868  0.00  0.00    +0.000 A 
ATOM     25  C   UNL     1       2.965  15.330  18.038  0.00  0.00    +0.000 A 
ATOM     26  C   UNL     1       3.224  16.494  17.329  0.00  0.00    +0.000 A 
ATOM     27  N   UNL     1       2.446  17.596  17.383  0.00  0.00    +0.000 NA
ATOM     28  C   UNL     1       1.388  17.548  18.212  0.00  0.00    +0.000 A 
ATOM     29  C   UNL     1       1.062  16.439  18.978  0.00  0.00    +0.000 A 
ENDBRANCH  21  24
ENDBRANCH  17  18
ENDBRANCH  16  17
ENDBRANCH   2  16
TORSDOF 6
ENDMDL
MODEL 7
REMARK VINA RESULT:      -7.4      3.071      4.402
REMARK  Name = 
REMARK  8 active torsions:
REMARK  status: ('A' for Active; 'I' for Inactive)
REMARK    1  A    between atoms: C_1  and  C_2
REMARK    2  A    between atoms: C_5  and  C_6
REMARK    3  A    between atoms: N_8  and  N_9
REMARK    4  A    between atoms: C_10  and  C_12
REMARK    5  A    between atoms: C_12  and  S_13
REMARK    6  A    between atoms: S_13  and  C_14
REMARK    7  A    between atoms: C_17  and  C_18
REMARK    8  A    between atoms: N_24  and  C_25
REMARK                            x       y       z     vdW  Elec       q    Type
REMARK                         _______ _______ _______ _____ _____    ______ ____
ROOT
ATOM      1  N   UNL     1       8.986   9.867  18.886  0.00  0.00    +0.000 N 
ATOM      2  C   UNL     1       8.198   9.055  18.097  0.00  0.00    +0.000 C 
ATOM      3  O   UNL     1       7.477   9.499  17.202  0.00  0.00    +0.000 OA
ATOM      4  H   UNL     1       9.769   9.503  19.435  0.00  0.00    +0.000 HD
ENDROOT
BRANCH   1   7
ATOM      5  C   UNL     1      10.183  11.769  18.080  0.00  0.00    +0.000 C 
ATOM      6  O   UNL     1      11.152  11.068  17.796  0.00  0.00    +0.000 OA
ATOM      7  N   UNL     1       9.016  11.235  18.595  0.00  0.00    +0.000 N 
ATOM      8  H   UNL     1       8.256  11.784  18.989  0.00  0.00    +0.000 HD
BRANCH   5  13
ATOM      9  C   UNL     1      10.275  17.554  17.492  0.00  0.00    +0.000 C 
ATOM     10  C   UNL     1      10.244  16.059  17.624  0.00  0.00    +0.000 A 
ATOM     11  C   UNL     1       9.338  15.431  18.478  0.00  0.00    +0.000 A 
ATOM     12  C   UNL     1       9.331  14.039  18.601  0.00  0.00    +0.000 A 
ATOM     13  C   UNL     1      10.234  13.248  17.873  0.00  0.00    +0.000 A 
ATOM     14  C   UNL     1      11.140  13.881  17.011  0.00  0.00    +0.000 A 
ATOM     15  C   UNL     1      11.143  15.276  16.890  0.00  0.00    +0.000 A 
ENDBRANCH   5  13
ENDBRANCH   1   7
BRANCH   2  16
ATOM     16  C   UNL     1       8.297   7.580  18.424  0.00  0.00    +0.000 C 
BRANCH  16  17
ATOM     17  S   UNL     1       7.334   6.592  17.253  0.00  0.00    +0.000 S 
BRANCH  17  18
ATOM     18  C   UNL     1       6.352   5.635  18.309  0.00  0.00    +0.000 A 
ATOM     19  N   UNL     1       6.755   4.932  19.336  0.00  0.00    +0.000 NA
ATOM     20  N   UNL     1       5.646   4.314  19.867  0.00  0.00    +0.000 NA
ATOM     21  C   UNL     1       4.584   4.624  19.135  0.00  0.00    +0.000 A 
ATOM     22  N   UNL     1       4.994   5.517  18.162  0.00  0.00    +0.000 N 
ATOM     23  C   UNL     1       4.200   6.231  17.198  0.00  0.00    +0.000 C 
BRANCH  21  24
ATOM     24  C   UNL     1       3.225   4.118  19.367  0.00  0.00    +0.000 A 
ATOM     25  C   UNL     1       2.486   4.576  20.462  0.00  0.00    +0.000 A 
ATOM     26  C   UNL     1       1.199   4.093  20.649  0.00  0.00    +0.000 A 
ATOM     27  N   UNL     1       0.604   3.202  19.828  0.00  0.00    +0.000 NA
ATOM     28  C   UNL     1       1.340   2.744  18.799  0.00  0.00    +0.000 A 
ATOM     29  C   UNL     1       2.641   3.150  18.544  0.00  0.00    +0.000 A 
ENDBRANCH  21  24
ENDBRANCH  17  18
ENDBRANCH  16  17
ENDBRANCH   2  16
TORSDOF 6
ENDMDL
MODEL 8
REMARK VINA RESULT:      -7.3      2.921      4.384
REMARK  Name = 
REMARK  8 active torsions:
REMARK  status: ('A' for Active; 'I' for Inactive)
REMARK    1  A    between atoms: C_1  and  C_2
REMARK    2  A    between atoms: C_5  and  C_6
REMARK    3  A    between atoms: N_8  and  N_9
REMARK    4  A    between atoms: C_10  and  C_12
REMARK    5  A    between atoms: C_12  and  S_13
REMARK    6  A    between atoms: S_13  and  C_14
REMARK    7  A    between atoms: C_17  and  C_18
REMARK    8  A    between atoms: N_24  and  C_25
REMARK                            x       y       z     vdW  Elec       q    Type
REMARK                         _______ _______ _______ _____ _____    ______ ____
ROOT
ATOM      1  N   UNL     1       9.188   9.994  19.274  0.00  0.00    +0.000 N 
ATOM      2  C   UNL     1       8.400   9.323  18.362  0.00  0.00    +0.000 C 
ATOM      3  O   UNL     1       7.771   9.904  17.476  0.00  0.00    +0.000 OA
ATOM      4  H   UNL     1       9.907   9.521  19.829  0.00  0.00    +0.000 HD
ENDROOT
BRANCH   1   7
ATOM      5  C   UNL     1      10.610  11.902  19.086  0.00  0.00    +0.000 C 
ATOM      6  O   UNL     1      11.610  11.188  19.095  0.00  0.00    +0.000 OA
ATOM      7  N   UNL     1       9.331  11.378  19.125  0.00  0.00    +0.000 N 
ATOM      8  H   UNL     1       8.488  11.925  19.278  0.00  0.00    +0.000 HD
BRANCH   5  13
ATOM      9  C   UNL     1      10.909  17.703  18.782  0.00  0.00    +0.000 C 
ATOM     10  C   UNL     1      10.851  16.205  18.852  0.00  0.00    +0.000 A 
ATOM     11  C   UNL     1       9.972  15.480  18.046  0.00  0.00    +0.000 A 
ATOM     12  C   UNL     1       9.920  14.086  18.133  0.00  0.00    +0.000 A 
ATOM     13  C   UNL     1      10.745  13.390  19.032  0.00  0.00    +0.000 A 
ATOM     14  C   UNL     1      11.630  14.120  19.836  0.00  0.00    +0.000 A 
ATOM     15  C   UNL     1      11.680  15.516  19.745  0.00  0.00    +0.000 A 
ENDBRANCH   5  13
ENDBRANCH   1   7
BRANCH   2  16
ATOM     16  C   UNL     1       8.376   7.820  18.544  0.00  0.00    +0.000 C 
BRANCH  16  17
ATOM     17  S   UNL     1       7.357   7.031  17.273  0.00  0.00    +0.000 S 
BRANCH  17  18
ATOM     18  C   UNL     1       6.466   5.868  18.195  0.00  0.00    +0.000 A 
ATOM     19  N   UNL     1       6.958   4.930  18.964  0.00  0.00    +0.000 NA
ATOM     20  N   UNL     1       5.893   4.225  19.477  0.00  0.00    +0.000 NA
ATOM     21  C   UNL     1       4.765   4.722  18.987  0.00  0.00    +0.000 A 
ATOM     22  N   UNL     1       5.096   5.815  18.206  0.00  0.00    +0.000 N 
ATOM     23  C   UNL     1       4.226   6.755  17.552  0.00  0.00    +0.000 C 
BRANCH  21  24
ATOM     24  C   UNL     1       3.422   4.202  19.271  0.00  0.00    +0.000 A 
ATOM     25  C   UNL     1       2.615   4.833  20.223  0.00  0.00    +0.000 A 
ATOM     26  C   UNL     1       1.344   4.330  20.461  0.00  0.00    +0.000 A 
ATOM     27  N   UNL     1       0.827   3.260  19.820  0.00  0.00    +0.000 NA
ATOM     28  C   UNL     1       1.628   2.642  18.934  0.00  0.00    +0.000 A 
ATOM     29  C   UNL     1       2.920   3.057  18.645  0.00  0.00    +0.000 A 
ENDBRANCH  21  24
ENDBRANCH  17  18
ENDBRANCH  16  17
ENDBRANCH   2  16
TORSDOF 6
ENDMDL
MODEL 9
REMARK VINA RESULT:      -7.3      2.715      3.754
REMARK  Name = 
REMARK  8 active torsions:
REMARK  status: ('A' for Active; 'I' for Inactive)
REMARK    1  A    between atoms: C_1  and  C_2
REMARK    2  A    between atoms: C_5  and  C_6
REMARK    3  A    between atoms: N_8  and  N_9
REMARK    4  A    between atoms: C_10  and  C_12
REMARK    5  A    between atoms: C_12  and  S_13
REMARK    6  A    between atoms: S_13  and  C_14
REMARK    7  A    between atoms: C_17  and  C_18
REMARK    8  A    between atoms: N_24  and  C_25
REMARK                            x       y       z     vdW  Elec       q    Type
REMARK                         _______ _______ _______ _____ _____    ______ ____
ROOT
ATOM      1  N   UNL     1       9.035   9.039  19.130  0.00  0.00    +0.000 N 
ATOM      2  C   UNL     1       8.197   8.490  18.182  0.00  0.00    +0.000 C 
ATOM      3  O   UNL     1       7.747   9.143  17.239  0.00  0.00    +0.000 OA
ATOM      4  H   UNL     1       9.615   8.463  19.747  0.00  0.00    +0.000 HD
ENDROOT
BRANCH   1   7
ATOM      5  C   UNL     1       9.462  11.192  20.067  0.00  0.00    +0.000 C 
ATOM      6  O   UNL     1       9.216  10.776  21.197  0.00  0.00    +0.000 OA
ATOM      7  N   UNL     1       9.441  10.366  18.958  0.00  0.00    +0.000 N 
ATOM      8  H   UNL     1       9.481  10.691  17.996  0.00  0.00    +0.000 HD
BRANCH   5  13
ATOM      9  C   UNL     1      10.531  16.848  19.233  0.00  0.00    +0.000 C 
ATOM     10  C   UNL     1      10.269  15.384  19.432  0.00  0.00    +0.000 A 
ATOM     11  C   UNL     1       9.022  14.829  19.137  0.00  0.00    +0.000 A 
ATOM     12  C   UNL     1       8.789  13.467  19.342  0.00  0.00    +0.000 A 
ATOM     13  C   UNL     1       9.798  12.632  19.849  0.00  0.00    +0.000 A 
ATOM     14  C   UNL     1      11.050  13.190  20.139  0.00  0.00    +0.000 A 
ATOM     15  C   UNL     1      11.281  14.555  19.932  0.00  0.00    +0.000 A 
ENDBRANCH   5  13
ENDBRANCH   1   7
BRANCH   2  16
ATOM     16  C   UNL     1       7.882   7.025  18.399  0.00  0.00    +0.000 C 
BRANCH  16  17
ATOM     17  S   UNL     1       7.136   6.298  16.918  0.00  0.00    +0.000 S 
BRANCH  17  18
ATOM     18  C   UNL     1       5.463   6.224  17.356  0.00  0.00    +0.000 A 
ATOM     19  N   UNL     1       4.567   7.164  17.197  0.00  0.00    +0.000 NA
ATOM     20  N   UNL     1       3.382   6.687  17.708  0.00  0.00    +0.000 NA
ATOM     21  C   UNL     1       3.579   5.471  18.202  0.00  0.00    +0.000 A 
ATOM     22  N   UNL     1       4.892   5.123  17.939  0.00  0.00    +0.000 N 
ATOM     23  C   UNL     1       5.558   3.870  18.171  0.00  0.00    +0.000 C 
BRANCH  21  24
ATOM     24  C   UNL     1       2.557   4.658  18.870  0.00  0.00    +0.000 A 
ATOM     25  C   UNL     1       1.816   3.725  18.137  0.00  0.00    +0.000 A 
ATOM     26  C   UNL     1       0.865   2.958  18.796  0.00  0.00    +0.000 A 
ATOM     27  N   UNL     1       0.611   3.051  20.119  0.00  0.00    +0.000 NA
ATOM     28  C   UNL     1       1.307   3.977  20.804  0.00  0.00    +0.000 A 
ATOM     29  C   UNL     1       2.259   4.804  20.228  0.00  0.00    +0.000 A 
ENDBRANCH  21  24
ENDBRANCH  17  18
ENDBRANCH  16  17
ENDBRANCH   2  16
TORSDOF 6
ENDMDL
