MODEL 1
REMARK VINA RESULT:      -7.8      0.000      0.000
REMARK  Name = 
REMARK  10 active torsions:
REMARK  status: ('A' for Active; 'I' for Inactive)
REMARK    1  A    between atoms: C_1  and  C_2
REMARK    2  A    between atoms: C_3  and  C_4
REMARK    3  A    between atoms: C_7  and  C_8
REMARK    4  A    between atoms: C_9  and  O_10
REMARK    5  A    between atoms: C_13  and  C_14
REMARK    6  A    between atoms: C_13  and  C_15
REMARK    7  A    between atoms: C_15  and  O_17
REMARK    8  A    between atoms: O_17  and  C_18
REMARK    9  A    between atoms: C_18  and  C_19
REMARK   10  A    between atoms: C_23  and  O_24
REMARK                            x       y       z     vdW  Elec       q    Type
REMARK                         _______ _______ _______ _____ _____    ______ ____
ROOT
ATOM      1  C   UNL     1      -4.817  11.922  17.622  0.00  0.00    +0.000 C 
ATOM      2  C   UNL     1      -3.548  11.670  18.400  0.00  0.00    +0.000 A 
ATOM      3  C   UNL     1      -2.506  10.822  17.967  0.00  0.00    +0.000 A 
ATOM      4  C   UNL     1      -2.548  10.057  16.668  0.00  0.00    +0.000 C 
ATOM      5  C   UNL     1      -1.357  10.676  18.783  0.00  0.00    +0.000 A 
ATOM      6  C   UNL     1      -1.258  11.311  20.040  0.00  0.00    +0.000 A 
ATOM      7  C   UNL     1      -2.281  12.190  20.458  0.00  0.00    +0.000 A 
ATOM      8  C   UNL     1      -2.183  12.964  21.749  0.00  0.00    +0.000 C 
ATOM      9  C   UNL     1      -3.408  12.344  19.631  0.00  0.00    +0.000 A 
ATOM     10  C   UNL     1      -0.046  11.076  20.906  0.00  0.00    +0.000 C 
ATOM     11  C   UNL     1       0.792   9.916  20.402  0.00  0.00    +0.000 C 
ATOM     12  C   UNL     1       0.944  10.000  18.885  0.00  0.00    +0.000 C 
ATOM     13  C   UNL     1       1.616  11.301  18.400  0.00  0.00    +0.000 C 
ATOM     14  O   UNL     1      -0.348   9.880  18.271  0.00  0.00    +0.000 OA
ENDROOT
BRANCH   9  15
ATOM     15  O   UNL     1      -4.445  13.174  19.988  0.00  0.00    +0.000 OA
ATOM     16  H   UNL     1      -5.054  13.294  19.245  0.00  0.00    +0.000 HD
ENDBRANCH   9  15
BRANCH  12  17
ATOM     17  C   UNL     1       1.889   8.848  18.469  0.00  0.00    +0.000 C 
ATOM     18  O   UNL     1       2.492   8.825  17.399  0.00  0.00    +0.000 OA
BRANCH  17  19
ATOM     19  O   UNL     1       2.027   7.902  19.438  0.00  0.00    +0.000 OA
BRANCH  19  20
ATOM     20  C   UNL     1       2.932   6.819  19.147  0.00  0.00    +0.000 C 
BRANCH  20  21
ATOM     21  C   UNL     1       2.233   5.482  19.184  0.00  0.00    +0.000 A 
ATOM     22  C   UNL     1       1.945   4.819  20.318  0.00  0.00    +0.000 A 
ATOM     23  C   UNL     1       1.284   3.505  20.236  0.00  0.00    +0.000 A 
ATOM     24  O   UNL     1       1.005   2.846  21.232  0.00  0.00    +0.000 OA
ATOM     25  C   UNL     1       0.965   2.992  18.883  0.00  0.00    +0.000 A 
ATOM     26  C   UNL     1       1.300   3.749  17.836  0.00  0.00    +0.000 A 
ATOM     27  O   UNL     1       1.919   4.977  17.924  0.00  0.00    +0.000 OA
BRANCH  25  28
ATOM     28  O   UNL     1       0.352   1.765  18.760  0.00  0.00    +0.000 OA
ATOM     29  H   UNL     1       1.086   1.116  18.737  0.00  0.00    +0.000 HD
ENDBRANCH  25  28
ENDBRANCH  20  21
ENDBRANCH  19  20
ENDBRANCH  17  19
ENDBRANCH  12  17
TORSDOF 6
ENDMDL
MODEL 2
REMARK VINA RESULT:      -7.8      2.110      2.907
REMARK  Name = 
REMARK  10 active torsions:
REMARK  status: ('A' for Active; 'I' for Inactive)
REMARK    1  A    between atoms: C_1  and  C_2
REMARK    2  A    between atoms: C_3  and  C_4
REMARK    3  A    between atoms: C_7  and  C_8
REMARK    4  A    between atoms: C_9  and  O_10
REMARK    5  A    between atoms: C_13  and  C_14
REMARK    6  A    between atoms: C_13  and  C_15
REMARK    7  A    between atoms: C_15  and  O_17
REMARK    8  A    between atoms: O_17  and  C_18
REMARK    9  A    between atoms: C_18  and  C_19
REMARK   10  A    between atoms: C_23  and  O_24
REMARK                            x       y       z     vdW  Elec       q    Type
REMARK                         _______ _______ _______ _____ _____    ______ ____
ROOT
ATOM      1  C   UNL     1      -4.490  11.642  16.810  0.00  0.00    +0.000 C 
ATOM      2  C   UNL     1      -3.290  11.365  17.682  0.00  0.00    +0.000 A 
ATOM      3  C   UNL     1      -2.220  10.520  17.315  0.00  0.00    +0.000 A 
ATOM      4  C   UNL     1      -2.161   9.785  15.999  0.00  0.00    +0.000 C 
ATOM      5  C   UNL     1      -1.141  10.348  18.217  0.00  0.00    +0.000 A 
ATOM      6  C   UNL     1      -1.140  10.954  19.492  0.00  0.00    +0.000 A 
ATOM      7  C   UNL     1      -2.189  11.831  19.846  0.00  0.00    +0.000 A 
ATOM      8  C   UNL     1      -2.192  12.574  21.158  0.00  0.00    +0.000 C 
ATOM      9  C   UNL     1      -3.246  12.010  18.935  0.00  0.00    +0.000 A 
ATOM     10  C   UNL     1      -0.003  10.692  20.447  0.00  0.00    +0.000 C 
ATOM     11  C   UNL     1       0.867   9.538  19.985  0.00  0.00    +0.000 C 
ATOM     12  C   UNL     1       1.142   9.655  18.488  0.00  0.00    +0.000 C 
ATOM     13  C   UNL     1       1.856  10.962  18.088  0.00  0.00    +0.000 C 
ATOM     14  O   UNL     1      -0.098   9.557  17.769  0.00  0.00    +0.000 OA
ENDROOT
BRANCH   9  15
ATOM     15  O   UNL     1      -4.305  12.839  19.227  0.00  0.00    +0.000 OA
ATOM     16  H   UNL     1      -5.140  12.354  19.164  0.00  0.00    +0.000 HD
ENDBRANCH   9  15
BRANCH  12  17
ATOM     17  C   UNL     1       2.112   8.506  18.122  0.00  0.00    +0.000 C 
ATOM     18  O   UNL     1       2.650   8.404  17.023  0.00  0.00    +0.000 OA
BRANCH  17  19
ATOM     19  O   UNL     1       2.350   7.665  19.166  0.00  0.00    +0.000 OA
BRANCH  19  20
ATOM     20  C   UNL     1       2.285   6.255  18.873  0.00  0.00    +0.000 C 
BRANCH  20  21
ATOM     21  C   UNL     1       3.639   5.699  18.505  0.00  0.00    +0.000 A 
ATOM     22  C   UNL     1       3.953   5.242  17.279  0.00  0.00    +0.000 A 
ATOM     23  C   UNL     1       5.298   4.695  17.037  0.00  0.00    +0.000 A 
ATOM     24  O   UNL     1       5.643   4.253  15.946  0.00  0.00    +0.000 OA
ATOM     25  C   UNL     1       6.241   4.689  18.181  0.00  0.00    +0.000 A 
ATOM     26  C   UNL     1       5.808   5.174  19.346  0.00  0.00    +0.000 A 
ATOM     27  O   UNL     1       4.547   5.684  19.561  0.00  0.00    +0.000 OA
BRANCH  25  28
ATOM     28  O   UNL     1       7.508   4.180  18.000  0.00  0.00    +0.000 OA
ATOM     29  H   UNL     1       7.964   4.833  17.427  0.00  0.00    +0.000 HD
ENDBRANCH  25  28
ENDBRANCH  20  21
ENDBRANCH  19  20
ENDBRANCH  17  19
ENDBRANCH  12  17
TORSDOF 6
ENDMDL
MODEL 3
REMARK VINA RESULT:      -7.5      1.781      2.136
REMARK  Name = 
REMARK  10 active torsions:
REMARK  status: ('A' for Active; 'I' for Inactive)
REMARK    1  A    between atoms: C_1  and  C_2
REMARK    2  A    between atoms: C_3  and  C_4
REMARK    3  A    between atoms: C_7  and  C_8
REMARK    4  A    between atoms: C_9  and  O_10
REMARK    5  A    between atoms: C_13  and  C_14
REMARK    6  A    between atoms: C_13  and  C_15
REMARK    7  A    between atoms: C_15  and  O_17
REMARK    8  A    between atoms: O_17  and  C_18
REMARK    9  A    between atoms: C_18  and  C_19
REMARK   10  A    between atoms: C_23  and  O_24
REMARK                            x       y       z     vdW  Elec       q    Type
REMARK                         _______ _______ _______ _____ _____    ______ ____
ROOT
ATOM      1  C   UNL     1      -4.488  11.539  17.139  0.00  0.00    +0.000 C 
ATOM      2  C   UNL     1      -3.220  11.289  17.917  0.00  0.00    +0.000 A 
ATOM      3  C   UNL     1      -2.187  10.425  17.496  0.00  0.00    +0.000 A 
ATOM      4  C   UNL     1      -2.239   9.638  16.210  0.00  0.00    +0.000 C 
ATOM      5  C   UNL     1      -1.036  10.282  18.311  0.00  0.00    +0.000 A 
ATOM      6  C   UNL     1      -0.928  10.937  19.557  0.00  0.00    +0.000 A 
ATOM      7  C   UNL     1      -1.941  11.833  19.962  0.00  0.00    +0.000 A 
ATOM      8  C   UNL     1      -1.834  12.628  21.240  0.00  0.00    +0.000 C 
ATOM      9  C   UNL     1      -3.070  11.983  19.137  0.00  0.00    +0.000 A 
ATOM     10  C   UNL     1       0.285  10.707  20.424  0.00  0.00    +0.000 C 
ATOM     11  C   UNL     1       1.111   9.531  19.937  0.00  0.00    +0.000 C 
ATOM     12  C   UNL     1       1.259   9.588  18.418  0.00  0.00    +0.000 C 
ATOM     13  C   UNL     1       1.941  10.874  17.909  0.00  0.00    +0.000 C 
ATOM     14  O   UNL     1      -0.036   9.469  17.810  0.00  0.00    +0.000 OA
ENDROOT
BRANCH   9  15
ATOM     15  O   UNL     1      -4.099  12.828  19.482  0.00  0.00    +0.000 OA
ATOM     16  H   UNL     1      -4.487  13.229  18.691  0.00  0.00    +0.000 HD
ENDBRANCH   9  15
BRANCH  12  17
ATOM     17  C   UNL     1       2.193   8.420  18.019  0.00  0.00    +0.000 C 
ATOM     18  O   UNL     1       3.153   8.554  17.265  0.00  0.00    +0.000 OA
BRANCH  17  19
ATOM     19  O   UNL     1       1.873   7.253  18.640  0.00  0.00    +0.000 OA
BRANCH  19  20
ATOM     20  C   UNL     1       1.971   6.058  17.840  0.00  0.00    +0.000 C 
BRANCH  20  21
ATOM     21  C   UNL     1       2.943   5.067  18.433  0.00  0.00    +0.000 A 
ATOM     22  C   UNL     1       4.278   5.225  18.414  0.00  0.00    +0.000 A 
ATOM     23  C   UNL     1       5.135   4.179  18.999  0.00  0.00    +0.000 A 
ATOM     24  O   UNL     1       6.359   4.258  19.003  0.00  0.00    +0.000 OA
ATOM     25  C   UNL     1       4.457   3.001  19.589  0.00  0.00    +0.000 A 
ATOM     26  C   UNL     1       3.124   2.966  19.548  0.00  0.00    +0.000 A 
ATOM     27  O   UNL     1       2.332   3.950  18.998  0.00  0.00    +0.000 OA
BRANCH  25  28
ATOM     28  O   UNL     1       5.221   1.997  20.142  0.00  0.00    +0.000 OA
ATOM     29  H   UNL     1       5.780   2.444  20.812  0.00  0.00    +0.000 HD
ENDBRANCH  25  28
ENDBRANCH  20  21
ENDBRANCH  19  20
ENDBRANCH  17  19
ENDBRANCH  12  17
TORSDOF 6
ENDMDL
MODEL 4
REMARK VINA RESULT:      -7.4      0.752      1.350
REMARK  Name = 
REMARK  10 active torsions:
REMARK  status: ('A' for Active; 'I' for Inactive)
REMARK    1  A    between atoms: C_1  and  C_2
REMARK    2  A    between atoms: C_3  and  C_4
REMARK    3  A    between atoms: C_7  and  C_8
REMARK    4  A    between atoms: C_9  and  O_10
REMARK    5  A    between atoms: C_13  and  C_14
REMARK    6  A    between atoms: C_13  and  C_15
REMARK    7  A    between atoms: C_15  and  O_17
REMARK    8  A    between atoms: O_17  and  C_18
REMARK    9  A    between atoms: C_18  and  C_19
REMARK   10  A    between atoms: C_23  and  O_24
REMARK                            x       y       z     vdW  Elec       q    Type
REMARK                         _______ _______ _______ _____ _____    ______ ____
ROOT
ATOM      1  C   UNL     1      -4.793  11.737  17.652  0.00  0.00    +0.000 C 
ATOM      2  C   UNL     1      -3.509  11.577  18.429  0.00  0.00    +0.000 A 
ATOM      3  C   UNL     1      -2.492  10.655  18.101  0.00  0.00    +0.000 A 
ATOM      4  C   UNL     1      -2.579   9.709  16.929  0.00  0.00    +0.000 C 
ATOM      5  C   UNL     1      -1.324  10.608  18.902  0.00  0.00    +0.000 A 
ATOM      6  C   UNL     1      -1.182  11.418  20.049  0.00  0.00    +0.000 A 
ATOM      7  C   UNL     1      -2.180  12.369  20.357  0.00  0.00    +0.000 A 
ATOM      8  C   UNL     1      -2.037  13.321  21.518  0.00  0.00    +0.000 C 
ATOM      9  C   UNL     1      -3.326  12.422  19.544  0.00  0.00    +0.000 A 
ATOM     10  C   UNL     1       0.048  11.290  20.912  0.00  0.00    +0.000 C 
ATOM     11  C   UNL     1       0.854  10.052  20.564  0.00  0.00    +0.000 C 
ATOM     12  C   UNL     1       0.968   9.910  19.048  0.00  0.00    +0.000 C 
ATOM     13  C   UNL     1       1.647  11.112  18.361  0.00  0.00    +0.000 C 
ATOM     14  O   UNL     1      -0.341   9.726  18.488  0.00  0.00    +0.000 OA
ENDROOT
BRANCH   9  15
ATOM     15  O   UNL     1      -4.341  13.315  19.799  0.00  0.00    +0.000 OA
ATOM     16  H   UNL     1      -5.038  13.234  19.133  0.00  0.00    +0.000 HD
ENDBRANCH   9  15
BRANCH  12  17
ATOM     17  C   UNL     1       1.884   8.691  18.783  0.00  0.00    +0.000 C 
ATOM     18  O   UNL     1       2.712   8.656  17.877  0.00  0.00    +0.000 OA
BRANCH  17  19
ATOM     19  O   UNL     1       1.715   7.697  19.697  0.00  0.00    +0.000 OA
BRANCH  19  20
ATOM     20  C   UNL     1       2.814   6.775  19.844  0.00  0.00    +0.000 C 
BRANCH  20  21
ATOM     21  C   UNL     1       2.434   5.380  19.409  0.00  0.00    +0.000 A 
ATOM     22  C   UNL     1       2.525   4.940  18.141  0.00  0.00    +0.000 A 
ATOM     23  C   UNL     1       2.100   3.566  17.824  0.00  0.00    +0.000 A 
ATOM     24  O   UNL     1       2.148   3.109  16.687  0.00  0.00    +0.000 OA
ATOM     25  C   UNL     1       1.596   2.739  18.945  0.00  0.00    +0.000 A 
ATOM     26  C   UNL     1       1.559   3.292  20.159  0.00  0.00    +0.000 A 
ATOM     27  O   UNL     1       1.959   4.578  20.444  0.00  0.00    +0.000 OA
BRANCH  25  28
ATOM     28  O   UNL     1       1.182   1.449  18.691  0.00  0.00    +0.000 OA
ATOM     29  H   UNL     1       0.466   1.539  18.027  0.00  0.00    +0.000 HD
ENDBRANCH  25  28
ENDBRANCH  20  21
ENDBRANCH  19  20
ENDBRANCH  17  19
ENDBRANCH  12  17
TORSDOF 6
ENDMDL
MODEL 5
REMARK VINA RESULT:      -7.3      1.268      1.274
REMARK  Name = 
REMARK  10 active torsions:
REMARK  status: ('A' for Active; 'I' for Inactive)
REMARK    1  A    between atoms: C_1  and  C_2
REMARK    2  A    between atoms: C_3  and  C_4
REMARK    3  A    between atoms: C_7  and  C_8
REMARK    4  A    between atoms: C_9  and  O_10
REMARK    5  A    between atoms: C_13  and  C_14
REMARK    6  A    between atoms: C_13  and  C_15
REMARK    7  A    between atoms: C_15  and  O_17
REMARK    8  A    between atoms: O_17  and  C_18
REMARK    9  A    between atoms: C_18  and  C_19
REMARK   10  A    between atoms: C_23  and  O_24
REMARK                            x       y       z     vdW  Elec       q    Type
REMARK                         _______ _______ _______ _____ _____    ______ ____
ROOT
ATOM      1  C   UNL     1      -4.625  11.883  17.551  0.00  0.00    +0.000 C 
ATOM      2  C   UNL     1      -3.338  11.583  18.281  0.00  0.00    +0.000 A 
ATOM      3  C   UNL     1      -2.350  10.692  17.813  0.00  0.00    +0.000 A 
ATOM      4  C   UNL     1      -2.474   9.923  16.520  0.00  0.00    +0.000 C 
ATOM      5  C   UNL     1      -1.176  10.502  18.584  0.00  0.00    +0.000 A 
ATOM      6  C   UNL     1      -1.001  11.137  19.832  0.00  0.00    +0.000 A 
ATOM      7  C   UNL     1      -1.970  12.060  20.284  0.00  0.00    +0.000 A 
ATOM      8  C   UNL     1      -1.791  12.835  21.566  0.00  0.00    +0.000 C 
ATOM      9  C   UNL     1      -3.122  12.257  19.501  0.00  0.00    +0.000 A 
ATOM     10  C   UNL     1       0.233  10.858  20.651  0.00  0.00    +0.000 C 
ATOM     11  C   UNL     1       1.002   9.662  20.121  0.00  0.00    +0.000 C 
ATOM     12  C   UNL     1       1.098   9.732  18.599  0.00  0.00    +0.000 C 
ATOM     13  C   UNL     1       1.802  11.003  18.080  0.00  0.00    +0.000 C 
ATOM     14  O   UNL     1      -0.221   9.663  18.037  0.00  0.00    +0.000 OA
ENDROOT
BRANCH   9  15
ATOM     15  O   UNL     1      -4.110  13.130  19.894  0.00  0.00    +0.000 OA
ATOM     16  H   UNL     1      -3.731  13.865  20.397  0.00  0.00    +0.000 HD
ENDBRANCH   9  15
BRANCH  12  17
ATOM     17  C   UNL     1       1.978   8.541  18.153  0.00  0.00    +0.000 C 
ATOM     18  O   UNL     1       2.829   8.625  17.271  0.00  0.00    +0.000 OA
BRANCH  17  19
ATOM     19  O   UNL     1       1.751   7.415  18.883  0.00  0.00    +0.000 OA
BRANCH  19  20
ATOM     20  C   UNL     1       2.895   6.850  19.554  0.00  0.00    +0.000 C 
BRANCH  20  21
ATOM     21  C   UNL     1       2.988   5.359  19.338  0.00  0.00    +0.000 A 
ATOM     22  C   UNL     1       3.960   4.587  19.856  0.00  0.00    +0.000 A 
ATOM     23  C   UNL     1       3.970   3.145  19.558  0.00  0.00    +0.000 A 
ATOM     24  O   UNL     1       4.834   2.389  19.990  0.00  0.00    +0.000 OA
ATOM     25  C   UNL     1       2.883   2.626  18.695  0.00  0.00    +0.000 A 
ATOM     26  C   UNL     1       1.975   3.496  18.247  0.00  0.00    +0.000 A 
ATOM     27  O   UNL     1       1.976   4.843  18.532  0.00  0.00    +0.000 OA
BRANCH  25  28
ATOM     28  O   UNL     1       2.857   1.283  18.386  0.00  0.00    +0.000 OA
ATOM     29  H   UNL     1       2.912   1.247  17.408  0.00  0.00    +0.000 HD
ENDBRANCH  25  28
ENDBRANCH  20  21
ENDBRANCH  19  20
ENDBRANCH  17  19
ENDBRANCH  12  17
TORSDOF 6
ENDMDL
MODEL 6
REMARK VINA RESULT:      -7.2      1.360      1.785
REMARK  Name = 
REMARK  10 active torsions:
REMARK  status: ('A' for Active; 'I' for Inactive)
REMARK    1  A    between atoms: C_1  and  C_2
REMARK    2  A    between atoms: C_3  and  C_4
REMARK    3  A    between atoms: C_7  and  C_8
REMARK    4  A    between atoms: C_9  and  O_10
REMARK    5  A    between atoms: C_13  and  C_14
REMARK    6  A    between atoms: C_13  and  C_15
REMARK    7  A    between atoms: C_15  and  O_17
REMARK    8  A    between atoms: O_17  and  C_18
REMARK    9  A    between atoms: C_18  and  C_19
REMARK   10  A    between atoms: C_23  and  O_24
REMARK                            x       y       z     vdW  Elec       q    Type
REMARK                         _______ _______ _______ _____ _____    ______ ____
ROOT
ATOM      1  C   UNL     1      -4.656  11.711  16.833  0.00  0.00    +0.000 C 
ATOM      2  C   UNL     1      -3.459  11.436  17.711  0.00  0.00    +0.000 A 
ATOM      3  C   UNL     1      -2.389  10.589  17.351  0.00  0.00    +0.000 A 
ATOM      4  C   UNL     1      -2.324   9.851  16.037  0.00  0.00    +0.000 C 
ATOM      5  C   UNL     1      -1.314  10.419  18.258  0.00  0.00    +0.000 A 
ATOM      6  C   UNL     1      -1.318  11.028  19.531  0.00  0.00    +0.000 A 
ATOM      7  C   UNL     1      -2.368  11.906  19.878  0.00  0.00    +0.000 A 
ATOM      8  C   UNL     1      -2.376  12.653  21.189  0.00  0.00    +0.000 C 
ATOM      9  C   UNL     1      -3.420  12.084  18.963  0.00  0.00    +0.000 A 
ATOM     10  C   UNL     1      -0.185  10.768  20.492  0.00  0.00    +0.000 C 
ATOM     11  C   UNL     1       0.686   9.612  20.037  0.00  0.00    +0.000 C 
ATOM     12  C   UNL     1       0.967   9.725  18.540  0.00  0.00    +0.000 C 
ATOM     13  C   UNL     1       1.684  11.031  18.140  0.00  0.00    +0.000 C 
ATOM     14  O   UNL     1      -0.269   9.626  17.816  0.00  0.00    +0.000 OA
ENDROOT
BRANCH   9  15
ATOM     15  O   UNL     1      -4.480  12.914  19.248  0.00  0.00    +0.000 OA
ATOM     16  H   UNL     1      -4.378  13.761  18.790  0.00  0.00    +0.000 HD
ENDBRANCH   9  15
BRANCH  12  17
ATOM     17  C   UNL     1       1.938   8.575  18.182  0.00  0.00    +0.000 C 
ATOM     18  O   UNL     1       2.810   8.673  17.323  0.00  0.00    +0.000 OA
BRANCH  17  19
ATOM     19  O   UNL     1       1.762   7.474  18.962  0.00  0.00    +0.000 OA
BRANCH  19  20
ATOM     20  C   UNL     1       2.960   6.869  19.489  0.00  0.00    +0.000 C 
BRANCH  20  21
ATOM     21  C   UNL     1       3.113   5.440  19.028  0.00  0.00    +0.000 A 
ATOM     22  C   UNL     1       3.891   5.065  17.998  0.00  0.00    +0.000 A 
ATOM     23  C   UNL     1       3.945   3.644  17.616  0.00  0.00    +0.000 A 
ATOM     24  O   UNL     1       4.627   3.239  16.680  0.00  0.00    +0.000 OA
ATOM     25  C   UNL     1       3.127   2.699  18.412  0.00  0.00    +0.000 A 
ATOM     26  C   UNL     1       2.399   3.197  19.413  0.00  0.00    +0.000 A 
ATOM     27  O   UNL     1       2.356   4.529  19.762  0.00  0.00    +0.000 OA
BRANCH  25  28
ATOM     28  O   UNL     1       3.143   1.360  18.085  0.00  0.00    +0.000 OA
ATOM     29  H   UNL     1       2.449   0.954  18.647  0.00  0.00    +0.000 HD
ENDBRANCH  25  28
ENDBRANCH  20  21
ENDBRANCH  19  20
ENDBRANCH  17  19
ENDBRANCH  12  17
TORSDOF 6
ENDMDL
MODEL 7
REMARK VINA RESULT:      -7.1      1.825      2.709
REMARK  Name = 
REMARK  10 active torsions:
REMARK  status: ('A' for Active; 'I' for Inactive)
REMARK    1  A    between atoms: C_1  and  C_2
REMARK    2  A    between atoms: C_3  and  C_4
REMARK    3  A    between atoms: C_7  and  C_8
REMARK    4  A    between atoms: C_9  and  O_10
REMARK    5  A    between atoms: C_13  and  C_14
REMARK    6  A    between atoms: C_13  and  C_15
REMARK    7  A    between atoms: C_15  and  O_17
REMARK    8  A    between atoms: O_17  and  C_18
REMARK    9  A    between atoms: C_18  and  C_19
REMARK   10  A    between atoms: C_23  and  O_24
REMARK                            x       y       z     vdW  Elec       q    Type
REMARK                         _______ _______ _______ _____ _____    ______ ____
ROOT
ATOM      1  C   UNL     1      -2.065  12.246  23.767  0.00  0.00    +0.000 C 
ATOM      2  C   UNL     1      -1.315  12.240  22.457  0.00  0.00    +0.000 A 
ATOM      3  C   UNL     1      -0.666  11.108  21.919  0.00  0.00    +0.000 A 
ATOM      4  C   UNL     1      -0.642   9.764  22.605  0.00  0.00    +0.000 C 
ATOM      5  C   UNL     1      -0.003  11.225  20.672  0.00  0.00    +0.000 A 
ATOM      6  C   UNL     1       0.072  12.457  19.988  0.00  0.00    +0.000 A 
ATOM      7  C   UNL     1      -0.609  13.582  20.504  0.00  0.00    +0.000 A 
ATOM      8  C   UNL     1      -0.637  14.898  19.769  0.00  0.00    +0.000 C 
ATOM      9  C   UNL     1      -1.281  13.450  21.733  0.00  0.00    +0.000 A 
ATOM     10  C   UNL     1       0.843  12.553  18.696  0.00  0.00    +0.000 C 
ATOM     11  C   UNL     1       1.703  11.325  18.459  0.00  0.00    +0.000 C 
ATOM     12  C   UNL     1       0.909  10.061  18.781  0.00  0.00    +0.000 C 
ATOM     13  C   UNL     1      -0.371   9.900  17.937  0.00  0.00    +0.000 C 
ATOM     14  O   UNL     1       0.558  10.062  20.173  0.00  0.00    +0.000 OA
ENDROOT
BRANCH   9  15
ATOM     15  O   UNL     1      -1.950  14.511  22.296  0.00  0.00    +0.000 OA
ATOM     16  H   UNL     1      -2.465  14.218  23.061  0.00  0.00    +0.000 HD
ENDBRANCH   9  15
BRANCH  12  17
ATOM     17  C   UNL     1       1.817   8.862  18.418  0.00  0.00    +0.000 C 
ATOM     18  O   UNL     1       2.398   8.760  17.341  0.00  0.00    +0.000 OA
BRANCH  17  19
ATOM     19  O   UNL     1       1.950   7.972  19.439  0.00  0.00    +0.000 OA
BRANCH  19  20
ATOM     20  C   UNL     1       2.953   6.951  19.267  0.00  0.00    +0.000 C 
BRANCH  20  21
ATOM     21  C   UNL     1       2.345   5.570  19.244  0.00  0.00    +0.000 A 
ATOM     22  C   UNL     1       1.959   4.903  20.347  0.00  0.00    +0.000 A 
ATOM     23  C   UNL     1       1.403   3.546  20.210  0.00  0.00    +0.000 A 
ATOM     24  O   UNL     1       1.043   2.882  21.177  0.00  0.00    +0.000 OA
ATOM     25  C   UNL     1       1.295   2.995  18.839  0.00  0.00    +0.000 A 
ATOM     26  C   UNL     1       1.710   3.759  17.827  0.00  0.00    +0.000 A 
ATOM     27  O   UNL     1       2.229   5.028  17.967  0.00  0.00    +0.000 OA
BRANCH  25  28
ATOM     28  O   UNL     1       0.785   1.727  18.666  0.00  0.00    +0.000 OA
ATOM     29  H   UNL     1       1.130   1.431  17.797  0.00  0.00    +0.000 HD
ENDBRANCH  25  28
ENDBRANCH  20  21
ENDBRANCH  19  20
ENDBRANCH  17  19
ENDBRANCH  12  17
TORSDOF 6
ENDMDL
MODEL 8
REMARK VINA RESULT:      -7.1      2.089      3.058
REMARK  Name = 
REMARK  10 active torsions:
REMARK  status: ('A' for Active; 'I' for Inactive)
REMARK    1  A    between atoms: C_1  and  C_2
REMARK    2  A    between atoms: C_3  and  C_4
REMARK    3  A    between atoms: C_7  and  C_8
REMARK    4  A    between atoms: C_9  and  O_10
REMARK    5  A    between atoms: C_13  and  C_14
REMARK    6  A    between atoms: C_13  and  C_15
REMARK    7  A    between atoms: C_15  and  O_17
REMARK    8  A    between atoms: O_17  and  C_18
REMARK    9  A    between atoms: C_18  and  C_19
REMARK   10  A    between atoms: C_23  and  O_24
REMARK                            x       y       z     vdW  Elec       q    Type
REMARK                         _______ _______ _______ _____ _____    ______ ____
ROOT
ATOM      1  C   UNL     1      -4.677  12.531  18.808  0.00  0.00    +0.000 C 
ATOM      2  C   UNL     1      -3.351  12.071  19.363  0.00  0.00    +0.000 A 
ATOM      3  C   UNL     1      -2.429  11.271  18.655  0.00  0.00    +0.000 A 
ATOM      4  C   UNL     1      -2.671  10.774  17.251  0.00  0.00    +0.000 C 
ATOM      5  C   UNL     1      -1.209  10.913  19.281  0.00  0.00    +0.000 A 
ATOM      6  C   UNL     1      -0.924  11.287  20.611  0.00  0.00    +0.000 A 
ATOM      7  C   UNL     1      -1.827  12.120  21.308  0.00  0.00    +0.000 A 
ATOM      8  C   UNL     1      -1.529  12.624  22.698  0.00  0.00    +0.000 C 
ATOM      9  C   UNL     1      -3.025  12.487  20.671  0.00  0.00    +0.000 A 
ATOM     10  C   UNL     1       0.357  10.830  21.262  0.00  0.00    +0.000 C 
ATOM     11  C   UNL     1       1.047   9.748  20.452  0.00  0.00    +0.000 C 
ATOM     12  C   UNL     1       1.034  10.115  18.969  0.00  0.00    +0.000 C 
ATOM     13  C   UNL     1       1.740  11.449  18.655  0.00  0.00    +0.000 C 
ATOM     14  O   UNL     1      -0.324  10.181  18.508  0.00  0.00    +0.000 OA
ENDROOT
BRANCH   9  15
ATOM     15  O   UNL     1      -3.953  13.283  21.301  0.00  0.00    +0.000 OA
ATOM     16  H   UNL     1      -4.356  12.810  22.043  0.00  0.00    +0.000 HD
ENDBRANCH   9  15
BRANCH  12  17
ATOM     17  C   UNL     1       1.840   9.019  18.233  0.00  0.00    +0.000 C 
ATOM     18  O   UNL     1       2.054   9.038  17.024  0.00  0.00    +0.000 OA
BRANCH  17  19
ATOM     19  O   UNL     1       2.335   8.072  19.076  0.00  0.00    +0.000 OA
BRANCH  19  20
ATOM     20  C   UNL     1       2.315   6.715  18.591  0.00  0.00    +0.000 C 
BRANCH  20  21
ATOM     21  C   UNL     1       3.710   6.182  18.366  0.00  0.00    +0.000 A 
ATOM     22  C   UNL     1       4.564   6.681  17.455  0.00  0.00    +0.000 A 
ATOM     23  C   UNL     1       5.893   6.066  17.301  0.00  0.00    +0.000 A 
ATOM     24  O   UNL     1       6.713   6.467  16.482  0.00  0.00    +0.000 OA
ATOM     25  C   UNL     1       6.212   4.917  18.181  0.00  0.00    +0.000 A 
ATOM     26  C   UNL     1       5.278   4.519  19.048  0.00  0.00    +0.000 A 
ATOM     27  O   UNL     1       4.038   5.103  19.184  0.00  0.00    +0.000 OA
BRANCH  25  28
ATOM     28  O   UNL     1       7.442   4.308  18.066  0.00  0.00    +0.000 OA
ATOM     29  H   UNL     1       7.974   4.668  18.807  0.00  0.00    +0.000 HD
ENDBRANCH  25  28
ENDBRANCH  20  21
ENDBRANCH  19  20
ENDBRANCH  17  19
ENDBRANCH  12  17
TORSDOF 6
ENDMDL
MODEL 9
REMARK VINA RESULT:      -7.1      1.311      1.733
REMARK  Name = 
REMARK  10 active torsions:
REMARK  status: ('A' for Active; 'I' for Inactive)
REMARK    1  A    between atoms: C_1  and  C_2
REMARK    2  A    between atoms: C_3  and  C_4
REMARK    3  A    between atoms: C_7  and  C_8
REMARK    4  A    between atoms: C_9  and  O_10
REMARK    5  A    between atoms: C_13  and  C_14
REMARK    6  A    between atoms: C_13  and  C_15
REMARK    7  A    between atoms: C_15  and  O_17
REMARK    8  A    between atoms: O_17  and  C_18
REMARK    9  A    between atoms: C_18  and  C_19
REMARK   10  A    between atoms: C_23  and  O_24
REMARK                            x       y       z     vdW  Elec       q    Type
REMARK                         _______ _______ _______ _____ _____    ______ ____
ROOT
ATOM      1  C   UNL     1      -4.767  11.575  16.783  0.00  0.00    +0.000 C 
ATOM      2  C   UNL     1      -3.662  11.454  17.804  0.00  0.00    +0.000 A 
ATOM      3  C   UNL     1      -2.581  10.553  17.701  0.00  0.00    +0.000 A 
ATOM      4  C   UNL     1      -2.411   9.593  16.550  0.00  0.00    +0.000 C 
ATOM      5  C   UNL     1      -1.597  10.543  18.720  0.00  0.00    +0.000 A 
ATOM      6  C   UNL     1      -1.705  11.368  19.860  0.00  0.00    +0.000 A 
ATOM      7  C   UNL     1      -2.764  12.298  19.947  0.00  0.00    +0.000 A 
ATOM      8  C   UNL     1      -2.877  13.266  21.098  0.00  0.00    +0.000 C 
ATOM      9  C   UNL     1      -3.725  12.315  18.920  0.00  0.00    +0.000 A 
ATOM     10  C   UNL     1      -0.670  11.279  20.954  0.00  0.00    +0.000 C 
ATOM     11  C   UNL     1       0.215  10.057  20.794  0.00  0.00    +0.000 C 
ATOM     12  C   UNL     1       0.634   9.901  19.333  0.00  0.00    +0.000 C 
ATOM     13  C   UNL     1       1.411  11.112  18.779  0.00  0.00    +0.000 C 
ATOM     14  O   UNL     1      -0.532   9.680  18.526  0.00  0.00    +0.000 OA
ENDROOT
BRANCH   9  15
ATOM     15  O   UNL     1      -4.789  13.186  18.953  0.00  0.00    +0.000 OA
ATOM     16  H   UNL     1      -5.063  13.419  18.055  0.00  0.00    +0.000 HD
ENDBRANCH   9  15
BRANCH  12  17
ATOM     17  C   UNL     1       1.610   8.702  19.276  0.00  0.00    +0.000 C 
ATOM     18  O   UNL     1       2.018   8.118  20.277  0.00  0.00    +0.000 OA
BRANCH  17  19
ATOM     19  O   UNL     1       1.913   8.329  18.003  0.00  0.00    +0.000 OA
BRANCH  19  20
ATOM     20  C   UNL     1       3.191   7.689  17.815  0.00  0.00    +0.000 C 
BRANCH  20  21
ATOM     21  C   UNL     1       3.132   6.217  18.144  0.00  0.00    +0.000 A 
ATOM     22  C   UNL     1       2.121   5.408  17.779  0.00  0.00    +0.000 A 
ATOM     23  C   UNL     1       2.153   3.991  18.178  0.00  0.00    +0.000 A 
ATOM     24  O   UNL     1       1.258   3.205  17.887  0.00  0.00    +0.000 OA
ATOM     25  C   UNL     1       3.323   3.537  18.966  0.00  0.00    +0.000 A 
ATOM     26  C   UNL     1       4.262   4.438  19.261  0.00  0.00    +0.000 A 
ATOM     27  O   UNL     1       4.222   5.762  18.882  0.00  0.00    +0.000 OA
BRANCH  25  28
ATOM     28  O   UNL     1       3.391   2.220  19.365  0.00  0.00    +0.000 OA
ATOM     29  H   UNL     1       3.321   1.700  18.537  0.00  0.00    +0.000 HD
ENDBRANCH  25  28
ENDBRANCH  20  21
ENDBRANCH  19  20
ENDBRANCH  17  19
ENDBRANCH  12  17
TORSDOF 6
ENDMDL
