MODEL 1
REMARK VINA RESULT:      -8.5      0.000      0.000
REMARK  Name = 
REMARK  7 active torsions:
REMARK  status: ('A' for Active; 'I' for Inactive)
REMARK    1  A    between atoms: C_2  and  C_11
REMARK    2  A    between atoms: N_3  and  C_4
REMARK    3  A    between atoms: C_4  and  C_5
REMARK    4  A    between atoms: C_11  and  C_12
REMARK    5  A    between atoms: C_11  and  N_18
REMARK    6  A    between atoms: N_18  and  C_26
REMARK    7  A    between atoms: C_19  and  C_21
REMARK                            x       y       z     vdW  Elec       q    Type
REMARK                         _______ _______ _______ _____ _____    ______ ____
ROOT
ATOM      1  C   UNL     1       5.398   6.492  17.196  0.00  0.00    +0.000 C 
ENDROOT
BRANCH   1   2
ATOM      2  C   UNL     1       5.807   5.718  15.935  0.00  0.00    +0.000 A 
ATOM      3  C   UNL     1       4.884   5.076  15.110  0.00  0.00    +0.000 A 
ATOM      4  C   UNL     1       5.336   4.317  14.029  0.00  0.00    +0.000 A 
ATOM      5  C   UNL     1       6.698   4.206  13.792  0.00  0.00    +0.000 A 
ATOM      6  C   UNL     1       7.556   4.871  14.644  0.00  0.00    +0.000 A 
ATOM      7  N   UNL     1       7.150   5.617  15.701  0.00  0.00    +0.000 NA
ENDBRANCH   1   2
BRANCH   1   9
ATOM      8  O   UNL     1       7.260   6.061  18.754  0.00  0.00    +0.000 OA
ATOM      9  C   UNL     1       6.706   6.855  17.999  0.00  0.00    +0.000 C 
ATOM     10  N   UNL     1       7.268   8.111  17.775  0.00  0.00    +0.000 N 
ATOM     11  H   UNL     1       7.091   8.480  16.846  0.00  0.00    +0.000 HD
BRANCH  10  12
ATOM     12  C   UNL     1       8.592   8.443  18.320  0.00  0.00    +0.000 C 
BRANCH  12  13
ATOM     13  C   UNL     1       8.861   9.908  18.621  0.00  0.00    +0.000 A 
ATOM     14  C   UNL     1       9.476  10.311  19.818  0.00  0.00    +0.000 A 
ATOM     15  C   UNL     1       9.738  11.659  20.090  0.00  0.00    +0.000 A 
ATOM     16  C   UNL     1       9.418  12.635  19.153  0.00  0.00    +0.000 A 
ATOM     17  C   UNL     1       8.862  12.256  17.934  0.00  0.00    +0.000 A 
ATOM     18  C   UNL     1       8.587  10.906  17.670  0.00  0.00    +0.000 A 
ENDBRANCH  12  13
ENDBRANCH  10  12
ENDBRANCH   1   9
BRANCH   1  19
ATOM     19  N   UNL     1       4.235   5.917  17.976  0.00  0.00    +0.000 N 
ATOM     20  C   UNL     1       4.066   4.527  18.164  0.00  0.00    +0.000 C 
ATOM     21  O   UNL     1       4.851   3.701  17.709  0.00  0.00    +0.000 OA
BRANCH  19  22
ATOM     22  C   UNL     1       3.232   6.852  18.361  0.00  0.00    +0.000 A 
ATOM     23  C   UNL     1       2.766   7.773  17.414  0.00  0.00    +0.000 A 
ATOM     24  C   UNL     1       1.835   8.749  17.793  0.00  0.00    +0.000 A 
ATOM     25  C   UNL     1       1.376   8.791  19.103  0.00  0.00    +0.000 A 
ATOM     26  F   UNL     1       0.500   9.740  19.463  0.00  0.00    +0.000 F 
ATOM     27  C   UNL     1       1.815   7.869  20.046  0.00  0.00    +0.000 A 
ATOM     28  C   UNL     1       2.740   6.888  19.673  0.00  0.00    +0.000 A 
ENDBRANCH  19  22
BRANCH  20  29
ATOM     29  C   UNL     1       2.953   4.009  18.982  0.00  0.00    +0.000 A 
ATOM     30  C   UNL     1       3.124   3.568  20.289  0.00  0.00    +0.000 A 
ATOM     31  S   UNL     1       1.646   2.876  20.813  0.00  0.00    +0.000 S 
ATOM     32  N   UNL     1       0.886   3.180  19.358  0.00  0.00    +0.000 NA
ATOM     33  N   UNL     1       1.676   3.770  18.478  0.00  0.00    +0.000 NA
ENDBRANCH  20  29
ENDBRANCH   1  19
TORSDOF 7
ENDMDL
MODEL 2
REMARK VINA RESULT:      -8.2      0.109      1.210
REMARK  Name = 
REMARK  7 active torsions:
REMARK  status: ('A' for Active; 'I' for Inactive)
REMARK    1  A    between atoms: C_2  and  C_11
REMARK    2  A    between atoms: N_3  and  C_4
REMARK    3  A    between atoms: C_4  and  C_5
REMARK    4  A    between atoms: C_11  and  C_12
REMARK    5  A    between atoms: C_11  and  N_18
REMARK    6  A    between atoms: N_18  and  C_26
REMARK    7  A    between atoms: C_19  and  C_21
REMARK                            x       y       z     vdW  Elec       q    Type
REMARK                         _______ _______ _______ _____ _____    ______ ____
ROOT
ATOM      1  C   UNL     1       5.418   6.553  17.183  0.00  0.00    +0.000 C 
ENDROOT
BRANCH   1   2
ATOM      2  C   UNL     1       5.827   5.760  15.935  0.00  0.00    +0.000 A 
ATOM      3  C   UNL     1       4.900   5.155  15.086  0.00  0.00    +0.000 A 
ATOM      4  C   UNL     1       5.347   4.376  14.018  0.00  0.00    +0.000 A 
ATOM      5  C   UNL     1       6.709   4.206  13.817  0.00  0.00    +0.000 A 
ATOM      6  C   UNL     1       7.572   4.837  14.691  0.00  0.00    +0.000 A 
ATOM      7  N   UNL     1       7.170   5.601  15.737  0.00  0.00    +0.000 NA
ENDBRANCH   1   2
BRANCH   1   9
ATOM      8  O   UNL     1       7.263   6.141  18.767  0.00  0.00    +0.000 OA
ATOM      9  C   UNL     1       6.725   6.920  17.986  0.00  0.00    +0.000 C 
ATOM     10  N   UNL     1       7.307   8.161  17.729  0.00  0.00    +0.000 N 
ATOM     11  H   UNL     1       7.141   8.506  16.789  0.00  0.00    +0.000 HD
BRANCH  10  12
ATOM     12  C   UNL     1       8.632   8.490  18.274  0.00  0.00    +0.000 C 
BRANCH  12  13
ATOM     13  C   UNL     1       8.906   9.956  18.569  0.00  0.00    +0.000 A 
ATOM     14  C   UNL     1       8.517  10.969  17.676  0.00  0.00    +0.000 A 
ATOM     15  C   UNL     1       8.754  12.321  17.953  0.00  0.00    +0.000 A 
ATOM     16  C   UNL     1       9.360  12.692  19.148  0.00  0.00    +0.000 A 
ATOM     17  C   UNL     1       9.700  11.711  20.076  0.00  0.00    +0.000 A 
ATOM     18  C   UNL     1       9.474  10.357  19.790  0.00  0.00    +0.000 A 
ENDBRANCH  12  13
ENDBRANCH  10  12
ENDBRANCH   1   9
BRANCH   1  19
ATOM     19  N   UNL     1       4.250   5.994  17.968  0.00  0.00    +0.000 N 
ATOM     20  C   UNL     1       4.050   4.606  18.138  0.00  0.00    +0.000 C 
ATOM     21  O   UNL     1       4.810   3.767  17.661  0.00  0.00    +0.000 OA
BRANCH  19  22
ATOM     22  C   UNL     1       3.274   6.947  18.378  0.00  0.00    +0.000 A 
ATOM     23  C   UNL     1       2.825   6.928  19.705  0.00  0.00    +0.000 A 
ATOM     24  C   UNL     1       1.811   7.806  20.108  0.00  0.00    +0.000 A 
ATOM     25  C   UNL     1       1.263   8.693  19.190  0.00  0.00    +0.000 A 
ATOM     26  F   UNL     1       0.279   9.517  19.580  0.00  0.00    +0.000 F 
ATOM     27  C   UNL     1       1.715   8.736  17.877  0.00  0.00    +0.000 A 
ATOM     28  C   UNL     1       2.732   7.866  17.469  0.00  0.00    +0.000 A 
ENDBRANCH  19  22
BRANCH  20  29
ATOM     29  C   UNL     1       2.933   4.102  18.960  0.00  0.00    +0.000 A 
ATOM     30  C   UNL     1       3.106   3.650  20.264  0.00  0.00    +0.000 A 
ATOM     31  S   UNL     1       1.620   2.981  20.793  0.00  0.00    +0.000 S 
ATOM     32  N   UNL     1       0.855   3.307  19.346  0.00  0.00    +0.000 NA
ATOM     33  N   UNL     1       1.650   3.888  18.463  0.00  0.00    +0.000 NA
ENDBRANCH  20  29
ENDBRANCH   1  19
TORSDOF 7
ENDMDL
MODEL 3
REMARK VINA RESULT:      -8.2      2.170      5.937
REMARK  Name = 
REMARK  7 active torsions:
REMARK  status: ('A' for Active; 'I' for Inactive)
REMARK    1  A    between atoms: C_2  and  C_11
REMARK    2  A    between atoms: N_3  and  C_4
REMARK    3  A    between atoms: C_4  and  C_5
REMARK    4  A    between atoms: C_11  and  C_12
REMARK    5  A    between atoms: C_11  and  N_18
REMARK    6  A    between atoms: N_18  and  C_26
REMARK    7  A    between atoms: C_19  and  C_21
REMARK                            x       y       z     vdW  Elec       q    Type
REMARK                         _______ _______ _______ _____ _____    ______ ____
ROOT
ATOM      1  C   UNL     1       5.817   4.533  17.055  0.00  0.00    +0.000 C 
ENDROOT
BRANCH   1   2
ATOM      2  C   UNL     1       6.737   5.657  17.551  0.00  0.00    +0.000 A 
ATOM      3  C   UNL     1       7.456   5.574  18.744  0.00  0.00    +0.000 A 
ATOM      4  C   UNL     1       8.203   6.669  19.177  0.00  0.00    +0.000 A 
ATOM      5  C   UNL     1       8.218   7.832  18.419  0.00  0.00    +0.000 A 
ATOM      6  C   UNL     1       7.489   7.844  17.247  0.00  0.00    +0.000 A 
ATOM      7  N   UNL     1       6.754   6.797  16.798  0.00  0.00    +0.000 NA
ENDBRANCH   1   2
BRANCH   1   9
ATOM      8  O   UNL     1       4.712   4.777  14.863  0.00  0.00    +0.000 OA
ATOM      9  C   UNL     1       5.759   4.601  15.480  0.00  0.00    +0.000 C 
ATOM     10  N   UNL     1       6.969   4.522  14.790  0.00  0.00    +0.000 N 
ATOM     11  H   UNL     1       7.764   4.876  15.313  0.00  0.00    +0.000 HD
BRANCH  10  12
ATOM     12  C   UNL     1       7.022   4.787  13.346  0.00  0.00    +0.000 C 
BRANCH  12  13
ATOM     13  C   UNL     1       6.655   3.635  12.424  0.00  0.00    +0.000 A 
ATOM     14  C   UNL     1       7.638   2.801  11.865  0.00  0.00    +0.000 A 
ATOM     15  C   UNL     1       7.301   1.730  11.029  0.00  0.00    +0.000 A 
ATOM     16  C   UNL     1       5.967   1.449  10.758  0.00  0.00    +0.000 A 
ATOM     17  C   UNL     1       4.972   2.225  11.348  0.00  0.00    +0.000 A 
ATOM     18  C   UNL     1       5.312   3.306  12.174  0.00  0.00    +0.000 A 
ENDBRANCH  12  13
ENDBRANCH  10  12
ENDBRANCH   1   9
BRANCH   1  19
ATOM     19  N   UNL     1       4.507   4.374  17.796  0.00  0.00    +0.000 N 
ATOM     20  C   UNL     1       3.883   3.118  17.966  0.00  0.00    +0.000 C 
ATOM     21  O   UNL     1       4.366   2.078  17.526  0.00  0.00    +0.000 OA
BRANCH  19  22
ATOM     22  C   UNL     1       3.857   5.588  18.160  0.00  0.00    +0.000 A 
ATOM     23  C   UNL     1       3.469   5.775  19.493  0.00  0.00    +0.000 A 
ATOM     24  C   UNL     1       2.761   6.927  19.856  0.00  0.00    +0.000 A 
ATOM     25  C   UNL     1       2.455   7.880  18.892  0.00  0.00    +0.000 A 
ATOM     26  F   UNL     1       1.760   8.971  19.244  0.00  0.00    +0.000 F 
ATOM     27  C   UNL     1       2.852   7.716  17.571  0.00  0.00    +0.000 A 
ATOM     28  C   UNL     1       3.565   6.570  17.202  0.00  0.00    +0.000 A 
ENDBRANCH  19  22
BRANCH  20  29
ATOM     29  C   UNL     1       2.637   2.997  18.746  0.00  0.00    +0.000 A 
ATOM     30  C   UNL     1       2.629   2.757  20.116  0.00  0.00    +0.000 A 
ATOM     31  S   UNL     1       1.006   2.497  20.600  0.00  0.00    +0.000 S 
ATOM     32  N   UNL     1       0.418   2.707  19.051  0.00  0.00    +0.000 NA
ATOM     33  N   UNL     1       1.370   2.955  18.168  0.00  0.00    +0.000 NA
ENDBRANCH  20  29
ENDBRANCH   1  19
TORSDOF 7
ENDMDL
MODEL 4
REMARK VINA RESULT:      -7.8      2.290      6.033
REMARK  Name = 
REMARK  7 active torsions:
REMARK  status: ('A' for Active; 'I' for Inactive)
REMARK    1  A    between atoms: C_2  and  C_11
REMARK    2  A    between atoms: N_3  and  C_4
REMARK    3  A    between atoms: C_4  and  C_5
REMARK    4  A    between atoms: C_11  and  C_12
REMARK    5  A    between atoms: C_11  and  N_18
REMARK    6  A    between atoms: N_18  and  C_26
REMARK    7  A    between atoms: C_19  and  C_21
REMARK                            x       y       z     vdW  Elec       q    Type
REMARK                         _______ _______ _______ _____ _____    ______ ____
ROOT
ATOM      1  C   UNL     1       5.829   4.573  17.158  0.00  0.00    +0.000 C 
ENDROOT
BRANCH   1   2
ATOM      2  C   UNL     1       6.694   5.699  17.741  0.00  0.00    +0.000 A 
ATOM      3  C   UNL     1       6.844   6.937  17.115  0.00  0.00    +0.000 A 
ATOM      4  C   UNL     1       7.715   7.883  17.656  0.00  0.00    +0.000 A 
ATOM      5  C   UNL     1       8.427   7.579  18.808  0.00  0.00    +0.000 A 
ATOM      6  C   UNL     1       8.227   6.338  19.379  0.00  0.00    +0.000 A 
ATOM      7  N   UNL     1       7.387   5.398  18.879  0.00  0.00    +0.000 NA
ENDBRANCH   1   2
BRANCH   1   9
ATOM      8  O   UNL     1       4.877   5.385  15.033  0.00  0.00    +0.000 OA
ATOM      9  C   UNL     1       5.770   4.755  15.593  0.00  0.00    +0.000 C 
ATOM     10  N   UNL     1       6.820   4.223  14.845  0.00  0.00    +0.000 N 
ATOM     11  H   UNL     1       7.702   4.183  15.346  0.00  0.00    +0.000 HD
BRANCH  10  12
ATOM     12  C   UNL     1       6.946   4.530  13.414  0.00  0.00    +0.000 C 
BRANCH  12  13
ATOM     13  C   UNL     1       6.311   3.547  12.444  0.00  0.00    +0.000 A 
ATOM     14  C   UNL     1       7.040   2.473  11.905  0.00  0.00    +0.000 A 
ATOM     15  C   UNL     1       6.452   1.557  11.025  0.00  0.00    +0.000 A 
ATOM     16  C   UNL     1       5.109   1.677  10.687  0.00  0.00    +0.000 A 
ATOM     17  C   UNL     1       4.350   2.697  11.254  0.00  0.00    +0.000 A 
ATOM     18  C   UNL     1       4.944   3.622  12.125  0.00  0.00    +0.000 A 
ENDBRANCH  12  13
ENDBRANCH  10  12
ENDBRANCH   1   9
BRANCH   1  19
ATOM     19  N   UNL     1       4.528   4.297  17.880  0.00  0.00    +0.000 N 
ATOM     20  C   UNL     1       3.964   3.004  17.952  0.00  0.00    +0.000 C 
ATOM     21  O   UNL     1       4.495   2.024  17.437  0.00  0.00    +0.000 OA
BRANCH  19  22
ATOM     22  C   UNL     1       3.820   5.448  18.331  0.00  0.00    +0.000 A 
ATOM     23  C   UNL     1       3.569   5.594  19.702  0.00  0.00    +0.000 A 
ATOM     24  C   UNL     1       2.810   6.679  20.157  0.00  0.00    +0.000 A 
ATOM     25  C   UNL     1       2.318   7.606  19.248  0.00  0.00    +0.000 A 
ATOM     26  F   UNL     1       1.576   8.631  19.690  0.00  0.00    +0.000 F 
ATOM     27  C   UNL     1       2.579   7.485  17.889  0.00  0.00    +0.000 A 
ATOM     28  C   UNL     1       3.342   6.406  17.427  0.00  0.00    +0.000 A 
ENDBRANCH  19  22
BRANCH  20  29
ATOM     29  C   UNL     1       2.724   2.766  18.716  0.00  0.00    +0.000 A 
ATOM     30  C   UNL     1       1.460   3.024  18.195  0.00  0.00    +0.000 A 
ATOM     31  S   UNL     1       0.314   2.798  19.448  0.00  0.00    +0.000 S 
ATOM     32  N   UNL     1       1.485   2.388  20.566  0.00  0.00    +0.000 NA
ATOM     33  N   UNL     1       2.708   2.414  20.063  0.00  0.00    +0.000 NA
ENDBRANCH  20  29
ENDBRANCH   1  19
TORSDOF 7
ENDMDL
MODEL 5
REMARK VINA RESULT:      -7.6      5.846      9.052
REMARK  Name = 
REMARK  7 active torsions:
REMARK  status: ('A' for Active; 'I' for Inactive)
REMARK    1  A    between atoms: C_2  and  C_11
REMARK    2  A    between atoms: N_3  and  C_4
REMARK    3  A    between atoms: C_4  and  C_5
REMARK    4  A    between atoms: C_11  and  C_12
REMARK    5  A    between atoms: C_11  and  N_18
REMARK    6  A    between atoms: N_18  and  C_26
REMARK    7  A    between atoms: C_19  and  C_21
REMARK                            x       y       z     vdW  Elec       q    Type
REMARK                         _______ _______ _______ _____ _____    ______ ____
ROOT
ATOM      1  C   UNL     1       0.338  11.050  19.012  0.00  0.00    +0.000 C 
ENDROOT
BRANCH   1   2
ATOM      2  C   UNL     1      -0.978  10.824  18.255  0.00  0.00    +0.000 A 
ATOM      3  C   UNL     1      -1.499  11.751  17.352  0.00  0.00    +0.000 A 
ATOM      4  C   UNL     1      -2.744  11.520  16.766  0.00  0.00    +0.000 A 
ATOM      5  C   UNL     1      -3.453  10.374  17.094  0.00  0.00    +0.000 A 
ATOM      6  C   UNL     1      -2.877   9.496  17.990  0.00  0.00    +0.000 A 
ATOM      7  N   UNL     1      -1.670   9.690  18.576  0.00  0.00    +0.000 NA
ENDBRANCH   1   2
BRANCH   1   9
ATOM      8  O   UNL     1       0.447   9.248  20.693  0.00  0.00    +0.000 OA
ATOM      9  C   UNL     1       0.814   9.665  19.598  0.00  0.00    +0.000 C 
ATOM     10  N   UNL     1       1.632   8.875  18.792  0.00  0.00    +0.000 N 
ATOM     11  H   UNL     1       1.485   9.013  17.797  0.00  0.00    +0.000 HD
BRANCH  10  12
ATOM     12  C   UNL     1       1.944   7.491  19.175  0.00  0.00    +0.000 C 
BRANCH  12  13
ATOM     13  C   UNL     1       2.928   6.741  18.292  0.00  0.00    +0.000 A 
ATOM     14  C   UNL     1       2.893   5.341  18.178  0.00  0.00    +0.000 A 
ATOM     15  C   UNL     1       3.787   4.650  17.353  0.00  0.00    +0.000 A 
ATOM     16  C   UNL     1       4.720   5.349  16.595  0.00  0.00    +0.000 A 
ATOM     17  C   UNL     1       4.736   6.740  16.644  0.00  0.00    +0.000 A 
ATOM     18  C   UNL     1       3.848   7.430  17.483  0.00  0.00    +0.000 A 
ENDBRANCH  12  13
ENDBRANCH  10  12
ENDBRANCH   1   9
BRANCH   1  19
ATOM     19  N   UNL     1       0.373  12.248  19.935  0.00  0.00    +0.000 N 
ATOM     20  C   UNL     1       1.458  13.152  19.958  0.00  0.00    +0.000 C 
ATOM     21  O   UNL     1       2.439  13.023  19.230  0.00  0.00    +0.000 OA
BRANCH  19  22
ATOM     22  C   UNL     1      -0.674  12.312  20.899  0.00  0.00    +0.000 A 
ATOM     23  C   UNL     1      -0.479  11.714  22.151  0.00  0.00    +0.000 A 
ATOM     24  C   UNL     1      -1.523  11.700  23.084  0.00  0.00    +0.000 A 
ATOM     25  C   UNL     1      -2.742  12.284  22.764  0.00  0.00    +0.000 A 
ATOM     26  F   UNL     1      -3.742  12.249  23.655  0.00  0.00    +0.000 F 
ATOM     27  C   UNL     1      -2.940  12.899  21.533  0.00  0.00    +0.000 A 
ATOM     28  C   UNL     1      -1.900  12.922  20.598  0.00  0.00    +0.000 A 
ENDBRANCH  19  22
BRANCH  20  29
ATOM     29  C   UNL     1       1.428  14.342  20.829  0.00  0.00    +0.000 A 
ATOM     30  C   UNL     1       0.917  15.566  20.411  0.00  0.00    +0.000 A 
ATOM     31  S   UNL     1       1.238  16.721  21.636  0.00  0.00    +0.000 S 
ATOM     32  N   UNL     1       1.998  15.602  22.615  0.00  0.00    +0.000 NA
ATOM     33  N   UNL     1       2.041  14.394  22.079  0.00  0.00    +0.000 NA
ENDBRANCH  20  29
ENDBRANCH   1  19
TORSDOF 7
ENDMDL
MODEL 6
REMARK VINA RESULT:      -7.6      0.842      1.123
REMARK  Name = 
REMARK  7 active torsions:
REMARK  status: ('A' for Active; 'I' for Inactive)
REMARK    1  A    between atoms: C_2  and  C_11
REMARK    2  A    between atoms: N_3  and  C_4
REMARK    3  A    between atoms: C_4  and  C_5
REMARK    4  A    between atoms: C_11  and  C_12
REMARK    5  A    between atoms: C_11  and  N_18
REMARK    6  A    between atoms: N_18  and  C_26
REMARK    7  A    between atoms: C_19  and  C_21
REMARK                            x       y       z     vdW  Elec       q    Type
REMARK                         _______ _______ _______ _____ _____    ______ ____
ROOT
ATOM      1  C   UNL     1       5.401   6.383  17.280  0.00  0.00    +0.000 C 
ENDROOT
BRANCH   1   2
ATOM      2  C   UNL     1       5.804   5.545  16.059  0.00  0.00    +0.000 A 
ATOM      3  C   UNL     1       7.133   5.262  15.742  0.00  0.00    +0.000 A 
ATOM      4  C   UNL     1       7.430   4.569  14.569  0.00  0.00    +0.000 A 
ATOM      5  C   UNL     1       6.401   4.174  13.726  0.00  0.00    +0.000 A 
ATOM      6  C   UNL     1       5.109   4.481  14.103  0.00  0.00    +0.000 A 
ATOM      7  N   UNL     1       4.787   5.152  15.236  0.00  0.00    +0.000 NA
ENDBRANCH   1   2
BRANCH   1   9
ATOM      8  O   UNL     1       7.288   6.052  18.833  0.00  0.00    +0.000 OA
ATOM      9  C   UNL     1       6.714   6.800  18.048  0.00  0.00    +0.000 C 
ATOM     10  N   UNL     1       7.257   8.051  17.756  0.00  0.00    +0.000 N 
ATOM     11  H   UNL     1       7.063   8.373  16.813  0.00  0.00    +0.000 HD
BRANCH  10  12
ATOM     12  C   UNL     1       8.583   8.426  18.267  0.00  0.00    +0.000 C 
BRANCH  12  13
ATOM     13  C   UNL     1       8.814   9.901  18.554  0.00  0.00    +0.000 A 
ATOM     14  C   UNL     1       9.474  10.327  19.718  0.00  0.00    +0.000 A 
ATOM     15  C   UNL     1       9.702  11.684  19.977  0.00  0.00    +0.000 A 
ATOM     16  C   UNL     1       9.300  12.646  19.058  0.00  0.00    +0.000 A 
ATOM     17  C   UNL     1       8.696  12.246  17.868  0.00  0.00    +0.000 A 
ATOM     18  C   UNL     1       8.457  10.887  17.618  0.00  0.00    +0.000 A 
ENDBRANCH  12  13
ENDBRANCH  10  12
ENDBRANCH   1   9
BRANCH   1  19
ATOM     19  N   UNL     1       4.252   5.841  18.103  0.00  0.00    +0.000 N 
ATOM     20  C   UNL     1       4.094   4.461  18.362  0.00  0.00    +0.000 C 
ATOM     21  O   UNL     1       4.878   3.617  17.938  0.00  0.00    +0.000 OA
BRANCH  19  22
ATOM     22  C   UNL     1       3.248   6.788  18.454  0.00  0.00    +0.000 A 
ATOM     23  C   UNL     1       2.796   7.689  17.481  0.00  0.00    +0.000 A 
ATOM     24  C   UNL     1       1.866   8.676  17.826  0.00  0.00    +0.000 A 
ATOM     25  C   UNL     1       1.392   8.751  19.130  0.00  0.00    +0.000 A 
ATOM     26  F   UNL     1       0.516   9.712  19.457  0.00  0.00    +0.000 F 
ATOM     27  C   UNL     1       1.816   7.850  20.099  0.00  0.00    +0.000 A 
ATOM     28  C   UNL     1       2.742   6.858  19.760  0.00  0.00    +0.000 A 
ENDBRANCH  19  22
BRANCH  20  29
ATOM     29  C   UNL     1       2.994   3.978  19.219  0.00  0.00    +0.000 A 
ATOM     30  C   UNL     1       1.717   3.724  18.730  0.00  0.00    +0.000 A 
ATOM     31  S   UNL     1       0.700   3.369  20.062  0.00  0.00    +0.000 S 
ATOM     32  N   UNL     1       1.936   3.556  21.170  0.00  0.00    +0.000 NA
ATOM     33  N   UNL     1       3.087   3.883  20.606  0.00  0.00    +0.000 NA
ENDBRANCH  20  29
ENDBRANCH   1  19
TORSDOF 7
ENDMDL
MODEL 7
REMARK VINA RESULT:      -7.5      8.296     11.181
REMARK  Name = 
REMARK  7 active torsions:
REMARK  status: ('A' for Active; 'I' for Inactive)
REMARK    1  A    between atoms: C_2  and  C_11
REMARK    2  A    between atoms: N_3  and  C_4
REMARK    3  A    between atoms: C_4  and  C_5
REMARK    4  A    between atoms: C_11  and  C_12
REMARK    5  A    between atoms: C_11  and  N_18
REMARK    6  A    between atoms: N_18  and  C_26
REMARK    7  A    between atoms: C_19  and  C_21
REMARK                            x       y       z     vdW  Elec       q    Type
REMARK                         _______ _______ _______ _____ _____    ______ ____
ROOT
ATOM      1  C   UNL     1      -2.881  13.900  21.946  0.00  0.00    +0.000 C 
ENDROOT
BRANCH   1   2
ATOM      2  C   UNL     1      -4.201  13.584  21.229  0.00  0.00    +0.000 A 
ATOM      3  C   UNL     1      -4.300  12.634  20.214  0.00  0.00    +0.000 A 
ATOM      4  C   UNL     1      -5.513  12.461  19.546  0.00  0.00    +0.000 A 
ATOM      5  C   UNL     1      -6.605  13.242  19.896  0.00  0.00    +0.000 A 
ATOM      6  C   UNL     1      -6.439  14.159  20.914  0.00  0.00    +0.000 A 
ATOM      7  N   UNL     1      -5.275  14.351  21.583  0.00  0.00    +0.000 NA
ENDBRANCH   1   2
BRANCH   1   9
ATOM      8  O   UNL     1      -2.034  16.111  22.636  0.00  0.00    +0.000 OA
ATOM      9  C   UNL     1      -2.577  15.437  21.765  0.00  0.00    +0.000 C 
ATOM     10  N   UNL     1      -2.888  16.011  20.533  0.00  0.00    +0.000 N 
ATOM     11  H   UNL     1      -2.845  15.362  19.755  0.00  0.00    +0.000 HD
BRANCH  10  12
ATOM     12  C   UNL     1      -2.445  17.376  20.214  0.00  0.00    +0.000 C 
BRANCH  12  13
ATOM     13  C   UNL     1      -1.077  17.518  19.566  0.00  0.00    +0.000 A 
ATOM     14  C   UNL     1       0.085  17.696  20.335  0.00  0.00    +0.000 A 
ATOM     15  C   UNL     1       1.347  17.810  19.740  0.00  0.00    +0.000 A 
ATOM     16  C   UNL     1       1.479  17.718  18.360  0.00  0.00    +0.000 A 
ATOM     17  C   UNL     1       0.350  17.481  17.579  0.00  0.00    +0.000 A 
ATOM     18  C   UNL     1      -0.916  17.381  18.176  0.00  0.00    +0.000 A 
ENDBRANCH  12  13
ENDBRANCH  10  12
ENDBRANCH   1   9
BRANCH   1  19
ATOM     19  N   UNL     1      -1.746  12.930  21.700  0.00  0.00    +0.000 N 
ATOM     20  C   UNL     1      -1.604  11.732  22.435  0.00  0.00    +0.000 C 
ATOM     21  O   UNL     1      -2.393  11.403  23.317  0.00  0.00    +0.000 OA
BRANCH  19  22
ATOM     22  C   UNL     1      -0.736  13.380  20.803  0.00  0.00    +0.000 A 
ATOM     23  C   UNL     1      -0.974  13.309  19.424  0.00  0.00    +0.000 A 
ATOM     24  C   UNL     1       0.035  13.676  18.525  0.00  0.00    +0.000 A 
ATOM     25  C   UNL     1       1.262  14.115  19.008  0.00  0.00    +0.000 A 
ATOM     26  F   UNL     1       2.229  14.446  18.140  0.00  0.00    +0.000 F 
ATOM     27  C   UNL     1       1.502  14.210  20.373  0.00  0.00    +0.000 A 
ATOM     28  C   UNL     1       0.497  13.850  21.277  0.00  0.00    +0.000 A 
ENDBRANCH  19  22
BRANCH  20  29
ATOM     29  C   UNL     1      -0.519  10.782  22.125  0.00  0.00    +0.000 A 
ATOM     30  C   UNL     1      -0.416  10.134  20.899  0.00  0.00    +0.000 A 
ATOM     31  S   UNL     1       0.854   8.989  21.009  0.00  0.00    +0.000 S 
ATOM     32  N   UNL     1       1.194   9.387  22.595  0.00  0.00    +0.000 NA
ATOM     33  N   UNL     1       0.402  10.334  23.069  0.00  0.00    +0.000 NA
ENDBRANCH  20  29
ENDBRANCH   1  19
TORSDOF 7
ENDMDL
MODEL 8
REMARK VINA RESULT:      -7.5      8.540     10.944
REMARK  Name = 
REMARK  7 active torsions:
REMARK  status: ('A' for Active; 'I' for Inactive)
REMARK    1  A    between atoms: C_2  and  C_11
REMARK    2  A    between atoms: N_3  and  C_4
REMARK    3  A    between atoms: C_4  and  C_5
REMARK    4  A    between atoms: C_11  and  C_12
REMARK    5  A    between atoms: C_11  and  N_18
REMARK    6  A    between atoms: N_18  and  C_26
REMARK    7  A    between atoms: C_19  and  C_21
REMARK                            x       y       z     vdW  Elec       q    Type
REMARK                         _______ _______ _______ _____ _____    ______ ____
ROOT
ATOM      1  C   UNL     1      -1.605  12.174  21.161  0.00  0.00    +0.000 C 
ENDROOT
BRANCH   1   2
ATOM      2  C   UNL     1      -0.767  10.967  21.604  0.00  0.00    +0.000 A 
ATOM      3  C   UNL     1      -0.683  10.552  22.933  0.00  0.00    +0.000 A 
ATOM      4  C   UNL     1       0.167   9.500  23.275  0.00  0.00    +0.000 A 
ATOM      5  C   UNL     1       0.924   8.882  22.290  0.00  0.00    +0.000 A 
ATOM      6  C   UNL     1       0.789   9.339  20.994  0.00  0.00    +0.000 A 
ATOM      7  N   UNL     1      -0.028  10.358  20.629  0.00  0.00    +0.000 NA
ENDBRANCH   1   2
BRANCH   1   9
ATOM      8  O   UNL     1      -1.671  12.877  18.798  0.00  0.00    +0.000 OA
ATOM      9  C   UNL     1      -0.999  12.729  19.814  0.00  0.00    +0.000 C 
ATOM     10  N   UNL     1       0.340  13.118  19.827  0.00  0.00    +0.000 N 
ATOM     11  H   UNL     1       0.666  13.439  20.732  0.00  0.00    +0.000 HD
BRANCH  10  12
ATOM     12  C   UNL     1       0.918  13.836  18.682  0.00  0.00    +0.000 C 
BRANCH  12  13
ATOM     13  C   UNL     1       0.876  15.354  18.734  0.00  0.00    +0.000 A 
ATOM     14  C   UNL     1       2.033  16.113  18.974  0.00  0.00    +0.000 A 
ATOM     15  C   UNL     1       1.999  17.512  19.007  0.00  0.00    +0.000 A 
ATOM     16  C   UNL     1       0.808  18.187  18.768  0.00  0.00    +0.000 A 
ATOM     17  C   UNL     1      -0.342  17.459  18.467  0.00  0.00    +0.000 A 
ATOM     18  C   UNL     1      -0.308  16.057  18.449  0.00  0.00    +0.000 A 
ENDBRANCH  12  13
ENDBRANCH  10  12
ENDBRANCH   1   9
BRANCH   1  19
ATOM     19  N   UNL     1      -1.940  13.179  22.242  0.00  0.00    +0.000 N 
ATOM     20  C   UNL     1      -0.962  14.020  22.820  0.00  0.00    +0.000 C 
ATOM     21  O   UNL     1       0.217  13.990  22.479  0.00  0.00    +0.000 OA
BRANCH  19  22
ATOM     22  C   UNL     1      -3.263  13.104  22.762  0.00  0.00    +0.000 A 
ATOM     23  C   UNL     1      -4.309  13.696  22.041  0.00  0.00    +0.000 A 
ATOM     24  C   UNL     1      -5.604  13.699  22.572  0.00  0.00    +0.000 A 
ATOM     25  C   UNL     1      -5.845  13.109  23.807  0.00  0.00    +0.000 A 
ATOM     26  F   UNL     1      -7.084  13.133  24.317  0.00  0.00    +0.000 F 
ATOM     27  C   UNL     1      -4.820  12.500  24.521  0.00  0.00    +0.000 A 
ATOM     28  C   UNL     1      -3.524  12.488  23.995  0.00  0.00    +0.000 A 
ENDBRANCH  19  22
BRANCH  20  29
ATOM     29  C   UNL     1      -1.339  15.028  23.829  0.00  0.00    +0.000 A 
ATOM     30  C   UNL     1      -1.860  16.272  23.489  0.00  0.00    +0.000 A 
ATOM     31  S   UNL     1      -1.983  17.205  24.921  0.00  0.00    +0.000 S 
ATOM     32  N   UNL     1      -1.373  15.979  25.877  0.00  0.00    +0.000 NA
ATOM     33  N   UNL     1      -1.066  14.893  25.188  0.00  0.00    +0.000 NA
ENDBRANCH  20  29
ENDBRANCH   1  19
TORSDOF 7
ENDMDL
MODEL 9
REMARK VINA RESULT:      -7.5      5.975      9.117
REMARK  Name = 
REMARK  7 active torsions:
REMARK  status: ('A' for Active; 'I' for Inactive)
REMARK    1  A    between atoms: C_2  and  C_11
REMARK    2  A    between atoms: N_3  and  C_4
REMARK    3  A    between atoms: C_4  and  C_5
REMARK    4  A    between atoms: C_11  and  C_12
REMARK    5  A    between atoms: C_11  and  N_18
REMARK    6  A    between atoms: N_18  and  C_26
REMARK    7  A    between atoms: C_19  and  C_21
REMARK                            x       y       z     vdW  Elec       q    Type
REMARK                         _______ _______ _______ _____ _____    ______ ____
ROOT
ATOM      1  C   UNL     1       0.291  11.133  19.090  0.00  0.00    +0.000 C 
ENDROOT
BRANCH   1   2
ATOM      2  C   UNL     1      -0.975  10.858  18.267  0.00  0.00    +0.000 A 
ATOM      3  C   UNL     1      -1.454  11.740  17.300  0.00  0.00    +0.000 A 
ATOM      4  C   UNL     1      -2.659  11.467  16.652  0.00  0.00    +0.000 A 
ATOM      5  C   UNL     1      -3.370  10.322  16.983  0.00  0.00    +0.000 A 
ATOM      6  C   UNL     1      -2.836   9.489  17.945  0.00  0.00    +0.000 A 
ATOM      7  N   UNL     1      -1.668   9.726  18.592  0.00  0.00    +0.000 NA
ENDBRANCH   1   2
BRANCH   1   9
ATOM      8  O   UNL     1       0.486   9.372  20.805  0.00  0.00    +0.000 OA
ATOM      9  C   UNL     1       0.801   9.765  19.686  0.00  0.00    +0.000 C 
ATOM     10  N   UNL     1       1.587   8.960  18.861  0.00  0.00    +0.000 N 
ATOM     11  H   UNL     1       1.395   9.074  17.872  0.00  0.00    +0.000 HD
BRANCH  10  12
ATOM     12  C   UNL     1       1.924   7.587  19.262  0.00  0.00    +0.000 C 
BRANCH  12  13
ATOM     13  C   UNL     1       2.841   6.808  18.333  0.00  0.00    +0.000 A 
ATOM     14  C   UNL     1       3.824   7.451  17.562  0.00  0.00    +0.000 A 
ATOM     15  C   UNL     1       4.679   6.734  16.718  0.00  0.00    +0.000 A 
ATOM     16  C   UNL     1       4.591   5.349  16.649  0.00  0.00    +0.000 A 
ATOM     17  C   UNL     1       3.665   4.682  17.448  0.00  0.00    +0.000 A 
ATOM     18  C   UNL     1       2.799   5.404  18.282  0.00  0.00    +0.000 A 
ENDBRANCH  12  13
ENDBRANCH  10  12
ENDBRANCH   1   9
BRANCH   1  19
ATOM     19  N   UNL     1       0.226  12.322  20.025  0.00  0.00    +0.000 N 
ATOM     20  C   UNL     1       1.255  13.287  20.091  0.00  0.00    +0.000 C 
ATOM     21  O   UNL     1       2.264  13.224  19.394  0.00  0.00    +0.000 OA
BRANCH  19  22
ATOM     22  C   UNL     1      -0.852  12.313  20.955  0.00  0.00    +0.000 A 
ATOM     23  C   UNL     1      -2.070  12.899  20.586  0.00  0.00    +0.000 A 
ATOM     24  C   UNL     1      -3.117  12.968  21.513  0.00  0.00    +0.000 A 
ATOM     25  C   UNL     1      -2.943  12.449  22.789  0.00  0.00    +0.000 A 
ATOM     26  F   UNL     1      -3.944  12.536  23.677  0.00  0.00    +0.000 F 
ATOM     27  C   UNL     1      -1.747  11.846  23.161  0.00  0.00    +0.000 A 
ATOM     28  C   UNL     1      -0.699  11.768  22.238  0.00  0.00    +0.000 A 
ENDBRANCH  19  22
BRANCH  20  29
ATOM     29  C   UNL     1       1.128  14.464  20.973  0.00  0.00    +0.000 A 
ATOM     30  C   UNL     1       0.540  15.653  20.556  0.00  0.00    +0.000 A 
ATOM     31  S   UNL     1       0.759  16.815  21.797  0.00  0.00    +0.000 S 
ATOM     32  N   UNL     1       1.578  15.742  22.779  0.00  0.00    +0.000 NA
ATOM     33  N   UNL     1       1.714  14.545  22.234  0.00  0.00    +0.000 NA
ENDBRANCH  20  29
ENDBRANCH   1  19
TORSDOF 7
ENDMDL
