MODEL 1
REMARK VINA RESULT:      -8.2      0.000      0.000
REMARK  Name = 
REMARK  5 active torsions:
REMARK  status: ('A' for Active; 'I' for Inactive)
REMARK    1  A    between atoms: C_1  and  C_2
REMARK    2  A    between atoms: C_2  and  N_3
REMARK    3  A    between atoms: C_4  and  S_5
REMARK    4  A    between atoms: S_5  and  C_6
REMARK    5  A    between atoms: C_6  and  C_7
REMARK                            x       y       z     vdW  Elec       q    Type
REMARK                         _______ _______ _______ _____ _____    ______ ____
ROOT
ATOM      1  S   UNL     1       3.089   8.131  17.824  0.00  0.00    +0.000 S 
ENDROOT
BRANCH   1   3
ATOM      2  N   UNL     1       4.127   5.780  18.485  0.00  0.00    +0.000 N 
ATOM      3  C   UNL     1       2.964   6.529  18.687  0.00  0.00    +0.000 A 
ATOM      4  N   UNL     1       1.984   6.074  19.421  0.00  0.00    +0.000 NA
ATOM      5  C   UNL     1       2.138   4.751  20.019  0.00  0.00    +0.000 A 
ATOM      6  C   UNL     1       1.083   4.050  20.634  0.00  0.00    +0.000 A 
ATOM      7  C   UNL     1       1.259   2.756  21.200  0.00  0.00    +0.000 A 
ATOM      8  C   UNL     1       2.515   2.138  21.183  0.00  0.00    +0.000 A 
ATOM      9  C   UNL     1       3.577   2.806  20.594  0.00  0.00    +0.000 A 
ATOM     10  C   UNL     1       3.365   4.069  20.013  0.00  0.00    +0.000 A 
ATOM     11  C   UNL     1       4.445   4.680  19.263  0.00  0.00    +0.000 A 
ATOM     12  O   UNL     1       5.565   4.175  19.323  0.00  0.00    +0.000 OA
BRANCH   2  14
ATOM     13  C   UNL     1       4.970   5.284  16.203  0.00  0.00    +0.000 C 
ATOM     14  C   UNL     1       5.128   6.107  17.472  0.00  0.00    +0.000 C 
ENDBRANCH   2  14
ENDBRANCH   1   3
BRANCH   1  15
ATOM     15  C   UNL     1       1.549   8.848  17.483  0.00  0.00    +0.000 C 
BRANCH  15  16
ATOM     16  C   UNL     1       0.699   9.738  18.432  0.00  0.00    +0.000 C 
ATOM     17  O   UNL     1       1.490   9.934  19.414  0.00  0.00    +0.000 OA
ATOM     18  N   UNL     1      -0.578  10.398  18.578  0.00  0.00    +0.000 N 
ATOM     19  C   UNL     1      -0.507  11.082  19.893  0.00  0.00    +0.000 C 
ATOM     20  C   UNL     1      -1.644  11.766  20.593  0.00  0.00    +0.000 C 
ATOM     21  C   UNL     1      -2.675  12.322  19.695  0.00  0.00    +0.000 C 
ATOM     22  C   UNL     1      -2.885  11.490  18.470  0.00  0.00    +0.000 A 
ATOM     23  C   UNL     1      -4.171  11.735  17.911  0.00  0.00    +0.000 A 
ATOM     24  C   UNL     1      -4.542  11.197  16.723  0.00  0.00    +0.000 A 
ATOM     25  C   UNL     1      -3.599  10.409  16.070  0.00  0.00    +0.000 A 
ATOM     26  C   UNL     1      -2.293  10.124  16.615  0.00  0.00    +0.000 A 
ATOM     27  C   UNL     1      -1.868  10.649  17.859  0.00  0.00    +0.000 A 
ENDBRANCH  15  16
ENDBRANCH   1  15
TORSDOF 4
ENDMDL
MODEL 2
REMARK VINA RESULT:      -8.1      1.414      3.255
REMARK  Name = 
REMARK  5 active torsions:
REMARK  status: ('A' for Active; 'I' for Inactive)
REMARK    1  A    between atoms: C_1  and  C_2
REMARK    2  A    between atoms: C_2  and  N_3
REMARK    3  A    between atoms: C_4  and  S_5
REMARK    4  A    between atoms: S_5  and  C_6
REMARK    5  A    between atoms: C_6  and  C_7
REMARK                            x       y       z     vdW  Elec       q    Type
REMARK                         _______ _______ _______ _____ _____    ______ ____
ROOT
ATOM      1  S   UNL     1       1.865   7.684  20.015  0.00  0.00    +0.000 S 
ENDROOT
BRANCH   1   3
ATOM      2  N   UNL     1       2.882   5.342  19.290  0.00  0.00    +0.000 N 
ATOM      3  C   UNL     1       2.890   6.681  18.888  0.00  0.00    +0.000 A 
ATOM      4  N   UNL     1       3.552   7.067  17.830  0.00  0.00    +0.000 NA
ATOM      5  C   UNL     1       4.292   6.054  17.083  0.00  0.00    +0.000 A 
ATOM      6  C   UNL     1       5.222   6.363  16.072  0.00  0.00    +0.000 A 
ATOM      7  C   UNL     1       5.938   5.354  15.366  0.00  0.00    +0.000 A 
ATOM      8  C   UNL     1       5.718   4.000  15.644  0.00  0.00    +0.000 A 
ATOM      9  C   UNL     1       4.802   3.663  16.628  0.00  0.00    +0.000 A 
ATOM     10  C   UNL     1       4.135   4.683  17.332  0.00  0.00    +0.000 A 
ATOM     11  C   UNL     1       3.303   4.317  18.462  0.00  0.00    +0.000 A 
ATOM     12  O   UNL     1       3.048   3.129  18.647  0.00  0.00    +0.000 OA
BRANCH   2  14
ATOM     13  C   UNL     1       1.046   4.202  20.513  0.00  0.00    +0.000 C 
ATOM     14  C   UNL     1       2.395   4.898  20.595  0.00  0.00    +0.000 C 
ENDBRANCH   2  14
ENDBRANCH   1   3
BRANCH   1  15
ATOM     15  C   UNL     1       1.449   9.236  19.367  0.00  0.00    +0.000 C 
BRANCH  15  16
ATOM     16  C   UNL     1       0.345  10.201  19.882  0.00  0.00    +0.000 C 
ATOM     17  O   UNL     1       0.828  10.613  20.989  0.00  0.00    +0.000 OA
ATOM     18  N   UNL     1      -0.942  10.777  19.563  0.00  0.00    +0.000 N 
ATOM     19  C   UNL     1      -1.255  11.668  20.706  0.00  0.00    +0.000 C 
ATOM     20  C   UNL     1      -2.561  12.369  20.946  0.00  0.00    +0.000 C 
ATOM     21  C   UNL     1      -3.320  12.691  19.721  0.00  0.00    +0.000 C 
ATOM     22  C   UNL     1      -3.159  11.658  18.653  0.00  0.00    +0.000 A 
ATOM     23  C   UNL     1      -4.249  11.710  17.737  0.00  0.00    +0.000 A 
ATOM     24  C   UNL     1      -4.262  10.959  16.608  0.00  0.00    +0.000 A 
ATOM     25  C   UNL     1      -3.153  10.150  16.380  0.00  0.00    +0.000 A 
ATOM     26  C   UNL     1      -2.040  10.058  17.295  0.00  0.00    +0.000 A 
ATOM     27  C   UNL     1      -1.990  10.809  18.493  0.00  0.00    +0.000 A 
ENDBRANCH  15  16
ENDBRANCH   1  15
TORSDOF 4
ENDMDL
MODEL 3
REMARK VINA RESULT:      -8.1      2.587      2.974
REMARK  Name = 
REMARK  5 active torsions:
REMARK  status: ('A' for Active; 'I' for Inactive)
REMARK    1  A    between atoms: C_1  and  C_2
REMARK    2  A    between atoms: C_2  and  N_3
REMARK    3  A    between atoms: C_4  and  S_5
REMARK    4  A    between atoms: S_5  and  C_6
REMARK    5  A    between atoms: C_6  and  C_7
REMARK                            x       y       z     vdW  Elec       q    Type
REMARK                         _______ _______ _______ _____ _____    ______ ____
ROOT
ATOM      1  S   UNL     1       3.501   7.847  17.693  0.00  0.00    +0.000 S 
ENDROOT
BRANCH   1   3
ATOM      2  N   UNL     1       4.336   5.442  18.442  0.00  0.00    +0.000 N 
ATOM      3  C   UNL     1       3.253   6.305  18.635  0.00  0.00    +0.000 A 
ATOM      4  N   UNL     1       2.256   5.978  19.413  0.00  0.00    +0.000 NA
ATOM      5  C   UNL     1       2.304   4.675  20.071  0.00  0.00    +0.000 A 
ATOM      6  C   UNL     1       1.206   4.105  20.743  0.00  0.00    +0.000 A 
ATOM      7  C   UNL     1       1.278   2.827  21.367  0.00  0.00    +0.000 A 
ATOM      8  C   UNL     1       2.471   2.095  21.350  0.00  0.00    +0.000 A 
ATOM      9  C   UNL     1       3.573   2.632  20.705  0.00  0.00    +0.000 A 
ATOM     10  C   UNL     1       3.462   3.882  20.068  0.00  0.00    +0.000 A 
ATOM     11  C   UNL     1       4.572   4.354  19.264  0.00  0.00    +0.000 A 
ATOM     12  O   UNL     1       5.642   3.750  19.322  0.00  0.00    +0.000 OA
BRANCH   2  14
ATOM     13  C   UNL     1       5.051   4.784  16.157  0.00  0.00    +0.000 C 
ATOM     14  C   UNL     1       5.334   5.627  17.391  0.00  0.00    +0.000 C 
ENDBRANCH   2  14
ENDBRANCH   1   3
BRANCH   1  15
ATOM     15  C   UNL     1       2.064   8.805  17.554  0.00  0.00    +0.000 C 
BRANCH  15  16
ATOM     16  C   UNL     1       1.788  10.180  18.222  0.00  0.00    +0.000 C 
ATOM     17  O   UNL     1       2.280  11.004  17.381  0.00  0.00    +0.000 OA
ATOM     18  N   UNL     1       1.190  10.818  19.373  0.00  0.00    +0.000 N 
ATOM     19  C   UNL     1       1.394  12.271  19.154  0.00  0.00    +0.000 C 
ATOM     20  C   UNL     1       1.110  13.361  20.146  0.00  0.00    +0.000 C 
ATOM     21  C   UNL     1       0.028  13.055  21.103  0.00  0.00    +0.000 C 
ATOM     22  C   UNL     1      -0.020  11.609  21.479  0.00  0.00    +0.000 A 
ATOM     23  C   UNL     1      -0.685  11.437  22.727  0.00  0.00    +0.000 A 
ATOM     24  C   UNL     1      -0.969  10.204  23.214  0.00  0.00    +0.000 A 
ATOM     25  C   UNL     1      -0.595   9.118  22.429  0.00  0.00    +0.000 A 
ATOM     26  C   UNL     1       0.096   9.254  21.168  0.00  0.00    +0.000 A 
ATOM     27  C   UNL     1       0.428  10.518  20.628  0.00  0.00    +0.000 A 
ENDBRANCH  15  16
ENDBRANCH   1  15
TORSDOF 4
ENDMDL
MODEL 4
REMARK VINA RESULT:      -8.0      1.816      3.522
REMARK  Name = 
REMARK  5 active torsions:
REMARK  status: ('A' for Active; 'I' for Inactive)
REMARK    1  A    between atoms: C_1  and  C_2
REMARK    2  A    between atoms: C_2  and  N_3
REMARK    3  A    between atoms: C_4  and  S_5
REMARK    4  A    between atoms: S_5  and  C_6
REMARK    5  A    between atoms: C_6  and  C_7
REMARK                            x       y       z     vdW  Elec       q    Type
REMARK                         _______ _______ _______ _____ _____    ______ ____
ROOT
ATOM      1  S   UNL     1       1.168   6.914  20.867  0.00  0.00    +0.000 S 
ENDROOT
BRANCH   1   3
ATOM      2  N   UNL     1       2.087   4.859  19.462  0.00  0.00    +0.000 N 
ATOM      3  C   UNL     1       2.268   6.241  19.577  0.00  0.00    +0.000 A 
ATOM      4  N   UNL     1       3.114   6.880  18.814  0.00  0.00    +0.000 NA
ATOM      5  C   UNL     1       3.874   6.101  17.839  0.00  0.00    +0.000 A 
ATOM      6  C   UNL     1       4.971   6.617  17.122  0.00  0.00    +0.000 A 
ATOM      7  C   UNL     1       5.701   5.831  16.185  0.00  0.00    +0.000 A 
ATOM      8  C   UNL     1       5.330   4.507  15.926  0.00  0.00    +0.000 A 
ATOM      9  C   UNL     1       4.249   3.973  16.609  0.00  0.00    +0.000 A 
ATOM     10  C   UNL     1       3.568   4.762  17.554  0.00  0.00    +0.000 A 
ATOM     11  C   UNL     1       2.545   4.140  18.372  0.00  0.00    +0.000 A 
ATOM     12  O   UNL     1       2.167   3.006  18.083  0.00  0.00    +0.000 OA
BRANCH   2  14
ATOM     13  C   UNL     1       2.301   3.410  21.467  0.00  0.00    +0.000 C 
ATOM     14  C   UNL     1       1.372   4.058  20.452  0.00  0.00    +0.000 C 
ENDBRANCH   2  14
ENDBRANCH   1   3
BRANCH   1  15
ATOM     15  C   UNL     1       1.533   8.554  21.291  0.00  0.00    +0.000 C 
BRANCH  15  16
ATOM     16  C   UNL     1       0.529   9.732  21.428  0.00  0.00    +0.000 C 
ATOM     17  O   UNL     1       0.739  10.143  22.618  0.00  0.00    +0.000 OA
ATOM     18  N   UNL     1      -0.479  10.492  20.724  0.00  0.00    +0.000 N 
ATOM     19  C   UNL     1      -0.938  11.513  21.698  0.00  0.00    +0.000 C 
ATOM     20  C   UNL     1      -2.102  12.443  21.518  0.00  0.00    +0.000 C 
ATOM     21  C   UNL     1      -2.400  12.791  20.114  0.00  0.00    +0.000 C 
ATOM     22  C   UNL     1      -2.133  11.663  19.169  0.00  0.00    +0.000 A 
ATOM     23  C   UNL     1      -2.881  11.827  17.969  0.00  0.00    +0.000 A 
ATOM     24  C   UNL     1      -2.707  11.002  16.907  0.00  0.00    +0.000 A 
ATOM     25  C   UNL     1      -1.751   9.999  17.043  0.00  0.00    +0.000 A 
ATOM     26  C   UNL     1      -0.989   9.792  18.251  0.00  0.00    +0.000 A 
ATOM     27  C   UNL     1      -1.148  10.616  19.389  0.00  0.00    +0.000 A 
ENDBRANCH  15  16
ENDBRANCH   1  15
TORSDOF 4
ENDMDL
MODEL 5
REMARK VINA RESULT:      -7.9      1.685      8.953
REMARK  Name = 
REMARK  5 active torsions:
REMARK  status: ('A' for Active; 'I' for Inactive)
REMARK    1  A    between atoms: C_1  and  C_2
REMARK    2  A    between atoms: C_2  and  N_3
REMARK    3  A    between atoms: C_4  and  S_5
REMARK    4  A    between atoms: S_5  and  C_6
REMARK    5  A    between atoms: C_6  and  C_7
REMARK                            x       y       z     vdW  Elec       q    Type
REMARK                         _______ _______ _______ _____ _____    ______ ____
ROOT
ATOM      1  S   UNL     1       1.275  10.230  18.487  0.00  0.00    +0.000 S 
ENDROOT
BRANCH   1   3
ATOM      2  N   UNL     1      -0.711  11.415  19.788  0.00  0.00    +0.000 N 
ATOM      3  C   UNL     1      -0.480  10.710  18.604  0.00  0.00    +0.000 A 
ATOM      4  N   UNL     1      -1.443  10.488  17.749  0.00  0.00    +0.000 NA
ATOM      5  C   UNL     1      -2.774  10.994  18.075  0.00  0.00    +0.000 A 
ATOM      6  C   UNL     1      -3.935  10.633  17.366  0.00  0.00    +0.000 A 
ATOM      7  C   UNL     1      -5.222  11.135  17.713  0.00  0.00    +0.000 A 
ATOM      8  C   UNL     1      -5.372  12.036  18.773  0.00  0.00    +0.000 A 
ATOM      9  C   UNL     1      -4.246  12.418  19.485  0.00  0.00    +0.000 A 
ATOM     10  C   UNL     1      -2.993  11.880  19.141  0.00  0.00    +0.000 A 
ATOM     11  C   UNL     1      -1.856  12.166  19.994  0.00  0.00    +0.000 A 
ATOM     12  O   UNL     1      -1.974  13.021  20.869  0.00  0.00    +0.000 OA
BRANCH   2  14
ATOM     13  C   UNL     1      -0.106  10.487  22.010  0.00  0.00    +0.000 C 
ATOM     14  C   UNL     1       0.243  11.460  20.895  0.00  0.00    +0.000 C 
ENDBRANCH   2  14
ENDBRANCH   1   3
BRANCH   1  15
ATOM     15  C   UNL     1       1.604   8.664  19.154  0.00  0.00    +0.000 C 
BRANCH  15  16
ATOM     16  C   UNL     1       2.500   7.554  18.538  0.00  0.00    +0.000 C 
ATOM     17  O   UNL     1       2.997   8.131  17.514  0.00  0.00    +0.000 OA
ATOM     18  N   UNL     1       2.959   6.194  18.715  0.00  0.00    +0.000 N 
ATOM     19  C   UNL     1       3.871   5.947  17.572  0.00  0.00    +0.000 C 
ATOM     20  C   UNL     1       4.476   4.626  17.197  0.00  0.00    +0.000 C 
ATOM     21  C   UNL     1       4.684   3.701  18.329  0.00  0.00    +0.000 C 
ATOM     22  C   UNL     1       3.622   3.818  19.374  0.00  0.00    +0.000 A 
ATOM     23  C   UNL     1       3.549   2.626  20.150  0.00  0.00    +0.000 A 
ATOM     24  C   UNL     1       2.751   2.540  21.243  0.00  0.00    +0.000 A 
ATOM     25  C   UNL     1       2.022   3.677  21.579  0.00  0.00    +0.000 A 
ATOM     26  C   UNL     1       2.058   4.896  20.805  0.00  0.00    +0.000 A 
ATOM     27  C   UNL     1       2.861   5.026  19.648  0.00  0.00    +0.000 A 
ENDBRANCH  15  16
ENDBRANCH   1  15
TORSDOF 4
ENDMDL
MODEL 6
REMARK VINA RESULT:      -7.9      1.794      8.614
REMARK  Name = 
REMARK  5 active torsions:
REMARK  status: ('A' for Active; 'I' for Inactive)
REMARK    1  A    between atoms: C_1  and  C_2
REMARK    2  A    between atoms: C_2  and  N_3
REMARK    3  A    between atoms: C_4  and  S_5
REMARK    4  A    between atoms: S_5  and  C_6
REMARK    5  A    between atoms: C_6  and  C_7
REMARK                            x       y       z     vdW  Elec       q    Type
REMARK                         _______ _______ _______ _____ _____    ______ ____
ROOT
ATOM      1  S   UNL     1       1.866   9.130  19.203  0.00  0.00    +0.000 S 
ENDROOT
BRANCH   1   3
ATOM      2  N   UNL     1      -0.240  10.594  19.886  0.00  0.00    +0.000 N 
ATOM      3  C   UNL     1       0.207   9.790  18.833  0.00  0.00    +0.000 A 
ATOM      4  N   UNL     1      -0.521   9.608  17.763  0.00  0.00    +0.000 NA
ATOM      5  C   UNL     1      -1.823  10.265  17.706  0.00  0.00    +0.000 A 
ATOM      6  C   UNL     1      -2.796   9.975  16.729  0.00  0.00    +0.000 A 
ATOM      7  C   UNL     1      -4.063  10.624  16.704  0.00  0.00    +0.000 A 
ATOM      8  C   UNL     1      -4.378  11.606  17.651  0.00  0.00    +0.000 A 
ATOM      9  C   UNL     1      -3.438  11.921  18.619  0.00  0.00    +0.000 A 
ATOM     10  C   UNL     1      -2.208  11.239  18.640  0.00  0.00    +0.000 A 
ATOM     11  C   UNL     1      -1.306  11.466  19.752  0.00  0.00    +0.000 A 
ATOM     12  O   UNL     1      -1.548  12.386  20.530  0.00  0.00    +0.000 OA
BRANCH   2  14
ATOM     13  C   UNL     1      -0.358   9.788  22.231  0.00  0.00    +0.000 C 
ATOM     14  C   UNL     1       0.394  10.618  21.202  0.00  0.00    +0.000 C 
ENDBRANCH   2  14
ENDBRANCH   1   3
BRANCH   1  15
ATOM     15  C   UNL     1       1.839   7.759  20.262  0.00  0.00    +0.000 C 
BRANCH  15  16
ATOM     16  C   UNL     1       2.177   6.287  19.896  0.00  0.00    +0.000 C 
ATOM     17  O   UNL     1       1.517   5.624  20.764  0.00  0.00    +0.000 OA
ATOM     18  N   UNL     1       2.908   5.455  18.967  0.00  0.00    +0.000 N 
ATOM     19  C   UNL     1       2.625   4.063  19.396  0.00  0.00    +0.000 C 
ATOM     20  C   UNL     1       3.287   2.826  18.865  0.00  0.00    +0.000 C 
ATOM     21  C   UNL     1       3.755   2.929  17.469  0.00  0.00    +0.000 C 
ATOM     22  C   UNL     1       4.243   4.299  17.122  0.00  0.00    +0.000 A 
ATOM     23  C   UNL     1       5.128   4.249  16.007  0.00  0.00    +0.000 A 
ATOM     24  C   UNL     1       5.597   5.379  15.424  0.00  0.00    +0.000 A 
ATOM     25  C   UNL     1       5.158   6.589  15.957  0.00  0.00    +0.000 A 
ATOM     26  C   UNL     1       4.277   6.677  17.096  0.00  0.00    +0.000 A 
ATOM     27  C   UNL     1       3.776   5.525  17.748  0.00  0.00    +0.000 A 
ENDBRANCH  15  16
ENDBRANCH   1  15
TORSDOF 4
ENDMDL
MODEL 7
REMARK VINA RESULT:      -7.8      1.024      1.024
REMARK  Name = 
REMARK  5 active torsions:
REMARK  status: ('A' for Active; 'I' for Inactive)
REMARK    1  A    between atoms: C_1  and  C_2
REMARK    2  A    between atoms: C_2  and  N_3
REMARK    3  A    between atoms: C_4  and  S_5
REMARK    4  A    between atoms: S_5  and  C_6
REMARK    5  A    between atoms: C_6  and  C_7
REMARK                            x       y       z     vdW  Elec       q    Type
REMARK                         _______ _______ _______ _____ _____    ______ ____
ROOT
ATOM      1  S   UNL     1       3.091   8.165  17.830  0.00  0.00    +0.000 S 
ENDROOT
BRANCH   1   3
ATOM      2  N   UNL     1       4.376   5.850  18.008  0.00  0.00    +0.000 N 
ATOM      3  C   UNL     1       3.082   6.366  18.127  0.00  0.00    +0.000 A 
ATOM      4  N   UNL     1       2.070   5.596  18.430  0.00  0.00    +0.000 NA
ATOM      5  C   UNL     1       2.334   4.174  18.633  0.00  0.00    +0.000 A 
ATOM      6  C   UNL     1       1.317   3.205  18.735  0.00  0.00    +0.000 A 
ATOM      7  C   UNL     1       1.604   1.822  18.922  0.00  0.00    +0.000 A 
ATOM      8  C   UNL     1       2.926   1.379  19.036  0.00  0.00    +0.000 A 
ATOM      9  C   UNL     1       3.949   2.310  18.949  0.00  0.00    +0.000 A 
ATOM     10  C   UNL     1       3.637   3.664  18.730  0.00  0.00    +0.000 A 
ATOM     11  C   UNL     1       4.720   4.596  18.482  0.00  0.00    +0.000 A 
ATOM     12  O   UNL     1       5.877   4.220  18.667  0.00  0.00    +0.000 OA
BRANCH   2  14
ATOM     13  C   UNL     1       5.705   6.250  15.950  0.00  0.00    +0.000 C 
ATOM     14  C   UNL     1       5.485   6.593  17.415  0.00  0.00    +0.000 C 
ENDBRANCH   2  14
ENDBRANCH   1   3
BRANCH   1  15
ATOM     15  C   UNL     1       1.513   8.821  17.544  0.00  0.00    +0.000 C 
BRANCH  15  16
ATOM     16  C   UNL     1       0.694   9.736  18.496  0.00  0.00    +0.000 C 
ATOM     17  O   UNL     1       1.503   9.932  19.462  0.00  0.00    +0.000 OA
ATOM     18  N   UNL     1      -0.571  10.418  18.654  0.00  0.00    +0.000 N 
ATOM     19  C   UNL     1      -0.468  11.117  19.958  0.00  0.00    +0.000 C 
ATOM     20  C   UNL     1      -1.583  11.828  20.668  0.00  0.00    +0.000 C 
ATOM     21  C   UNL     1      -2.620  12.388  19.779  0.00  0.00    +0.000 C 
ATOM     22  C   UNL     1      -2.862  11.544  18.569  0.00  0.00    +0.000 A 
ATOM     23  C   UNL     1      -4.154  11.802  18.029  0.00  0.00    +0.000 A 
ATOM     24  C   UNL     1      -4.553  11.255  16.854  0.00  0.00    +0.000 A 
ATOM     25  C   UNL     1      -3.632  10.443  16.196  0.00  0.00    +0.000 A 
ATOM     26  C   UNL     1      -2.322  10.146  16.723  0.00  0.00    +0.000 A 
ATOM     27  C   UNL     1      -1.869  10.680  17.952  0.00  0.00    +0.000 A 
ENDBRANCH  15  16
ENDBRANCH   1  15
TORSDOF 4
ENDMDL
MODEL 8
REMARK VINA RESULT:      -7.8      2.244      4.265
REMARK  Name = 
REMARK  5 active torsions:
REMARK  status: ('A' for Active; 'I' for Inactive)
REMARK    1  A    between atoms: C_1  and  C_2
REMARK    2  A    between atoms: C_2  and  N_3
REMARK    3  A    between atoms: C_4  and  S_5
REMARK    4  A    between atoms: S_5  and  C_6
REMARK    5  A    between atoms: C_6  and  C_7
REMARK                            x       y       z     vdW  Elec       q    Type
REMARK                         _______ _______ _______ _____ _____    ______ ____
ROOT
ATOM      1  S   UNL     1       1.452   6.352  20.514  0.00  0.00    +0.000 S 
ENDROOT
BRANCH   1   3
ATOM      2  N   UNL     1       2.263   4.533  18.761  0.00  0.00    +0.000 N 
ATOM      3  C   UNL     1       2.671   5.759  19.295  0.00  0.00    +0.000 A 
ATOM      4  N   UNL     1       3.777   6.335  18.903  0.00  0.00    +0.000 NA
ATOM      5  C   UNL     1       4.579   5.651  17.893  0.00  0.00    +0.000 A 
ATOM      6  C   UNL     1       5.890   6.038  17.552  0.00  0.00    +0.000 A 
ATOM      7  C   UNL     1       6.654   5.346  16.570  0.00  0.00    +0.000 A 
ATOM      8  C   UNL     1       6.108   4.254  15.884  0.00  0.00    +0.000 A 
ATOM      9  C   UNL     1       4.818   3.854  16.190  0.00  0.00    +0.000 A 
ATOM     10  C   UNL     1       4.099   4.536  17.189  0.00  0.00    +0.000 A 
ATOM     11  C   UNL     1       2.816   4.006  17.607  0.00  0.00    +0.000 A 
ATOM     12  O   UNL     1       2.307   3.102  16.946  0.00  0.00    +0.000 OA
BRANCH   2  14
ATOM     13  C   UNL     1       1.711   2.749  20.398  0.00  0.00    +0.000 C 
ATOM     14  C   UNL     1       1.199   3.718  19.343  0.00  0.00    +0.000 C 
ENDBRANCH   2  14
ENDBRANCH   1   3
BRANCH   1  15
ATOM     15  C   UNL     1       1.617   8.037  20.886  0.00  0.00    +0.000 C 
BRANCH  15  16
ATOM     16  C   UNL     1       1.014   9.233  20.097  0.00  0.00    +0.000 C 
ATOM     17  O   UNL     1       1.514   9.080  18.933  0.00  0.00    +0.000 OA
ATOM     18  N   UNL     1       0.129  10.371  20.202  0.00  0.00    +0.000 N 
ATOM     19  C   UNL     1       0.139  10.988  18.854  0.00  0.00    +0.000 C 
ATOM     20  C   UNL     1      -0.483  12.302  18.481  0.00  0.00    +0.000 C 
ATOM     21  C   UNL     1      -1.657  12.679  19.293  0.00  0.00    +0.000 C 
ATOM     22  C   UNL     1      -1.545  12.230  20.715  0.00  0.00    +0.000 A 
ATOM     23  C   UNL     1      -2.386  13.014  21.555  0.00  0.00    +0.000 A 
ATOM     24  C   UNL     1      -2.556  12.712  22.867  0.00  0.00    +0.000 A 
ATOM     25  C   UNL     1      -1.883  11.591  23.344  0.00  0.00    +0.000 A 
ATOM     26  C   UNL     1      -1.009  10.785  22.526  0.00  0.00    +0.000 A 
ATOM     27  C   UNL     1      -0.787  11.071  21.158  0.00  0.00    +0.000 A 
ENDBRANCH  15  16
ENDBRANCH   1  15
TORSDOF 4
ENDMDL
MODEL 9
REMARK VINA RESULT:      -7.8      1.690      8.520
REMARK  Name = 
REMARK  5 active torsions:
REMARK  status: ('A' for Active; 'I' for Inactive)
REMARK    1  A    between atoms: C_1  and  C_2
REMARK    2  A    between atoms: C_2  and  N_3
REMARK    3  A    between atoms: C_4  and  S_5
REMARK    4  A    between atoms: S_5  and  C_6
REMARK    5  A    between atoms: C_6  and  C_7
REMARK                            x       y       z     vdW  Elec       q    Type
REMARK                         _______ _______ _______ _____ _____    ______ ____
ROOT
ATOM      1  S   UNL     1       1.890   8.995  19.219  0.00  0.00    +0.000 S 
ENDROOT
BRANCH   1   3
ATOM      2  N   UNL     1      -0.307  10.331  19.873  0.00  0.00    +0.000 N 
ATOM      3  C   UNL     1       0.264   9.688  18.771  0.00  0.00    +0.000 A 
ATOM      4  N   UNL     1      -0.346   9.653  17.616  0.00  0.00    +0.000 NA
ATOM      5  C   UNL     1      -1.650  10.303  17.514  0.00  0.00    +0.000 A 
ATOM      6  C   UNL     1      -2.509  10.146  16.409  0.00  0.00    +0.000 A 
ATOM      7  C   UNL     1      -3.781  10.783  16.341  0.00  0.00    +0.000 A 
ATOM      8  C   UNL     1      -4.214  11.618  17.378  0.00  0.00    +0.000 A 
ATOM      9  C   UNL     1      -3.387  11.800  18.474  0.00  0.00    +0.000 A 
ATOM     10  C   UNL     1      -2.150  11.131  18.529  0.00  0.00    +0.000 A 
ATOM     11  C   UNL     1      -1.373  11.206  19.750  0.00  0.00    +0.000 A 
ATOM     12  O   UNL     1      -1.715  12.005  20.620  0.00  0.00    +0.000 OA
BRANCH   2  14
ATOM     13  C   UNL     1      -0.473   9.015  21.972  0.00  0.00    +0.000 C 
ATOM     14  C   UNL     1       0.186  10.174  21.239  0.00  0.00    +0.000 C 
ENDBRANCH   2  14
ENDBRANCH   1   3
BRANCH   1  15
ATOM     15  C   UNL     1       2.826   8.499  17.847  0.00  0.00    +0.000 C 
BRANCH  15  16
ATOM     16  C   UNL     1       3.417   7.088  17.577  0.00  0.00    +0.000 C 
ATOM     17  O   UNL     1       4.292   7.318  16.678  0.00  0.00    +0.000 OA
ATOM     18  N   UNL     1       3.347   5.699  17.974  0.00  0.00    +0.000 N 
ATOM     19  C   UNL     1       4.356   5.011  17.134  0.00  0.00    +0.000 C 
ATOM     20  C   UNL     1       4.556   3.526  17.035  0.00  0.00    +0.000 C 
ATOM     21  C   UNL     1       4.187   2.774  18.250  0.00  0.00    +0.000 C 
ATOM     22  C   UNL     1       3.019   3.369  18.967  0.00  0.00    +0.000 A 
ATOM     23  C   UNL     1       2.383   2.394  19.787  0.00  0.00    +0.000 A 
ATOM     24  C   UNL     1       1.379   2.727  20.636  0.00  0.00    +0.000 A 
ATOM     25  C   UNL     1       1.013   4.070  20.678  0.00  0.00    +0.000 A 
ATOM     26  C   UNL     1       1.623   5.082  19.849  0.00  0.00    +0.000 A 
ATOM     27  C   UNL     1       2.661   4.779  18.937  0.00  0.00    +0.000 A 
ENDBRANCH  15  16
ENDBRANCH   1  15
TORSDOF 4
ENDMDL
