MODEL 1
REMARK VINA RESULT:      -7.9      0.000      0.000
REMARK  Name = 
REMARK  15 active torsions:
REMARK  status: ('A' for Active; 'I' for Inactive)
REMARK    1  A    between atoms: C_1  and  O_2
REMARK    2  A    between atoms: O_2  and  C_3
REMARK    3  A    between atoms: C_6  and  N_7
REMARK    4  A    between atoms: C_8  and  C_10
REMARK    5  A    between atoms: C_10  and  O_11
REMARK    6  A    between atoms: O_11  and  C_12
REMARK    7  A    between atoms: C_12  and  C_14
REMARK    8  A    between atoms: C_15  and  C_16
REMARK    9  A    between atoms: C_18  and  O_19
REMARK   10  A    between atoms: O_19  and  C_20
REMARK   11  A    between atoms: C_21  and  O_22
REMARK   12  A    between atoms: O_22  and  C_23
REMARK   13  A    between atoms: C_23  and  C_24
REMARK   14  A    between atoms: C_30  and  O_31
REMARK   15  A    between atoms: O_31  and  C_32
REMARK                            x       y       z     vdW  Elec       q    Type
REMARK                         _______ _______ _______ _____ _____    ______ ____
ROOT
ATOM      1  C   UNL     1       0.125   8.419  21.782  0.00  0.00    +0.000 C 
ATOM      2  C   UNL     1       1.361   7.993  21.481  0.00  0.00    +0.000 C 
ENDROOT
BRANCH   2   3
ATOM      3  C   UNL     1       1.656   6.887  20.554  0.00  0.00    +0.000 A 
ATOM      4  C   UNL     1       2.259   7.183  19.325  0.00  0.00    +0.000 A 
ATOM      5  C   UNL     1       2.571   6.171  18.401  0.00  0.00    +0.000 A 
ATOM      6  C   UNL     1       2.370   4.826  18.752  0.00  0.00    +0.000 A 
ATOM      7  C   UNL     1       1.708   4.522  19.972  0.00  0.00    +0.000 A 
ATOM      8  C   UNL     1       1.378   5.552  20.862  0.00  0.00    +0.000 A 
BRANCH   5   9
ATOM      9  O   UNL     1       3.126   6.658  17.243  0.00  0.00    +0.000 OA
ATOM     10  C   UNL     1       4.117   7.676  17.387  0.00  0.00    +0.000 C 
ENDBRANCH   5   9
BRANCH   7  11
ATOM     11  O   UNL     1       1.433   3.196  20.222  0.00  0.00    +0.000 OA
ATOM     12  C   UNL     1       1.693   2.702  21.537  0.00  0.00    +0.000 C 
ENDBRANCH   7  11
BRANCH   6  13
ATOM     13  O   UNL     1       2.757   3.744  18.000  0.00  0.00    +0.000 OA
BRANCH  13  14
ATOM     14  C   UNL     1       4.062   3.218  18.238  0.00  0.00    +0.000 C 
BRANCH  14  15
ATOM     15  C   UNL     1       5.203   4.034  17.704  0.00  0.00    +0.000 A 
ATOM     16  C   UNL     1       5.403   4.181  16.333  0.00  0.00    +0.000 A 
ATOM     17  C   UNL     1       6.401   5.037  15.871  0.00  0.00    +0.000 A 
ATOM     18  C   UNL     1       7.192   5.748  16.778  0.00  0.00    +0.000 A 
ATOM     19  C   UNL     1       7.000   5.603  18.146  0.00  0.00    +0.000 A 
ATOM     20  C   UNL     1       6.008   4.747  18.610  0.00  0.00    +0.000 A 
ENDBRANCH  14  15
ENDBRANCH  13  14
ENDBRANCH   6  13
ENDBRANCH   2   3
BRANCH   1  21
ATOM     21  C   UNL     1      -0.060   9.571  22.686  0.00  0.00    +0.000 C 
ATOM     22  O   UNL     1       0.472   9.708  23.772  0.00  0.00    +0.000 OA
BRANCH  21  23
ATOM     23  O   UNL     1      -0.893  10.441  22.067  0.00  0.00    +0.000 OA
BRANCH  23  24
ATOM     24  C   UNL     1      -0.275  11.347  21.149  0.00  0.00    +0.000 C 
BRANCH  24  26
ATOM     25  N   UNL     1      -1.866  11.161  19.307  0.00  0.00    +0.000 N 
ATOM     26  C   UNL     1      -0.553  10.975  19.692  0.00  0.00    +0.000 C 
ATOM     27  O   UNL     1       0.370  10.573  18.995  0.00  0.00    +0.000 OA
ATOM     28  H   UNL     1      -2.484  11.525  20.025  0.00  0.00    +0.000 HD
BRANCH  25  32
ATOM     29  C   UNL     1      -3.661  10.532  15.531  0.00  0.00    +0.000 A 
ATOM     30  C   UNL     1      -2.428   9.952  15.817  0.00  0.00    +0.000 A 
ATOM     31  C   UNL     1      -1.821  10.134  17.064  0.00  0.00    +0.000 A 
ATOM     32  C   UNL     1      -2.432  10.921  18.041  0.00  0.00    +0.000 A 
ATOM     33  C   UNL     1      -3.668  11.511  17.748  0.00  0.00    +0.000 A 
ATOM     34  C   UNL     1      -4.283  11.320  16.498  0.00  0.00    +0.000 A 
BRANCH  29  36
ATOM     35  C   UNL     1      -3.202   9.732  13.353  0.00  0.00    +0.000 C 
ATOM     36  O   UNL     1      -4.131  10.290  14.273  0.00  0.00    +0.000 OA
ENDBRANCH  29  36
ENDBRANCH  25  32
ENDBRANCH  24  26
ENDBRANCH  23  24
ENDBRANCH  21  23
ENDBRANCH   1  21
TORSDOF 12
ENDMDL
MODEL 2
REMARK VINA RESULT:      -7.8      2.544      8.750
REMARK  Name = 
REMARK  15 active torsions:
REMARK  status: ('A' for Active; 'I' for Inactive)
REMARK    1  A    between atoms: C_1  and  O_2
REMARK    2  A    between atoms: O_2  and  C_3
REMARK    3  A    between atoms: C_6  and  N_7
REMARK    4  A    between atoms: C_8  and  C_10
REMARK    5  A    between atoms: C_10  and  O_11
REMARK    6  A    between atoms: O_11  and  C_12
REMARK    7  A    between atoms: C_12  and  C_14
REMARK    8  A    between atoms: C_15  and  C_16
REMARK    9  A    between atoms: C_18  and  O_19
REMARK   10  A    between atoms: O_19  and  C_20
REMARK   11  A    between atoms: C_21  and  O_22
REMARK   12  A    between atoms: O_22  and  C_23
REMARK   13  A    between atoms: C_23  and  C_24
REMARK   14  A    between atoms: C_30  and  O_31
REMARK   15  A    between atoms: O_31  and  C_32
REMARK                            x       y       z     vdW  Elec       q    Type
REMARK                         _______ _______ _______ _____ _____    ______ ____
ROOT
ATOM      1  C   UNL     1       2.148   4.252  20.339  0.00  0.00    +0.000 C 
ATOM      2  C   UNL     1       1.996   5.326  21.130  0.00  0.00    +0.000 C 
ENDROOT
BRANCH   2   3
ATOM      3  C   UNL     1       1.767   6.694  20.638  0.00  0.00    +0.000 A 
ATOM      4  C   UNL     1       2.262   7.046  19.375  0.00  0.00    +0.000 A 
ATOM      5  C   UNL     1       2.071   8.335  18.848  0.00  0.00    +0.000 A 
ATOM      6  C   UNL     1       1.281   9.261  19.549  0.00  0.00    +0.000 A 
ATOM      7  C   UNL     1       0.823   8.930  20.853  0.00  0.00    +0.000 A 
ATOM      8  C   UNL     1       1.055   7.649  21.370  0.00  0.00    +0.000 A 
BRANCH   5   9
ATOM      9  O   UNL     1       2.656   8.500  17.616  0.00  0.00    +0.000 OA
ATOM     10  C   UNL     1       3.686   7.573  17.268  0.00  0.00    +0.000 C 
ENDBRANCH   5   9
BRANCH   7  11
ATOM     11  O   UNL     1       0.149   9.909  21.547  0.00  0.00    +0.000 OA
ATOM     12  C   UNL     1      -0.665   9.501  22.648  0.00  0.00    +0.000 C 
ENDBRANCH   7  11
BRANCH   6  13
ATOM     13  O   UNL     1       0.907  10.497  19.082  0.00  0.00    +0.000 OA
BRANCH  13  14
ATOM     14  C   UNL     1       0.136  10.534  17.882  0.00  0.00    +0.000 C 
BRANCH  14  15
ATOM     15  C   UNL     1      -1.342  10.719  18.060  0.00  0.00    +0.000 A 
ATOM     16  C   UNL     1      -1.848  11.666  18.949  0.00  0.00    +0.000 A 
ATOM     17  C   UNL     1      -3.221  11.892  19.006  0.00  0.00    +0.000 A 
ATOM     18  C   UNL     1      -4.087  11.178  18.173  0.00  0.00    +0.000 A 
ATOM     19  C   UNL     1      -3.590  10.230  17.287  0.00  0.00    +0.000 A 
ATOM     20  C   UNL     1      -2.220   9.999  17.230  0.00  0.00    +0.000 A 
ENDBRANCH  14  15
ENDBRANCH  13  14
ENDBRANCH   6  13
ENDBRANCH   2   3
BRANCH   1  21
ATOM     21  C   UNL     1       2.323   2.914  20.935  0.00  0.00    +0.000 C 
ATOM     22  O   UNL     1       1.907   2.567  22.026  0.00  0.00    +0.000 OA
BRANCH  21  23
ATOM     23  O   UNL     1       2.993   2.154  20.035  0.00  0.00    +0.000 OA
BRANCH  23  24
ATOM     24  C   UNL     1       2.356   1.991  18.765  0.00  0.00    +0.000 C 
BRANCH  24  26
ATOM     25  N   UNL     1       4.352   2.846  17.648  0.00  0.00    +0.000 N 
ATOM     26  C   UNL     1       2.971   2.886  17.689  0.00  0.00    +0.000 C 
ATOM     27  O   UNL     1       2.231   3.534  16.959  0.00  0.00    +0.000 OA
ATOM     28  H   UNL     1       4.790   2.230  18.325  0.00  0.00    +0.000 HD
BRANCH  25  32
ATOM     29  C   UNL     1       6.975   5.002  15.129  0.00  0.00    +0.000 A 
ATOM     30  C   UNL     1       6.174   3.995  14.596  0.00  0.00    +0.000 A 
ATOM     31  C   UNL     1       5.288   3.278  15.407  0.00  0.00    +0.000 A 
ATOM     32  C   UNL     1       5.206   3.544  16.774  0.00  0.00    +0.000 A 
ATOM     33  C   UNL     1       6.019   4.551  17.310  0.00  0.00    +0.000 A 
ATOM     34  C   UNL     1       6.902   5.279  16.493  0.00  0.00    +0.000 A 
BRANCH  29  36
ATOM     35  C   UNL     1       7.827   5.056  12.924  0.00  0.00    +0.000 C 
ATOM     36  O   UNL     1       7.806   5.609  14.233  0.00  0.00    +0.000 OA
ENDBRANCH  29  36
ENDBRANCH  25  32
ENDBRANCH  24  26
ENDBRANCH  23  24
ENDBRANCH  21  23
ENDBRANCH   1  21
TORSDOF 12
ENDMDL
MODEL 3
REMARK VINA RESULT:      -7.7      3.010      5.717
REMARK  Name = 
REMARK  15 active torsions:
REMARK  status: ('A' for Active; 'I' for Inactive)
REMARK    1  A    between atoms: C_1  and  O_2
REMARK    2  A    between atoms: O_2  and  C_3
REMARK    3  A    between atoms: C_6  and  N_7
REMARK    4  A    between atoms: C_8  and  C_10
REMARK    5  A    between atoms: C_10  and  O_11
REMARK    6  A    between atoms: O_11  and  C_12
REMARK    7  A    between atoms: C_12  and  C_14
REMARK    8  A    between atoms: C_15  and  C_16
REMARK    9  A    between atoms: C_18  and  O_19
REMARK   10  A    between atoms: O_19  and  C_20
REMARK   11  A    between atoms: C_21  and  O_22
REMARK   12  A    between atoms: O_22  and  C_23
REMARK   13  A    between atoms: C_23  and  C_24
REMARK   14  A    between atoms: C_30  and  O_31
REMARK   15  A    between atoms: O_31  and  C_32
REMARK                            x       y       z     vdW  Elec       q    Type
REMARK                         _______ _______ _______ _____ _____    ______ ____
ROOT
ATOM      1  C   UNL     1       1.396   8.778  19.038  0.00  0.00    +0.000 C 
ATOM      2  C   UNL     1       2.352   8.796  18.096  0.00  0.00    +0.000 C 
ENDROOT
BRANCH   2   3
ATOM      3  C   UNL     1       3.260   7.672  17.811  0.00  0.00    +0.000 A 
ATOM      4  C   UNL     1       2.768   6.365  17.930  0.00  0.00    +0.000 A 
ATOM      5  C   UNL     1       3.583   5.251  17.665  0.00  0.00    +0.000 A 
ATOM      6  C   UNL     1       4.884   5.444  17.175  0.00  0.00    +0.000 A 
ATOM      7  C   UNL     1       5.407   6.764  17.106  0.00  0.00    +0.000 A 
ATOM      8  C   UNL     1       4.584   7.857  17.406  0.00  0.00    +0.000 A 
BRANCH   5   9
ATOM      9  O   UNL     1       2.935   4.056  17.868  0.00  0.00    +0.000 OA
ATOM     10  C   UNL     1       1.521   4.119  18.058  0.00  0.00    +0.000 C 
ENDBRANCH   5   9
BRANCH   7  11
ATOM     11  O   UNL     1       6.724   6.897  16.725  0.00  0.00    +0.000 OA
ATOM     12  C   UNL     1       7.549   7.777  17.490  0.00  0.00    +0.000 C 
ENDBRANCH   7  11
BRANCH   6  13
ATOM     13  O   UNL     1       5.728   4.447  16.751  0.00  0.00    +0.000 OA
BRANCH  13  14
ATOM     14  C   UNL     1       5.318   3.687  15.615  0.00  0.00    +0.000 C 
BRANCH  14  15
ATOM     15  C   UNL     1       6.089   3.935  14.351  0.00  0.00    +0.000 A 
ATOM     16  C   UNL     1       5.712   3.340  13.149  0.00  0.00    +0.000 A 
ATOM     17  C   UNL     1       6.378   3.681  11.974  0.00  0.00    +0.000 A 
ATOM     18  C   UNL     1       7.415   4.618  12.000  0.00  0.00    +0.000 A 
ATOM     19  C   UNL     1       7.798   5.212  13.196  0.00  0.00    +0.000 A 
ATOM     20  C   UNL     1       7.139   4.871  14.371  0.00  0.00    +0.000 A 
ENDBRANCH  14  15
ENDBRANCH  13  14
ENDBRANCH   6  13
ENDBRANCH   2   3
BRANCH   1  21
ATOM     21  C   UNL     1       0.505   9.942  19.209  0.00  0.00    +0.000 C 
ATOM     22  O   UNL     1       0.557  10.972  18.562  0.00  0.00    +0.000 OA
BRANCH  21  23
ATOM     23  O   UNL     1      -0.383   9.631  20.184  0.00  0.00    +0.000 OA
BRANCH  23  24
ATOM     24  C   UNL     1       0.181   9.299  21.455  0.00  0.00    +0.000 C 
BRANCH  24  26
ATOM     25  N   UNL     1      -1.089  11.277  22.116  0.00  0.00    +0.000 N 
ATOM     26  C   UNL     1      -0.294  10.239  22.564  0.00  0.00    +0.000 C 
ATOM     27  O   UNL     1       0.035  10.009  23.720  0.00  0.00    +0.000 OA
ATOM     28  H   UNL     1      -1.269  11.289  21.117  0.00  0.00    +0.000 HD
BRANCH  25  32
ATOM     29  C   UNL     1      -2.978  14.254  24.450  0.00  0.00    +0.000 A 
ATOM     30  C   UNL     1      -1.681  14.457  23.984  0.00  0.00    +0.000 A 
ATOM     31  C   UNL     1      -1.041  13.493  23.198  0.00  0.00    +0.000 A 
ATOM     32  C   UNL     1      -1.684  12.296  22.883  0.00  0.00    +0.000 A 
ATOM     33  C   UNL     1      -2.984  12.088  23.361  0.00  0.00    +0.000 A 
ATOM     34  C   UNL     1      -3.632  13.061  24.142  0.00  0.00    +0.000 A 
BRANCH  29  36
ATOM     35  C   UNL     1      -3.959  16.404  24.522  0.00  0.00    +0.000 C 
ATOM     36  O   UNL     1      -3.476  15.264  25.219  0.00  0.00    +0.000 OA
ENDBRANCH  29  36
ENDBRANCH  25  32
ENDBRANCH  24  26
ENDBRANCH  23  24
ENDBRANCH  21  23
ENDBRANCH   1  21
TORSDOF 12
ENDMDL
MODEL 4
REMARK VINA RESULT:      -7.5      2.936      5.342
REMARK  Name = 
REMARK  15 active torsions:
REMARK  status: ('A' for Active; 'I' for Inactive)
REMARK    1  A    between atoms: C_1  and  O_2
REMARK    2  A    between atoms: O_2  and  C_3
REMARK    3  A    between atoms: C_6  and  N_7
REMARK    4  A    between atoms: C_8  and  C_10
REMARK    5  A    between atoms: C_10  and  O_11
REMARK    6  A    between atoms: O_11  and  C_12
REMARK    7  A    between atoms: C_12  and  C_14
REMARK    8  A    between atoms: C_15  and  C_16
REMARK    9  A    between atoms: C_18  and  O_19
REMARK   10  A    between atoms: O_19  and  C_20
REMARK   11  A    between atoms: C_21  and  O_22
REMARK   12  A    between atoms: O_22  and  C_23
REMARK   13  A    between atoms: C_23  and  C_24
REMARK   14  A    between atoms: C_30  and  O_31
REMARK   15  A    between atoms: O_31  and  C_32
REMARK                            x       y       z     vdW  Elec       q    Type
REMARK                         _______ _______ _______ _____ _____    ______ ____
ROOT
ATOM      1  C   UNL     1       1.213   9.001  18.282  0.00  0.00    +0.000 C 
ATOM      2  C   UNL     1       1.996   8.108  18.907  0.00  0.00    +0.000 C 
ENDROOT
BRANCH   2   3
ATOM      3  C   UNL     1       2.760   7.051  18.223  0.00  0.00    +0.000 A 
ATOM      4  C   UNL     1       3.993   7.379  17.645  0.00  0.00    +0.000 A 
ATOM      5  C   UNL     1       4.771   6.413  16.984  0.00  0.00    +0.000 A 
ATOM      6  C   UNL     1       4.360   5.071  16.988  0.00  0.00    +0.000 A 
ATOM      7  C   UNL     1       3.085   4.740  17.522  0.00  0.00    +0.000 A 
ATOM      8  C   UNL     1       2.314   5.728  18.148  0.00  0.00    +0.000 A 
BRANCH   5   9
ATOM      9  O   UNL     1       5.928   6.931  16.455  0.00  0.00    +0.000 OA
ATOM     10  C   UNL     1       6.894   7.422  17.387  0.00  0.00    +0.000 C 
ENDBRANCH   5   9
BRANCH   7  11
ATOM     11  O   UNL     1       2.676   3.431  17.404  0.00  0.00    +0.000 OA
ATOM     12  C   UNL     1       1.792   2.919  18.402  0.00  0.00    +0.000 C 
ENDBRANCH   7  11
BRANCH   6  13
ATOM     13  O   UNL     1       5.092   4.016  16.500  0.00  0.00    +0.000 OA
BRANCH  13  14
ATOM     14  C   UNL     1       6.429   4.289  16.083  0.00  0.00    +0.000 C 
BRANCH  14  15
ATOM     15  C   UNL     1       6.675   4.238  14.603  0.00  0.00    +0.000 A 
ATOM     16  C   UNL     1       5.916   3.415  13.774  0.00  0.00    +0.000 A 
ATOM     17  C   UNL     1       6.092   3.477  12.394  0.00  0.00    +0.000 A 
ATOM     18  C   UNL     1       7.021   4.365  11.843  0.00  0.00    +0.000 A 
ATOM     19  C   UNL     1       7.784   5.186  12.664  0.00  0.00    +0.000 A 
ATOM     20  C   UNL     1       7.614   5.123  14.042  0.00  0.00    +0.000 A 
ENDBRANCH  14  15
ENDBRANCH  13  14
ENDBRANCH   6  13
ENDBRANCH   2   3
BRANCH   1  21
ATOM     21  C   UNL     1       0.529  10.054  19.058  0.00  0.00    +0.000 C 
ATOM     22  O   UNL     1      -0.288  10.839  18.615  0.00  0.00    +0.000 OA
BRANCH  21  23
ATOM     23  O   UNL     1       0.955   9.952  20.340  0.00  0.00    +0.000 OA
BRANCH  23  24
ATOM     24  C   UNL     1       0.040   9.342  21.253  0.00  0.00    +0.000 C 
BRANCH  24  26
ATOM     25  N   UNL     1      -1.171  11.315  22.028  0.00  0.00    +0.000 N 
ATOM     26  C   UNL     1      -0.343  10.275  22.402  0.00  0.00    +0.000 C 
ATOM     27  O   UNL     1       0.080  10.038  23.527  0.00  0.00    +0.000 OA
ATOM     28  H   UNL     1      -1.432  11.333  21.047  0.00  0.00    +0.000 HD
BRANCH  25  32
ATOM     29  C   UNL     1      -2.865  14.280  24.521  0.00  0.00    +0.000 A 
ATOM     30  C   UNL     1      -1.589  14.462  23.996  0.00  0.00    +0.000 A 
ATOM     31  C   UNL     1      -1.013  13.503  23.157  0.00  0.00    +0.000 A 
ATOM     32  C   UNL     1      -1.701  12.329  22.847  0.00  0.00    +0.000 A 
ATOM     33  C   UNL     1      -2.981  12.142  23.384  0.00  0.00    +0.000 A 
ATOM     34  C   UNL     1      -3.564  13.111  24.219  0.00  0.00    +0.000 A 
BRANCH  29  36
ATOM     35  C   UNL     1      -3.809  16.441  24.692  0.00  0.00    +0.000 C 
ATOM     36  O   UNL     1      -3.300  15.282  25.338  0.00  0.00    +0.000 OA
ENDBRANCH  29  36
ENDBRANCH  25  32
ENDBRANCH  24  26
ENDBRANCH  23  24
ENDBRANCH  21  23
ENDBRANCH   1  21
TORSDOF 12
ENDMDL
MODEL 5
REMARK VINA RESULT:      -7.4      2.509      8.778
REMARK  Name = 
REMARK  15 active torsions:
REMARK  status: ('A' for Active; 'I' for Inactive)
REMARK    1  A    between atoms: C_1  and  O_2
REMARK    2  A    between atoms: O_2  and  C_3
REMARK    3  A    between atoms: C_6  and  N_7
REMARK    4  A    between atoms: C_8  and  C_10
REMARK    5  A    between atoms: C_10  and  O_11
REMARK    6  A    between atoms: O_11  and  C_12
REMARK    7  A    between atoms: C_12  and  C_14
REMARK    8  A    between atoms: C_15  and  C_16
REMARK    9  A    between atoms: C_18  and  O_19
REMARK   10  A    between atoms: O_19  and  C_20
REMARK   11  A    between atoms: C_21  and  O_22
REMARK   12  A    between atoms: O_22  and  C_23
REMARK   13  A    between atoms: C_23  and  C_24
REMARK   14  A    between atoms: C_30  and  O_31
REMARK   15  A    between atoms: O_31  and  C_32
REMARK                            x       y       z     vdW  Elec       q    Type
REMARK                         _______ _______ _______ _____ _____    ______ ____
ROOT
ATOM      1  C   UNL     1       1.098   4.933  20.598  0.00  0.00    +0.000 C 
ATOM      2  C   UNL     1       2.005   5.922  20.562  0.00  0.00    +0.000 C 
ENDROOT
BRANCH   2   3
ATOM      3  C   UNL     1       1.674   7.347  20.393  0.00  0.00    +0.000 A 
ATOM      4  C   UNL     1       1.899   7.945  19.145  0.00  0.00    +0.000 A 
ATOM      5  C   UNL     1       1.597   9.299  18.919  0.00  0.00    +0.000 A 
ATOM      6  C   UNL     1       0.965  10.046  19.926  0.00  0.00    +0.000 A 
ATOM      7  C   UNL     1       0.786   9.463  21.210  0.00  0.00    +0.000 A 
ATOM      8  C   UNL     1       1.124   8.120  21.419  0.00  0.00    +0.000 A 
BRANCH   5   9
ATOM      9  O   UNL     1       1.916   9.712  17.649  0.00  0.00    +0.000 OA
ATOM     10  C   UNL     1       2.653  10.931  17.539  0.00  0.00    +0.000 C 
ENDBRANCH   5   9
BRANCH   7  11
ATOM     11  O   UNL     1       0.264  10.269  22.196  0.00  0.00    +0.000 OA
ATOM     12  C   UNL     1      -0.499   9.642  23.229  0.00  0.00    +0.000 C 
ENDBRANCH   7  11
BRANCH   6  13
ATOM     13  O   UNL     1       0.497  11.330  19.785  0.00  0.00    +0.000 OA
BRANCH  13  14
ATOM     14  C   UNL     1      -0.894  11.545  20.019  0.00  0.00    +0.000 C 
BRANCH  14  15
ATOM     15  C   UNL     1      -1.813  11.145  18.901  0.00  0.00    +0.000 A 
ATOM     16  C   UNL     1      -3.054  11.757  18.735  0.00  0.00    +0.000 A 
ATOM     17  C   UNL     1      -3.833  11.444  17.623  0.00  0.00    +0.000 A 
ATOM     18  C   UNL     1      -3.369  10.526  16.676  0.00  0.00    +0.000 A 
ATOM     19  C   UNL     1      -2.134   9.910  16.837  0.00  0.00    +0.000 A 
ATOM     20  C   UNL     1      -1.357  10.217  17.948  0.00  0.00    +0.000 A 
ENDBRANCH  14  15
ENDBRANCH  13  14
ENDBRANCH   6  13
ENDBRANCH   2   3
BRANCH   1  21
ATOM     21  C   UNL     1       1.532   3.541  20.824  0.00  0.00    +0.000 C 
ATOM     22  O   UNL     1       1.840   3.063  21.900  0.00  0.00    +0.000 OA
BRANCH  21  23
ATOM     23  O   UNL     1       1.489   2.905  19.627  0.00  0.00    +0.000 OA
BRANCH  23  24
ATOM     24  C   UNL     1       2.739   2.410  19.142  0.00  0.00    +0.000 C 
BRANCH  24  26
ATOM     25  N   UNL     1       4.669   3.059  17.795  0.00  0.00    +0.000 N 
ATOM     26  C   UNL     1       3.334   3.305  18.054  0.00  0.00    +0.000 C 
ATOM     27  O   UNL     1       2.616   4.129  17.503  0.00  0.00    +0.000 OA
ATOM     28  H   UNL     1       5.090   2.317  18.345  0.00  0.00    +0.000 HD
BRANCH  25  32
ATOM     29  C   UNL     1       7.078   4.931  14.868  0.00  0.00    +0.000 A 
ATOM     30  C   UNL     1       7.172   5.327  16.200  0.00  0.00    +0.000 A 
ATOM     31  C   UNL     1       6.397   4.712  17.188  0.00  0.00    +0.000 A 
ATOM     32  C   UNL     1       5.493   3.703  16.854  0.00  0.00    +0.000 A 
ATOM     33  C   UNL     1       5.392   3.313  15.512  0.00  0.00    +0.000 A 
ATOM     34  C   UNL     1       6.180   3.923  14.520  0.00  0.00    +0.000 A 
BRANCH  29  36
ATOM     35  C   UNL     1       7.863   5.188  12.653  0.00  0.00    +0.000 C 
ATOM     36  O   UNL     1       7.876   5.625  14.005  0.00  0.00    +0.000 OA
ENDBRANCH  29  36
ENDBRANCH  25  32
ENDBRANCH  24  26
ENDBRANCH  23  24
ENDBRANCH  21  23
ENDBRANCH   1  21
TORSDOF 12
ENDMDL
MODEL 6
REMARK VINA RESULT:      -7.3      6.815     10.704
REMARK  Name = 
REMARK  15 active torsions:
REMARK  status: ('A' for Active; 'I' for Inactive)
REMARK    1  A    between atoms: C_1  and  O_2
REMARK    2  A    between atoms: O_2  and  C_3
REMARK    3  A    between atoms: C_6  and  N_7
REMARK    4  A    between atoms: C_8  and  C_10
REMARK    5  A    between atoms: C_10  and  O_11
REMARK    6  A    between atoms: O_11  and  C_12
REMARK    7  A    between atoms: C_12  and  C_14
REMARK    8  A    between atoms: C_15  and  C_16
REMARK    9  A    between atoms: C_18  and  O_19
REMARK   10  A    between atoms: O_19  and  C_20
REMARK   11  A    between atoms: C_21  and  O_22
REMARK   12  A    between atoms: O_22  and  C_23
REMARK   13  A    between atoms: C_23  and  C_24
REMARK   14  A    between atoms: C_30  and  O_31
REMARK   15  A    between atoms: O_31  and  C_32
REMARK                            x       y       z     vdW  Elec       q    Type
REMARK                         _______ _______ _______ _____ _____    ______ ____
ROOT
ATOM      1  C   UNL     1       8.507   9.172  18.184  0.00  0.00    +0.000 C 
ATOM      2  C   UNL     1       9.256   9.491  19.252  0.00  0.00    +0.000 C 
ENDROOT
BRANCH   2   3
ATOM      3  C   UNL     1       9.732  10.850  19.556  0.00  0.00    +0.000 A 
ATOM      4  C   UNL     1      10.602  11.476  18.654  0.00  0.00    +0.000 A 
ATOM      5  C   UNL     1      11.085  12.775  18.885  0.00  0.00    +0.000 A 
ATOM      6  C   UNL     1      10.612  13.505  19.987  0.00  0.00    +0.000 A 
ATOM      7  C   UNL     1       9.775  12.858  20.936  0.00  0.00    +0.000 A 
ATOM      8  C   UNL     1       9.332  11.551  20.698  0.00  0.00    +0.000 A 
BRANCH   5   9
ATOM      9  O   UNL     1      11.951  13.204  17.908  0.00  0.00    +0.000 OA
ATOM     10  C   UNL     1      11.370  13.579  16.658  0.00  0.00    +0.000 C 
ENDBRANCH   5   9
BRANCH   7  11
ATOM     11  O   UNL     1       9.426  13.577  22.057  0.00  0.00    +0.000 OA
ATOM     12  C   UNL     1       8.176  13.272  22.678  0.00  0.00    +0.000 C 
ENDBRANCH   7  11
BRANCH   6  13
ATOM     13  O   UNL     1      10.899  14.822  20.248  0.00  0.00    +0.000 OA
BRANCH  13  14
ATOM     14  C   UNL     1      10.264  15.802  19.427  0.00  0.00    +0.000 C 
BRANCH  14  15
ATOM     15  C   UNL     1       8.777  15.659  19.273  0.00  0.00    +0.000 A 
ATOM     16  C   UNL     1       7.902  16.144  20.242  0.00  0.00    +0.000 A 
ATOM     17  C   UNL     1       6.529  16.098  20.015  0.00  0.00    +0.000 A 
ATOM     18  C   UNL     1       6.031  15.575  18.818  0.00  0.00    +0.000 A 
ATOM     19  C   UNL     1       6.898  15.086  17.848  0.00  0.00    +0.000 A 
ATOM     20  C   UNL     1       8.269  15.126  18.074  0.00  0.00    +0.000 A 
ENDBRANCH  14  15
ENDBRANCH  13  14
ENDBRANCH   6  13
ENDBRANCH   2   3
BRANCH   1  21
ATOM     21  C   UNL     1       8.039   7.785  17.998  0.00  0.00    +0.000 C 
ATOM     22  O   UNL     1       8.126   6.893  18.823  0.00  0.00    +0.000 OA
BRANCH  21  23
ATOM     23  O   UNL     1       7.476   7.710  16.768  0.00  0.00    +0.000 OA
BRANCH  23  24
ATOM     24  C   UNL     1       7.257   6.390  16.264  0.00  0.00    +0.000 C 
BRANCH  24  26
ATOM     25  N   UNL     1       5.897   4.854  17.588  0.00  0.00    +0.000 N 
ATOM     26  C   UNL     1       5.874   5.851  16.631  0.00  0.00    +0.000 C 
ATOM     27  O   UNL     1       4.886   6.329  16.089  0.00  0.00    +0.000 OA
ATOM     28  H   UNL     1       6.817   4.605  17.936  0.00  0.00    +0.000 HD
BRANCH  25  32
ATOM     29  C   UNL     1       2.598   2.709  19.134  0.00  0.00    +0.000 A 
ATOM     30  C   UNL     1       3.248   3.648  19.930  0.00  0.00    +0.000 A 
ATOM     31  C   UNL     1       4.333   4.381  19.436  0.00  0.00    +0.000 A 
ATOM     32  C   UNL     1       4.799   4.167  18.139  0.00  0.00    +0.000 A 
ATOM     33  C   UNL     1       4.151   3.215  17.342  0.00  0.00    +0.000 A 
ATOM     34  C   UNL     1       3.054   2.485  17.835  0.00  0.00    +0.000 A 
BRANCH  29  36
ATOM     35  C   UNL     1       0.531   2.867  20.270  0.00  0.00    +0.000 C 
ATOM     36  O   UNL     1       1.570   2.052  19.744  0.00  0.00    +0.000 OA
ENDBRANCH  29  36
ENDBRANCH  25  32
ENDBRANCH  24  26
ENDBRANCH  23  24
ENDBRANCH  21  23
ENDBRANCH   1  21
TORSDOF 12
ENDMDL
MODEL 7
REMARK VINA RESULT:      -7.3      3.546      5.641
REMARK  Name = 
REMARK  15 active torsions:
REMARK  status: ('A' for Active; 'I' for Inactive)
REMARK    1  A    between atoms: C_1  and  O_2
REMARK    2  A    between atoms: O_2  and  C_3
REMARK    3  A    between atoms: C_6  and  N_7
REMARK    4  A    between atoms: C_8  and  C_10
REMARK    5  A    between atoms: C_10  and  O_11
REMARK    6  A    between atoms: O_11  and  C_12
REMARK    7  A    between atoms: C_12  and  C_14
REMARK    8  A    between atoms: C_15  and  C_16
REMARK    9  A    between atoms: C_18  and  O_19
REMARK   10  A    between atoms: O_19  and  C_20
REMARK   11  A    between atoms: C_21  and  O_22
REMARK   12  A    between atoms: O_22  and  C_23
REMARK   13  A    between atoms: C_23  and  C_24
REMARK   14  A    between atoms: C_30  and  O_31
REMARK   15  A    between atoms: O_31  and  C_32
REMARK                            x       y       z     vdW  Elec       q    Type
REMARK                         _______ _______ _______ _____ _____    ______ ____
ROOT
ATOM      1  C   UNL     1       1.649   7.730  20.649  0.00  0.00    +0.000 C 
ATOM      2  C   UNL     1       2.019   7.819  19.362  0.00  0.00    +0.000 C 
ENDROOT
BRANCH   2   3
ATOM      3  C   UNL     1       3.021   6.949  18.723  0.00  0.00    +0.000 A 
ATOM      4  C   UNL     1       2.880   5.560  18.844  0.00  0.00    +0.000 A 
ATOM      5  C   UNL     1       3.799   4.678  18.252  0.00  0.00    +0.000 A 
ATOM      6  C   UNL     1       4.823   5.187  17.437  0.00  0.00    +0.000 A 
ATOM      7  C   UNL     1       5.006   6.594  17.356  0.00  0.00    +0.000 A 
ATOM      8  C   UNL     1       4.094   7.453  17.982  0.00  0.00    +0.000 A 
BRANCH   5   9
ATOM      9  O   UNL     1       3.514   3.359  18.507  0.00  0.00    +0.000 OA
ATOM     10  C   UNL     1       4.250   2.738  19.563  0.00  0.00    +0.000 C 
ENDBRANCH   5   9
BRANCH   7  11
ATOM     11  O   UNL     1       6.089   7.045  16.636  0.00  0.00    +0.000 OA
ATOM     12  C   UNL     1       7.290   7.332  17.355  0.00  0.00    +0.000 C 
ENDBRANCH   7  11
BRANCH   6  13
ATOM     13  O   UNL     1       5.697   4.430  16.696  0.00  0.00    +0.000 OA
BRANCH  13  14
ATOM     14  C   UNL     1       5.188   3.821  15.511  0.00  0.00    +0.000 C 
BRANCH  14  15
ATOM     15  C   UNL     1       6.017   4.008  14.273  0.00  0.00    +0.000 A 
ATOM     16  C   UNL     1       5.675   3.383  13.075  0.00  0.00    +0.000 A 
ATOM     17  C   UNL     1       6.398   3.668  11.919  0.00  0.00    +0.000 A 
ATOM     18  C   UNL     1       7.455   4.581  11.959  0.00  0.00    +0.000 A 
ATOM     19  C   UNL     1       7.804   5.206  13.150  0.00  0.00    +0.000 A 
ATOM     20  C   UNL     1       7.087   4.920  14.307  0.00  0.00    +0.000 A 
ENDBRANCH  14  15
ENDBRANCH  13  14
ENDBRANCH   6  13
ENDBRANCH   2   3
BRANCH   1  21
ATOM     21  C   UNL     1       0.597   8.619  21.178  0.00  0.00    +0.000 C 
ATOM     22  O   UNL     1      -0.498   8.262  21.571  0.00  0.00    +0.000 OA
BRANCH  21  23
ATOM     23  O   UNL     1       1.094   9.880  21.173  0.00  0.00    +0.000 OA
BRANCH  23  24
ATOM     24  C   UNL     1       0.133  10.925  21.000  0.00  0.00    +0.000 C 
BRANCH  24  26
ATOM     25  N   UNL     1       1.677  12.480  19.925  0.00  0.00    +0.000 N 
ATOM     26  C   UNL     1       0.782  12.309  20.963  0.00  0.00    +0.000 C 
ATOM     27  O   UNL     1       0.466  13.137  21.808  0.00  0.00    +0.000 OA
ATOM     28  H   UNL     1       1.792  11.680  19.311  0.00  0.00    +0.000 HD
BRANCH  25  32
ATOM     29  C   UNL     1       3.841  15.964  18.895  0.00  0.00    +0.000 A 
ATOM     30  C   UNL     1       4.110  15.310  20.094  0.00  0.00    +0.000 A 
ATOM     31  C   UNL     1       3.418  14.148  20.450  0.00  0.00    +0.000 A 
ATOM     32  C   UNL     1       2.425  13.632  19.617  0.00  0.00    +0.000 A 
ATOM     33  C   UNL     1       2.148  14.297  18.415  0.00  0.00    +0.000 A 
ATOM     34  C   UNL     1       2.851  15.459  18.052  0.00  0.00    +0.000 A 
BRANCH  29  36
ATOM     35  C   UNL     1       5.927  17.056  19.113  0.00  0.00    +0.000 C 
ATOM     36  O   UNL     1       4.574  17.094  18.680  0.00  0.00    +0.000 OA
ENDBRANCH  29  36
ENDBRANCH  25  32
ENDBRANCH  24  26
ENDBRANCH  23  24
ENDBRANCH  21  23
ENDBRANCH   1  21
TORSDOF 12
ENDMDL
MODEL 8
REMARK VINA RESULT:      -7.2      2.945      4.337
REMARK  Name = 
REMARK  15 active torsions:
REMARK  status: ('A' for Active; 'I' for Inactive)
REMARK    1  A    between atoms: C_1  and  O_2
REMARK    2  A    between atoms: O_2  and  C_3
REMARK    3  A    between atoms: C_6  and  N_7
REMARK    4  A    between atoms: C_8  and  C_10
REMARK    5  A    between atoms: C_10  and  O_11
REMARK    6  A    between atoms: O_11  and  C_12
REMARK    7  A    between atoms: C_12  and  C_14
REMARK    8  A    between atoms: C_15  and  C_16
REMARK    9  A    between atoms: C_18  and  O_19
REMARK   10  A    between atoms: O_19  and  C_20
REMARK   11  A    between atoms: C_21  and  O_22
REMARK   12  A    between atoms: O_22  and  C_23
REMARK   13  A    between atoms: C_23  and  C_24
REMARK   14  A    between atoms: C_30  and  O_31
REMARK   15  A    between atoms: O_31  and  C_32
REMARK                            x       y       z     vdW  Elec       q    Type
REMARK                         _______ _______ _______ _____ _____    ______ ____
ROOT
ATOM      1  C   UNL     1       1.093   9.024  21.408  0.00  0.00    +0.000 C 
ATOM      2  C   UNL     1       0.867   7.702  21.465  0.00  0.00    +0.000 C 
ENDROOT
BRANCH   2   3
ATOM      3  C   UNL     1       1.600   6.699  20.674  0.00  0.00    +0.000 A 
ATOM      4  C   UNL     1       2.299   7.121  19.536  0.00  0.00    +0.000 A 
ATOM      5  C   UNL     1       3.022   6.213  18.743  0.00  0.00    +0.000 A 
ATOM      6  C   UNL     1       3.134   4.874  19.151  0.00  0.00    +0.000 A 
ATOM      7  C   UNL     1       2.383   4.428  20.271  0.00  0.00    +0.000 A 
ATOM      8  C   UNL     1       1.644   5.347  21.026  0.00  0.00    +0.000 A 
BRANCH   5   9
ATOM      9  O   UNL     1       3.612   6.807  17.654  0.00  0.00    +0.000 OA
ATOM     10  C   UNL     1       3.213   8.148  17.362  0.00  0.00    +0.000 C 
ENDBRANCH   5   9
BRANCH   7  11
ATOM     11  O   UNL     1       2.437   3.084  20.567  0.00  0.00    +0.000 OA
ATOM     12  C   UNL     1       1.529   2.584  21.550  0.00  0.00    +0.000 C 
ENDBRANCH   7  11
BRANCH   6  13
ATOM     13  O   UNL     1       3.919   3.924  18.544  0.00  0.00    +0.000 OA
BRANCH  13  14
ATOM     14  C   UNL     1       5.312   4.208  18.427  0.00  0.00    +0.000 C 
BRANCH  14  15
ATOM     15  C   UNL     1       5.816   4.439  17.032  0.00  0.00    +0.000 A 
ATOM     16  C   UNL     1       7.122   4.867  16.799  0.00  0.00    +0.000 A 
ATOM     17  C   UNL     1       7.593   4.961  15.491  0.00  0.00    +0.000 A 
ATOM     18  C   UNL     1       6.762   4.623  14.419  0.00  0.00    +0.000 A 
ATOM     19  C   UNL     1       5.458   4.199  14.644  0.00  0.00    +0.000 A 
ATOM     20  C   UNL     1       4.984   4.109  15.947  0.00  0.00    +0.000 A 
ENDBRANCH  14  15
ENDBRANCH  13  14
ENDBRANCH   6  13
ENDBRANCH   2   3
BRANCH   1  21
ATOM     21  C   UNL     1       0.336   9.941  22.282  0.00  0.00    +0.000 C 
ATOM     22  O   UNL     1      -0.446   9.603  23.152  0.00  0.00    +0.000 OA
BRANCH  21  23
ATOM     23  O   UNL     1       0.702  11.204  21.955  0.00  0.00    +0.000 OA
BRANCH  23  24
ATOM     24  C   UNL     1       0.133  11.723  20.750  0.00  0.00    +0.000 C 
BRANCH  24  26
ATOM     25  N   UNL     1      -1.675  12.532  22.178  0.00  0.00    +0.000 N 
ATOM     26  C   UNL     1      -1.344  12.083  20.914  0.00  0.00    +0.000 C 
ATOM     27  O   UNL     1      -2.094  11.969  19.952  0.00  0.00    +0.000 OA
ATOM     28  H   UNL     1      -0.906  12.577  22.839  0.00  0.00    +0.000 HD
BRANCH  25  32
ATOM     29  C   UNL     1      -5.453  13.697  23.674  0.00  0.00    +0.000 A 
ATOM     30  C   UNL     1      -4.932  14.323  22.545  0.00  0.00    +0.000 A 
ATOM     31  C   UNL     1      -3.691  13.945  22.022  0.00  0.00    +0.000 A 
ATOM     32  C   UNL     1      -2.939  12.945  22.639  0.00  0.00    +0.000 A 
ATOM     33  C   UNL     1      -3.459  12.323  23.781  0.00  0.00    +0.000 A 
ATOM     34  C   UNL     1      -4.712  12.696  24.300  0.00  0.00    +0.000 A 
BRANCH  29  36
ATOM     35  C   UNL     1      -7.769  13.297  23.933  0.00  0.00    +0.000 C 
ATOM     36  O   UNL     1      -6.662  14.174  24.089  0.00  0.00    +0.000 OA
ENDBRANCH  29  36
ENDBRANCH  25  32
ENDBRANCH  24  26
ENDBRANCH  23  24
ENDBRANCH  21  23
ENDBRANCH   1  21
TORSDOF 12
ENDMDL
MODEL 9
REMARK VINA RESULT:      -7.1      3.054      8.860
REMARK  Name = 
REMARK  15 active torsions:
REMARK  status: ('A' for Active; 'I' for Inactive)
REMARK    1  A    between atoms: C_1  and  O_2
REMARK    2  A    between atoms: O_2  and  C_3
REMARK    3  A    between atoms: C_6  and  N_7
REMARK    4  A    between atoms: C_8  and  C_10
REMARK    5  A    between atoms: C_10  and  O_11
REMARK    6  A    between atoms: O_11  and  C_12
REMARK    7  A    between atoms: C_12  and  C_14
REMARK    8  A    between atoms: C_15  and  C_16
REMARK    9  A    between atoms: C_18  and  O_19
REMARK   10  A    between atoms: O_19  and  C_20
REMARK   11  A    between atoms: C_21  and  O_22
REMARK   12  A    between atoms: O_22  and  C_23
REMARK   13  A    between atoms: C_23  and  C_24
REMARK   14  A    between atoms: C_30  and  O_31
REMARK   15  A    between atoms: O_31  and  C_32
REMARK                            x       y       z     vdW  Elec       q    Type
REMARK                         _______ _______ _______ _____ _____    ______ ____
ROOT
ATOM      1  C   UNL     1       2.196   4.480  21.383  0.00  0.00    +0.000 C 
ATOM      2  C   UNL     1       1.375   5.200  20.603  0.00  0.00    +0.000 C 
ENDROOT
BRANCH   2   3
ATOM      3  C   UNL     1       1.409   6.668  20.492  0.00  0.00    +0.000 A 
ATOM      4  C   UNL     1       1.840   7.240  19.288  0.00  0.00    +0.000 A 
ATOM      5  C   UNL     1       1.888   8.635  19.118  0.00  0.00    +0.000 A 
ATOM      6  C   UNL     1       1.402   9.474  20.133  0.00  0.00    +0.000 A 
ATOM      7  C   UNL     1       1.016   8.903  21.376  0.00  0.00    +0.000 A 
ATOM      8  C   UNL     1       1.007   7.512  21.531  0.00  0.00    +0.000 A 
BRANCH   5   9
ATOM      9  O   UNL     1       2.367   9.006  17.885  0.00  0.00    +0.000 OA
ATOM     10  C   UNL     1       3.255   8.090  17.241  0.00  0.00    +0.000 C 
ENDBRANCH   5   9
BRANCH   7  11
ATOM     11  O   UNL     1       0.651   9.773  22.379  0.00  0.00    +0.000 OA
ATOM     12  C   UNL     1      -0.566   9.507  23.077  0.00  0.00    +0.000 C 
ENDBRANCH   7  11
BRANCH   6  13
ATOM     13  O   UNL     1       1.267  10.838  20.037  0.00  0.00    +0.000 OA
BRANCH  13  14
ATOM     14  C   UNL     1       0.065  11.334  19.451  0.00  0.00    +0.000 C 
BRANCH  14  15
ATOM     15  C   UNL     1      -0.753  12.250  20.315  0.00  0.00    +0.000 A 
ATOM     16  C   UNL     1      -0.186  12.912  21.402  0.00  0.00    +0.000 A 
ATOM     17  C   UNL     1      -0.943  13.841  22.113  0.00  0.00    +0.000 A 
ATOM     18  C   UNL     1      -2.261  14.112  21.734  0.00  0.00    +0.000 A 
ATOM     19  C   UNL     1      -2.834  13.452  20.654  0.00  0.00    +0.000 A 
ATOM     20  C   UNL     1      -2.083  12.521  19.945  0.00  0.00    +0.000 A 
ENDBRANCH  14  15
ENDBRANCH  13  14
ENDBRANCH   6  13
ENDBRANCH   2   3
BRANCH   1  21
ATOM     21  C   UNL     1       2.112   3.007  21.384  0.00  0.00    +0.000 C 
ATOM     22  O   UNL     1       2.386   2.284  22.325  0.00  0.00    +0.000 OA
BRANCH  21  23
ATOM     23  O   UNL     1       1.648   2.628  20.169  0.00  0.00    +0.000 OA
BRANCH  23  24
ATOM     24  C   UNL     1       2.567   1.896  19.354  0.00  0.00    +0.000 C 
BRANCH  24  26
ATOM     25  N   UNL     1       3.781   3.746  18.323  0.00  0.00    +0.000 N 
ATOM     26  C   UNL     1       3.884   2.644  19.150  0.00  0.00    +0.000 C 
ATOM     27  O   UNL     1       4.891   2.243  19.720  0.00  0.00    +0.000 OA
ATOM     28  H   UNL     1       2.852   3.932  17.958  0.00  0.00    +0.000 HD
BRANCH  25  32
ATOM     29  C   UNL     1       6.902   6.419  17.325  0.00  0.00    +0.000 A 
ATOM     30  C   UNL     1       6.087   5.900  16.322  0.00  0.00    +0.000 A 
ATOM     31  C   UNL     1       5.039   5.025  16.629  0.00  0.00    +0.000 A 
ATOM     32  C   UNL     1       4.804   4.638  17.949  0.00  0.00    +0.000 A 
ATOM     33  C   UNL     1       5.631   5.153  18.955  0.00  0.00    +0.000 A 
ATOM     34  C   UNL     1       6.677   6.040  18.648  0.00  0.00    +0.000 A 
BRANCH  29  36
ATOM     35  C   UNL     1       7.997   8.503  17.538  0.00  0.00    +0.000 C 
ATOM     36  O   UNL     1       7.896   7.244  16.887  0.00  0.00    +0.000 OA
ENDBRANCH  29  36
ENDBRANCH  25  32
ENDBRANCH  24  26
ENDBRANCH  23  24
ENDBRANCH  21  23
ENDBRANCH   1  21
TORSDOF 12
ENDMDL
