MODEL 1
REMARK VINA RESULT:      -6.5      0.000      0.000
REMARK  Name = 
REMARK  9 active torsions:
REMARK  status: ('A' for Active; 'I' for Inactive)
REMARK    1  A    between atoms: C_1  and  S_2
REMARK    2  A    between atoms: S_2  and  N_5
REMARK    3  A    between atoms: N_5  and  C_6
REMARK    4  A    between atoms: C_6  and  C_7
REMARK    5  A    between atoms: C_7  and  C_8
REMARK    6  A    between atoms: C_8  and  C_9
REMARK    7  A    between atoms: C_9  and  C_10
REMARK    8  A    between atoms: C_10  and  N_11
REMARK    9  A    between atoms: C_14  and  C_15
REMARK                            x       y       z     vdW  Elec       q    Type
REMARK                         _______ _______ _______ _____ _____    ______ ____
ROOT
ATOM      1  N   UNL     1       2.978   6.451  19.237  0.00  0.00    +0.000 N 
ATOM      2  C   UNL     1       2.235   7.579  19.287  0.00  0.00    +0.000 A 
ATOM      3  N   UNL     1       1.584   8.018  20.341  0.00  0.00    +0.000 NA
ATOM      4  C   UNL     1       0.943   9.207  20.048  0.00  0.00    +0.000 A 
ATOM      5  C   UNL     1       1.070   9.633  18.742  0.00  0.00    +0.000 A 
ATOM      6  S   UNL     1       2.081   8.558  17.878  0.00  0.00    +0.000 S 
ATOM      7  H   UNL     1       3.315   6.179  18.319  0.00  0.00    +0.000 HD
ENDROOT
BRANCH   4   8
ATOM      8  C   UNL     1       0.215   9.904  21.121  0.00  0.00    +0.000 A 
ATOM      9  C   UNL     1      -0.166   9.261  22.339  0.00  0.00    +0.000 A 
ATOM     10  C   UNL     1      -0.804  10.122  23.207  0.00  0.00    +0.000 A 
ATOM     11  S   UNL     1      -0.958  11.695  22.554  0.00  0.00    +0.000 S 
ATOM     12  C   UNL     1      -0.164  11.231  21.110  0.00  0.00    +0.000 A 
ENDBRANCH   4   8
BRANCH   1  13
ATOM     13  C   UNL     1       2.632   5.343  20.107  0.00  0.00    +0.000 C 
BRANCH  13  14
ATOM     14  C   UNL     1       2.822   4.019  19.360  0.00  0.00    +0.000 C 
BRANCH  14  15
ATOM     15  C   UNL     1       2.545   4.204  17.872  0.00  0.00    +0.000 C 
BRANCH  15  16
ATOM     16  C   UNL     1       3.573   3.488  16.991  0.00  0.00    +0.000 C 
BRANCH  16  17
ATOM     17  C   UNL     1       4.794   4.361  16.692  0.00  0.00    +0.000 C 
BRANCH  17  18
ATOM     18  N   UNL     1       5.903   4.051  17.631  0.00  0.00    +0.000 NA
ATOM     19  H   UNL     1       5.669   4.344  18.582  0.00  0.00    +0.000 HD
BRANCH  18  21
ATOM     20  C   UNL     1       7.198   6.389  17.883  0.00  0.00    +0.000 C 
ATOM     21  S   UNL     1       7.379   4.758  17.194  0.00  0.00    +0.000 S 
ATOM     22  O   UNL     1       7.368   4.871  15.752  0.00  0.00    +0.000 OA
ATOM     23  O   UNL     1       8.435   4.060  17.896  0.00  0.00    +0.000 OA
ENDBRANCH  18  21
ENDBRANCH  17  18
ENDBRANCH  16  17
ENDBRANCH  15  16
ENDBRANCH  14  15
ENDBRANCH  13  14
ENDBRANCH   1  13
TORSDOF 8
ENDMDL
MODEL 2
REMARK VINA RESULT:      -6.5      1.339      1.870
REMARK  Name = 
REMARK  9 active torsions:
REMARK  status: ('A' for Active; 'I' for Inactive)
REMARK    1  A    between atoms: C_1  and  S_2
REMARK    2  A    between atoms: S_2  and  N_5
REMARK    3  A    between atoms: N_5  and  C_6
REMARK    4  A    between atoms: C_6  and  C_7
REMARK    5  A    between atoms: C_7  and  C_8
REMARK    6  A    between atoms: C_8  and  C_9
REMARK    7  A    between atoms: C_9  and  C_10
REMARK    8  A    between atoms: C_10  and  N_11
REMARK    9  A    between atoms: C_14  and  C_15
REMARK                            x       y       z     vdW  Elec       q    Type
REMARK                         _______ _______ _______ _____ _____    ______ ____
ROOT
ATOM      1  N   UNL     1       2.814   6.066  19.891  0.00  0.00    +0.000 N 
ATOM      2  C   UNL     1       2.218   7.270  19.742  0.00  0.00    +0.000 A 
ATOM      3  N   UNL     1       1.519   7.894  20.663  0.00  0.00    +0.000 NA
ATOM      4  C   UNL     1       1.067   9.109  20.181  0.00  0.00    +0.000 A 
ATOM      5  C   UNL     1       1.386   9.370  18.864  0.00  0.00    +0.000 A 
ATOM      6  S   UNL     1       2.340   8.097  18.235  0.00  0.00    +0.000 S 
ATOM      7  H   UNL     1       3.211   5.658  19.051  0.00  0.00    +0.000 HD
ENDROOT
BRANCH   4   8
ATOM      8  C   UNL     1       0.322   9.998  21.086  0.00  0.00    +0.000 A 
ATOM      9  C   UNL     1       0.174  11.398  20.844  0.00  0.00    +0.000 A 
ATOM     10  C   UNL     1      -0.595  12.018  21.806  0.00  0.00    +0.000 A 
ATOM     11  S   UNL     1      -1.126  10.921  23.007  0.00  0.00    +0.000 S 
ATOM     12  C   UNL     1      -0.334   9.613  22.237  0.00  0.00    +0.000 A 
ENDBRANCH   4   8
BRANCH   1  13
ATOM     13  C   UNL     1       2.241   5.108  20.817  0.00  0.00    +0.000 C 
BRANCH  13  14
ATOM     14  C   UNL     1       1.643   3.931  20.040  0.00  0.00    +0.000 C 
BRANCH  14  15
ATOM     15  C   UNL     1       2.500   2.683  20.222  0.00  0.00    +0.000 C 
BRANCH  15  16
ATOM     16  C   UNL     1       2.904   2.049  18.888  0.00  0.00    +0.000 C 
BRANCH  16  17
ATOM     17  C   UNL     1       3.892   2.917  18.105  0.00  0.00    +0.000 C 
BRANCH  17  18
ATOM     18  N   UNL     1       5.120   3.165  18.904  0.00  0.00    +0.000 NA
ATOM     19  H   UNL     1       4.915   3.144  19.905  0.00  0.00    +0.000 HD
BRANCH  18  21
ATOM     20  C   UNL     1       4.936   5.172  17.131  0.00  0.00    +0.000 C 
ATOM     21  S   UNL     1       5.882   4.634  18.539  0.00  0.00    +0.000 S 
ATOM     22  O   UNL     1       7.217   4.301  18.089  0.00  0.00    +0.000 OA
ATOM     23  O   UNL     1       5.654   5.542  19.641  0.00  0.00    +0.000 OA
ENDBRANCH  18  21
ENDBRANCH  17  18
ENDBRANCH  16  17
ENDBRANCH  15  16
ENDBRANCH  14  15
ENDBRANCH  13  14
ENDBRANCH   1  13
TORSDOF 8
ENDMDL
MODEL 3
REMARK VINA RESULT:      -6.4      5.759      8.295
REMARK  Name = 
REMARK  9 active torsions:
REMARK  status: ('A' for Active; 'I' for Inactive)
REMARK    1  A    between atoms: C_1  and  S_2
REMARK    2  A    between atoms: S_2  and  N_5
REMARK    3  A    between atoms: N_5  and  C_6
REMARK    4  A    between atoms: C_6  and  C_7
REMARK    5  A    between atoms: C_7  and  C_8
REMARK    6  A    between atoms: C_8  and  C_9
REMARK    7  A    between atoms: C_9  and  C_10
REMARK    8  A    between atoms: C_10  and  N_11
REMARK    9  A    between atoms: C_14  and  C_15
REMARK                            x       y       z     vdW  Elec       q    Type
REMARK                         _______ _______ _______ _____ _____    ______ ____
ROOT
ATOM      1  N   UNL     1       7.491   6.910  16.590  0.00  0.00    +0.000 N 
ATOM      2  C   UNL     1       6.671   5.846  16.442  0.00  0.00    +0.000 A 
ATOM      3  N   UNL     1       5.643   5.563  17.210  0.00  0.00    +0.000 NA
ATOM      4  C   UNL     1       5.014   4.414  16.766  0.00  0.00    +0.000 A 
ATOM      5  C   UNL     1       5.614   3.800  15.686  0.00  0.00    +0.000 A 
ATOM      6  S   UNL     1       6.956   4.725  15.165  0.00  0.00    +0.000 S 
ATOM      7  H   UNL     1       8.315   6.924  15.997  0.00  0.00    +0.000 HD
ENDROOT
BRANCH   4   8
ATOM      8  C   UNL     1       3.791   3.966  17.450  0.00  0.00    +0.000 A 
ATOM      9  C   UNL     1       2.725   4.854  17.789  0.00  0.00    +0.000 A 
ATOM     10  C   UNL     1       1.670   4.201  18.389  0.00  0.00    +0.000 A 
ATOM     11  S   UNL     1       1.965   2.525  18.559  0.00  0.00    +0.000 S 
ATOM     12  C   UNL     1       3.503   2.668  17.821  0.00  0.00    +0.000 A 
ENDBRANCH   4   8
BRANCH   1  13
ATOM     13  C   UNL     1       7.691   7.465  17.916  0.00  0.00    +0.000 C 
BRANCH  13  14
ATOM     14  C   UNL     1       8.000   8.961  17.810  0.00  0.00    +0.000 C 
BRANCH  14  15
ATOM     15  C   UNL     1       8.996   9.377  18.887  0.00  0.00    +0.000 C 
BRANCH  15  16
ATOM     16  C   UNL     1       9.134  10.897  19.002  0.00  0.00    +0.000 C 
BRANCH  16  17
ATOM     17  C   UNL     1      10.455  11.409  18.422  0.00  0.00    +0.000 C 
BRANCH  17  18
ATOM     18  N   UNL     1      10.209  12.482  17.424  0.00  0.00    +0.000 NA
ATOM     19  H   UNL     1      10.676  12.273  16.539  0.00  0.00    +0.000 HD
BRANCH  18  21
ATOM     20  C   UNL     1       9.128  14.822  18.175  0.00  0.00    +0.000 C 
ATOM     21  S   UNL     1      10.699  14.018  17.945  0.00  0.00    +0.000 S 
ATOM     22  O   UNL     1      11.366  14.639  16.821  0.00  0.00    +0.000 OA
ATOM     23  O   UNL     1      11.349  13.869  19.228  0.00  0.00    +0.000 OA
ENDBRANCH  18  21
ENDBRANCH  17  18
ENDBRANCH  16  17
ENDBRANCH  15  16
ENDBRANCH  14  15
ENDBRANCH  13  14
ENDBRANCH   1  13
TORSDOF 8
ENDMDL
MODEL 4
REMARK VINA RESULT:      -6.4      1.148      1.356
REMARK  Name = 
REMARK  9 active torsions:
REMARK  status: ('A' for Active; 'I' for Inactive)
REMARK    1  A    between atoms: C_1  and  S_2
REMARK    2  A    between atoms: S_2  and  N_5
REMARK    3  A    between atoms: N_5  and  C_6
REMARK    4  A    between atoms: C_6  and  C_7
REMARK    5  A    between atoms: C_7  and  C_8
REMARK    6  A    between atoms: C_8  and  C_9
REMARK    7  A    between atoms: C_9  and  C_10
REMARK    8  A    between atoms: C_10  and  N_11
REMARK    9  A    between atoms: C_14  and  C_15
REMARK                            x       y       z     vdW  Elec       q    Type
REMARK                         _______ _______ _______ _____ _____    ______ ____
ROOT
ATOM      1  N   UNL     1       2.918   6.166  19.778  0.00  0.00    +0.000 N 
ATOM      2  C   UNL     1       2.252   7.341  19.701  0.00  0.00    +0.000 A 
ATOM      3  N   UNL     1       1.521   7.867  20.658  0.00  0.00    +0.000 NA
ATOM      4  C   UNL     1       0.999   9.080  20.250  0.00  0.00    +0.000 A 
ATOM      5  C   UNL     1       1.297   9.438  18.952  0.00  0.00    +0.000 A 
ATOM      6  S   UNL     1       2.321   8.263  18.248  0.00  0.00    +0.000 S 
ATOM      7  H   UNL     1       3.334   5.833  18.915  0.00  0.00    +0.000 HD
ENDROOT
BRANCH   4   8
ATOM      8  C   UNL     1       0.206   9.869  21.207  0.00  0.00    +0.000 A 
ATOM      9  C   UNL     1      -0.187   9.365  22.485  0.00  0.00    +0.000 A 
ATOM     10  C   UNL     1      -0.889  10.295  23.221  0.00  0.00    +0.000 A 
ATOM     11  S   UNL     1      -1.089  11.767  22.373  0.00  0.00    +0.000 S 
ATOM     12  C   UNL     1      -0.228  11.166  21.021  0.00  0.00    +0.000 A 
ENDBRANCH   4   8
BRANCH   1  13
ATOM     13  C   UNL     1       2.404   5.122  20.644  0.00  0.00    +0.000 C 
BRANCH  13  14
ATOM     14  C   UNL     1       1.435   4.230  19.862  0.00  0.00    +0.000 C 
BRANCH  14  15
ATOM     15  C   UNL     1       2.204   3.174  19.074  0.00  0.00    +0.000 C 
BRANCH  15  16
ATOM     16  C   UNL     1       2.302   3.511  17.584  0.00  0.00    +0.000 C 
BRANCH  16  17
ATOM     17  C   UNL     1       3.746   3.731  17.129  0.00  0.00    +0.000 C 
BRANCH  17  18
ATOM     18  N   UNL     1       4.088   5.178  17.148  0.00  0.00    +0.000 NA
ATOM     19  H   UNL     1       3.325   5.739  16.764  0.00  0.00    +0.000 HD
BRANCH  18  21
ATOM     20  C   UNL     1       6.542   6.157  17.622  0.00  0.00    +0.000 C 
ATOM     21  S   UNL     1       5.510   5.550  16.306  0.00  0.00    +0.000 S 
ATOM     22  O   UNL     1       5.190   6.658  15.431  0.00  0.00    +0.000 OA
ATOM     23  O   UNL     1       6.065   4.315  15.797  0.00  0.00    +0.000 OA
ENDBRANCH  18  21
ENDBRANCH  17  18
ENDBRANCH  16  17
ENDBRANCH  15  16
ENDBRANCH  14  15
ENDBRANCH  13  14
ENDBRANCH   1  13
TORSDOF 8
ENDMDL
MODEL 5
REMARK VINA RESULT:      -6.3      1.126      1.473
REMARK  Name = 
REMARK  9 active torsions:
REMARK  status: ('A' for Active; 'I' for Inactive)
REMARK    1  A    between atoms: C_1  and  S_2
REMARK    2  A    between atoms: S_2  and  N_5
REMARK    3  A    between atoms: N_5  and  C_6
REMARK    4  A    between atoms: C_6  and  C_7
REMARK    5  A    between atoms: C_7  and  C_8
REMARK    6  A    between atoms: C_8  and  C_9
REMARK    7  A    between atoms: C_9  and  C_10
REMARK    8  A    between atoms: C_10  and  N_11
REMARK    9  A    between atoms: C_14  and  C_15
REMARK                            x       y       z     vdW  Elec       q    Type
REMARK                         _______ _______ _______ _____ _____    ______ ____
ROOT
ATOM      1  N   UNL     1       2.809   6.375  19.499  0.00  0.00    +0.000 N 
ATOM      2  C   UNL     1       2.160   7.560  19.500  0.00  0.00    +0.000 A 
ATOM      3  N   UNL     1       1.451   8.042  20.496  0.00  0.00    +0.000 NA
ATOM      4  C   UNL     1       0.940   9.283  20.165  0.00  0.00    +0.000 A 
ATOM      5  C   UNL     1       1.224   9.709  18.885  0.00  0.00    +0.000 A 
ATOM      6  S   UNL     1       2.220   8.562  18.099  0.00  0.00    +0.000 S 
ATOM      7  H   UNL     1       3.207   6.085  18.612  0.00  0.00    +0.000 HD
ENDROOT
BRANCH   4   8
ATOM      8  C   UNL     1       0.174  10.027  21.178  0.00  0.00    +0.000 A 
ATOM      9  C   UNL     1      -0.244   9.444  22.413  0.00  0.00    +0.000 A 
ATOM     10  C   UNL     1      -0.913  10.343  23.216  0.00  0.00    +0.000 A 
ATOM     11  S   UNL     1      -1.054  11.881  22.481  0.00  0.00    +0.000 S 
ATOM     12  C   UNL     1      -0.210  11.350  21.088  0.00  0.00    +0.000 A 
ENDBRANCH   4   8
BRANCH   1  13
ATOM     13  C   UNL     1       2.293   5.290  20.314  0.00  0.00    +0.000 C 
BRANCH  13  14
ATOM     14  C   UNL     1       1.801   4.154  19.412  0.00  0.00    +0.000 C 
BRANCH  14  15
ATOM     15  C   UNL     1       2.505   2.849  19.769  0.00  0.00    +0.000 C 
BRANCH  15  16
ATOM     16  C   UNL     1       4.029   2.994  19.792  0.00  0.00    +0.000 C 
BRANCH  16  17
ATOM     17  C   UNL     1       4.594   3.440  18.442  0.00  0.00    +0.000 C 
BRANCH  17  18
ATOM     18  N   UNL     1       5.985   3.943  18.596  0.00  0.00    +0.000 NA
ATOM     19  H   UNL     1       6.059   4.573  19.396  0.00  0.00    +0.000 HD
BRANCH  18  21
ATOM     20  C   UNL     1       5.669   3.915  15.930  0.00  0.00    +0.000 C 
ATOM     21  S   UNL     1       6.573   4.740  17.222  0.00  0.00    +0.000 S 
ATOM     22  O   UNL     1       7.968   4.377  17.103  0.00  0.00    +0.000 OA
ATOM     23  O   UNL     1       6.149   6.122  17.291  0.00  0.00    +0.000 OA
ENDBRANCH  18  21
ENDBRANCH  17  18
ENDBRANCH  16  17
ENDBRANCH  15  16
ENDBRANCH  14  15
ENDBRANCH  13  14
ENDBRANCH   1  13
TORSDOF 8
ENDMDL
MODEL 6
REMARK VINA RESULT:      -6.2      5.529      8.206
REMARK  Name = 
REMARK  9 active torsions:
REMARK  status: ('A' for Active; 'I' for Inactive)
REMARK    1  A    between atoms: C_1  and  S_2
REMARK    2  A    between atoms: S_2  and  N_5
REMARK    3  A    between atoms: N_5  and  C_6
REMARK    4  A    between atoms: C_6  and  C_7
REMARK    5  A    between atoms: C_7  and  C_8
REMARK    6  A    between atoms: C_8  and  C_9
REMARK    7  A    between atoms: C_9  and  C_10
REMARK    8  A    between atoms: C_10  and  N_11
REMARK    9  A    between atoms: C_14  and  C_15
REMARK                            x       y       z     vdW  Elec       q    Type
REMARK                         _______ _______ _______ _____ _____    ______ ____
ROOT
ATOM      1  N   UNL     1       7.588   6.988  16.688  0.00  0.00    +0.000 N 
ATOM      2  C   UNL     1       6.769   5.923  16.536  0.00  0.00    +0.000 A 
ATOM      3  N   UNL     1       5.761   5.619  17.323  0.00  0.00    +0.000 NA
ATOM      4  C   UNL     1       5.127   4.477  16.869  0.00  0.00    +0.000 A 
ATOM      5  C   UNL     1       5.703   3.890  15.761  0.00  0.00    +0.000 A 
ATOM      6  S   UNL     1       7.027   4.833  15.228  0.00  0.00    +0.000 S 
ATOM      7  H   UNL     1       8.396   7.019  16.075  0.00  0.00    +0.000 HD
ENDROOT
BRANCH   4   8
ATOM      8  C   UNL     1       3.922   4.007  17.572  0.00  0.00    +0.000 A 
ATOM      9  C   UNL     1       3.824   2.704  18.150  0.00  0.00    +0.000 A 
ATOM     10  C   UNL     1       2.618   2.504  18.787  0.00  0.00    +0.000 A 
ATOM     11  S   UNL     1       1.599   3.874  18.679  0.00  0.00    +0.000 S 
ATOM     12  C   UNL     1       2.773   4.742  17.785  0.00  0.00    +0.000 A 
ENDBRANCH   4   8
BRANCH   1  13
ATOM     13  C   UNL     1       7.818   7.514  18.020  0.00  0.00    +0.000 C 
BRANCH  13  14
ATOM     14  C   UNL     1       8.287   8.970  17.928  0.00  0.00    +0.000 C 
BRANCH  14  15
ATOM     15  C   UNL     1       8.929   9.406  19.241  0.00  0.00    +0.000 C 
BRANCH  15  16
ATOM     16  C   UNL     1       9.439  10.849  19.192  0.00  0.00    +0.000 C 
BRANCH  16  17
ATOM     17  C   UNL     1       9.955  11.239  17.804  0.00  0.00    +0.000 C 
BRANCH  17  18
ATOM     18  N   UNL     1       9.754  12.692  17.560  0.00  0.00    +0.000 NA
ATOM     19  H   UNL     1       9.439  12.861  16.603  0.00  0.00    +0.000 HD
BRANCH  18  21
ATOM     20  C   UNL     1      10.744  14.354  19.421  0.00  0.00    +0.000 C 
ATOM     21  S   UNL     1      11.139  13.624  17.847  0.00  0.00    +0.000 S 
ATOM     22  O   UNL     1      11.142  14.672  16.849  0.00  0.00    +0.000 OA
ATOM     23  O   UNL     1      12.260  12.724  18.009  0.00  0.00    +0.000 OA
ENDBRANCH  18  21
ENDBRANCH  17  18
ENDBRANCH  16  17
ENDBRANCH  15  16
ENDBRANCH  14  15
ENDBRANCH  13  14
ENDBRANCH   1  13
TORSDOF 8
ENDMDL
MODEL 7
REMARK VINA RESULT:      -6.2      5.546      7.951
REMARK  Name = 
REMARK  9 active torsions:
REMARK  status: ('A' for Active; 'I' for Inactive)
REMARK    1  A    between atoms: C_1  and  S_2
REMARK    2  A    between atoms: S_2  and  N_5
REMARK    3  A    between atoms: N_5  and  C_6
REMARK    4  A    between atoms: C_6  and  C_7
REMARK    5  A    between atoms: C_7  and  C_8
REMARK    6  A    between atoms: C_8  and  C_9
REMARK    7  A    between atoms: C_9  and  C_10
REMARK    8  A    between atoms: C_10  and  N_11
REMARK    9  A    between atoms: C_14  and  C_15
REMARK                            x       y       z     vdW  Elec       q    Type
REMARK                         _______ _______ _______ _____ _____    ______ ____
ROOT
ATOM      1  N   UNL     1       7.126   6.960  16.851  0.00  0.00    +0.000 N 
ATOM      2  C   UNL     1       6.260   5.951  17.095  0.00  0.00    +0.000 A 
ATOM      3  N   UNL     1       5.550   5.804  18.191  0.00  0.00    +0.000 NA
ATOM      4  C   UNL     1       4.758   4.675  18.101  0.00  0.00    +0.000 A 
ATOM      5  C   UNL     1       4.921   3.938  16.946  0.00  0.00    +0.000 A 
ATOM      6  S   UNL     1       6.038   4.719  15.912  0.00  0.00    +0.000 S 
ATOM      7  H   UNL     1       7.693   6.868  16.015  0.00  0.00    +0.000 HD
ENDROOT
BRANCH   4   8
ATOM      8  C   UNL     1       3.828   4.371  19.200  0.00  0.00    +0.000 A 
ATOM      9  C   UNL     1       3.011   5.366  19.818  0.00  0.00    +0.000 A 
ATOM     10  C   UNL     1       2.195   4.840  20.797  0.00  0.00    +0.000 A 
ATOM     11  S   UNL     1       2.421   3.154  20.984  0.00  0.00    +0.000 S 
ATOM     12  C   UNL     1       3.606   3.123  19.748  0.00  0.00    +0.000 A 
ENDBRANCH   4   8
BRANCH   1  13
ATOM     13  C   UNL     1       7.796   7.598  17.969  0.00  0.00    +0.000 C 
BRANCH  13  14
ATOM     14  C   UNL     1       7.995   9.088  17.672  0.00  0.00    +0.000 C 
BRANCH  14  15
ATOM     15  C   UNL     1       8.889   9.726  18.729  0.00  0.00    +0.000 C 
BRANCH  15  16
ATOM     16  C   UNL     1       9.670  10.927  18.188  0.00  0.00    +0.000 C 
BRANCH  16  17
ATOM     17  C   UNL     1       8.765  12.122  17.881  0.00  0.00    +0.000 C 
BRANCH  17  18
ATOM     18  N   UNL     1       9.547  13.229  17.270  0.00  0.00    +0.000 NA
ATOM     19  H   UNL     1      10.455  12.896  16.939  0.00  0.00    +0.000 HD
BRANCH  18  21
ATOM     20  C   UNL     1       8.544  14.247  19.541  0.00  0.00    +0.000 C 
ATOM     21  S   UNL     1       9.799  14.538  18.314  0.00  0.00    +0.000 S 
ATOM     22  O   UNL     1       9.442  15.729  17.572  0.00  0.00    +0.000 OA
ATOM     23  O   UNL     1      11.103  14.383  18.921  0.00  0.00    +0.000 OA
ENDBRANCH  18  21
ENDBRANCH  17  18
ENDBRANCH  16  17
ENDBRANCH  15  16
ENDBRANCH  14  15
ENDBRANCH  13  14
ENDBRANCH   1  13
TORSDOF 8
ENDMDL
MODEL 8
REMARK VINA RESULT:      -6.2      1.637      1.947
REMARK  Name = 
REMARK  9 active torsions:
REMARK  status: ('A' for Active; 'I' for Inactive)
REMARK    1  A    between atoms: C_1  and  S_2
REMARK    2  A    between atoms: S_2  and  N_5
REMARK    3  A    between atoms: N_5  and  C_6
REMARK    4  A    between atoms: C_6  and  C_7
REMARK    5  A    between atoms: C_7  and  C_8
REMARK    6  A    between atoms: C_8  and  C_9
REMARK    7  A    between atoms: C_9  and  C_10
REMARK    8  A    between atoms: C_10  and  N_11
REMARK    9  A    between atoms: C_14  and  C_15
REMARK                            x       y       z     vdW  Elec       q    Type
REMARK                         _______ _______ _______ _____ _____    ______ ____
ROOT
ATOM      1  N   UNL     1       2.599   6.460  19.810  0.00  0.00    +0.000 N 
ATOM      2  C   UNL     1       2.155   7.662  19.379  0.00  0.00    +0.000 A 
ATOM      3  N   UNL     1       1.361   8.467  20.048  0.00  0.00    +0.000 NA
ATOM      4  C   UNL     1       1.121   9.619  19.320  0.00  0.00    +0.000 A 
ATOM      5  C   UNL     1       1.698   9.648  18.068  0.00  0.00    +0.000 A 
ATOM      6  S   UNL     1       2.627   8.233  17.823  0.00  0.00    +0.000 S 
ATOM      7  H   UNL     1       3.101   5.900  19.129  0.00  0.00    +0.000 HD
ENDROOT
BRANCH   4   8
ATOM      8  C   UNL     1       0.310  10.685  19.928  0.00  0.00    +0.000 A 
ATOM      9  C   UNL     1       0.853  11.648  20.834  0.00  0.00    +0.000 A 
ATOM     10  C   UNL     1      -0.086  12.570  21.242  0.00  0.00    +0.000 A 
ATOM     11  S   UNL     1      -1.623  12.272  20.550  0.00  0.00    +0.000 S 
ATOM     12  C   UNL     1      -1.032  10.912  19.695  0.00  0.00    +0.000 A 
ENDBRANCH   4   8
BRANCH   1  13
ATOM     13  C   UNL     1       1.778   5.698  20.733  0.00  0.00    +0.000 C 
BRANCH  13  14
ATOM     14  C   UNL     1       1.850   4.209  20.381  0.00  0.00    +0.000 C 
BRANCH  14  15
ATOM     15  C   UNL     1       1.398   3.980  18.943  0.00  0.00    +0.000 C 
BRANCH  15  16
ATOM     16  C   UNL     1       2.497   3.359  18.076  0.00  0.00    +0.000 C 
BRANCH  16  17
ATOM     17  C   UNL     1       3.768   3.055  18.873  0.00  0.00    +0.000 C 
BRANCH  17  18
ATOM     18  N   UNL     1       4.976   3.261  18.031  0.00  0.00    +0.000 NA
ATOM     19  H   UNL     1       5.641   2.495  18.154  0.00  0.00    +0.000 HD
BRANCH  18  21
ATOM     20  C   UNL     1       5.351   5.657  16.880  0.00  0.00    +0.000 C 
ATOM     21  S   UNL     1       5.773   4.724  18.336  0.00  0.00    +0.000 S 
ATOM     22  O   UNL     1       7.190   4.435  18.295  0.00  0.00    +0.000 OA
ATOM     23  O   UNL     1       5.154   5.339  19.490  0.00  0.00    +0.000 OA
ENDBRANCH  18  21
ENDBRANCH  17  18
ENDBRANCH  16  17
ENDBRANCH  15  16
ENDBRANCH  14  15
ENDBRANCH  13  14
ENDBRANCH   1  13
TORSDOF 8
ENDMDL
MODEL 9
REMARK VINA RESULT:      -6.1      0.987      1.290
REMARK  Name = 
REMARK  9 active torsions:
REMARK  status: ('A' for Active; 'I' for Inactive)
REMARK    1  A    between atoms: C_1  and  S_2
REMARK    2  A    between atoms: S_2  and  N_5
REMARK    3  A    between atoms: N_5  and  C_6
REMARK    4  A    between atoms: C_6  and  C_7
REMARK    5  A    between atoms: C_7  and  C_8
REMARK    6  A    between atoms: C_8  and  C_9
REMARK    7  A    between atoms: C_9  and  C_10
REMARK    8  A    between atoms: C_10  and  N_11
REMARK    9  A    between atoms: C_14  and  C_15
REMARK                            x       y       z     vdW  Elec       q    Type
REMARK                         _______ _______ _______ _____ _____    ______ ____
ROOT
ATOM      1  N   UNL     1       3.246   6.196  19.270  0.00  0.00    +0.000 N 
ATOM      2  C   UNL     1       2.509   7.329  19.252  0.00  0.00    +0.000 A 
ATOM      3  N   UNL     1       1.803   7.796  20.257  0.00  0.00    +0.000 NA
ATOM      4  C   UNL     1       1.187   8.981  19.900  0.00  0.00    +0.000 A 
ATOM      5  C   UNL     1       1.389   9.375  18.594  0.00  0.00    +0.000 A 
ATOM      6  S   UNL     1       2.440   8.274  17.813  0.00  0.00    +0.000 S 
ATOM      7  H   UNL     1       3.632   5.901  18.379  0.00  0.00    +0.000 HD
ENDROOT
BRANCH   4   8
ATOM      8  C   UNL     1       0.404   9.707  20.914  0.00  0.00    +0.000 A 
ATOM      9  C   UNL     1      -0.243  10.951  20.644  0.00  0.00    +0.000 A 
ATOM     10  C   UNL     1      -0.946  11.422  21.733  0.00  0.00    +0.000 A 
ATOM     11  S   UNL     1      -0.816  10.378  23.081  0.00  0.00    +0.000 S 
ATOM     12  C   UNL     1       0.175   9.288  22.209  0.00  0.00    +0.000 A 
ENDBRANCH   4   8
BRANCH   1  13
ATOM     13  C   UNL     1       2.846   5.111  20.145  0.00  0.00    +0.000 C 
BRANCH  13  14
ATOM     14  C   UNL     1       2.054   4.069  19.349  0.00  0.00    +0.000 C 
BRANCH  14  15
ATOM     15  C   UNL     1       2.990   3.002  18.791  0.00  0.00    +0.000 C 
BRANCH  15  16
ATOM     16  C   UNL     1       3.098   3.059  17.264  0.00  0.00    +0.000 C 
BRANCH  16  17
ATOM     17  C   UNL     1       4.308   3.871  16.794  0.00  0.00    +0.000 C 
BRANCH  17  18
ATOM     18  N   UNL     1       5.369   3.881  17.835  0.00  0.00    +0.000 NA
ATOM     19  H   UNL     1       4.962   3.930  18.772  0.00  0.00    +0.000 HD
BRANCH  18  21
ATOM     20  C   UNL     1       6.887   5.487  19.359  0.00  0.00    +0.000 C 
ATOM     21  S   UNL     1       6.477   5.151  17.661  0.00  0.00    +0.000 S 
ATOM     22  O   UNL     1       5.731   6.277  17.141  0.00  0.00    +0.000 OA
ATOM     23  O   UNL     1       7.646   4.634  16.983  0.00  0.00    +0.000 OA
ENDBRANCH  18  21
ENDBRANCH  17  18
ENDBRANCH  16  17
ENDBRANCH  15  16
ENDBRANCH  14  15
ENDBRANCH  13  14
ENDBRANCH   1  13
TORSDOF 8
ENDMDL
